20

 C   -0.1734462956    1.5852497713   -0.0340495106
 C    0.0132436473    0.0755327674    0.0079670311
 C    1.2462456591   -0.5935148197   -0.6441447214
 C    2.1464664436   -0.1626600201    0.5823627315
 C    3.1378422045   -1.2958666218    0.7868711171
 C    2.8495710232   -2.2977828400    1.8474539743
 N    2.3229719269   -2.4935999459    0.4829005078
 C    1.0173919038   -1.8446362343    0.2599815452
 C    0.7694604593   -0.5969086398    1.1827080201
 H    0.7442904960    2.1323672850    0.1987600503
 H   -0.5066824673    1.9050885825   -1.0276768275
 H   -0.9389776110    1.9007821390    0.6836211976
 H   -0.9324579496   -0.4230814310   -0.2390291111
 H    1.5379693401   -0.6007285349   -1.6960887618
 H    2.4977612146    0.8627100956    0.6822088488
 H    4.1247347019   -1.2340736966    0.3361709457
 H    3.6220384817   -3.0075137771    2.1301808306
 H    2.1595094559   -2.0414905526    2.6454263132
 H    0.2038282492   -2.5391416603    0.0483353402
 H    0.4786724665   -0.5898798668    2.2344714989