18

 C   -0.0638686491    1.5515517773    0.0308714395
 C    0.0126485757    0.0170389118    0.0101904859
 C    0.7466671655   -0.4908076648   -1.2199137037
 C    1.8571135222   -1.2118332905   -1.0649598579
 C    2.2810704149   -1.4752660327    0.3654630302
 C    1.0701021799   -2.0271893338    1.1570371419
 C    0.7459191984   -0.5214869505    1.2561759312
 O    2.1668337168   -0.2248661084    1.1184361360
 H    0.9416142748    1.9710240191    0.1249499372
 H   -0.5137084201    1.9392522345   -0.8886954106
 H   -0.6668947303    1.9030026806    0.8752034165
 H   -1.0118535478   -0.3845957048    0.0091630716
 H    0.3547257408   -0.2268173837   -2.1986872516
 H    2.4301445716   -1.6096684486   -1.8957290373
 H    3.2649166397   -1.9352727679    0.4739585865
 H    0.3745788451   -2.6906507261    0.6399274473
 H    1.3590584531   -2.4371047843    2.1264028918
 H    0.3303425889   -0.1260243271    2.1881894853