15

 N   -0.0154416056    1.4249348948    0.1201898755
 C    0.0180099121    0.0217323235    0.0437515489
 C   -1.1501947606   -0.7423944618    0.0424504121
 N   -1.1801895399   -2.0760385315    0.0321555034
 C   -0.0227719077   -2.7395305728    0.0306895976
 N   -0.0990685785   -4.1312930570    0.0886898097
 C    1.2117692095   -2.0715770921    0.0270277415
 C    1.2253302053   -0.6883837830    0.0313589854
 H    0.7609529784    1.8745326295   -0.3463391796
 H   -0.8869504647    1.8222190686   -0.2046764974
 H   -2.1190958676   -0.2435946398    0.0458152583
 H   -1.0140493748   -4.4705701832   -0.1743047333
 H    0.6450284153   -4.6236019260   -0.3836280262
 H    2.1401444588   -2.6331847809    0.0269453865
 H    2.1701445399   -0.1519782482    0.0322220875