18

 C   -0.0434474231    1.4667029315    0.1504400338
 O    1.1667009673    1.6259553599   -0.6242209361
 C    1.4542065134    0.2162605616   -0.5479873966
 C    0.0436607824   -0.0661023111    0.0327742267
 O   -0.0385017644   -0.7494363528    1.2687746402
 C   -0.5806109272   -2.0596596989    1.0969558945
 C   -1.3231070596   -2.0254909185   -0.2206978582
 N   -2.2667274017   -0.8921749799   -0.2977993397
 C   -0.9189417734   -0.7715079593   -0.8933076251
 H    0.0729965566    1.8170577389    1.1831954598
 H   -0.9072908297    1.9536332191   -0.3134293807
 H    1.7022315832   -0.2109718951   -1.5276869062
 H    2.2545772665   -0.0116797115    0.1680484128
 H    0.2173238786   -2.8169212776    1.0605949788
 H   -1.2251072706   -2.2668791902    1.9571259377
 H   -1.5255713363   -2.9442340479   -0.7600159522
 H   -2.9400802401   -1.0708577139   -1.0394589511
 H   -0.8019759521   -0.6814342745   -1.9674794484