19

 C   -0.0282201873    1.5091993081   -0.0816171519
 C   -0.0538479508    0.0178493798   -0.0228956656
 O    0.7233496839   -0.6994171870   -0.9792616722
 C   -0.2661011729   -1.7786412521   -0.9927586916
 C    0.3687269499   -3.0842171255   -0.5368120633
 C    0.9224407101   -2.9614731414    0.8617573576
 C    0.6479297729   -1.9238841886    1.6547424240
 C   -0.2595856490   -0.8279512455    1.2416396135
 C   -1.1375764783   -1.0210995313    0.0194271974
 H    0.9818661384    1.8829943521    0.1200013706
 H   -0.3309084544    1.8660298826   -1.0714912702
 H   -0.7034784801    1.9355279032    0.6656135333
 H   -0.7161489242   -1.8595710357   -1.9874667216
 H   -0.3590889790   -3.9068427554   -0.6090254128
 H    1.1761156273   -3.3356610336   -1.2371792618
 H    1.5777603831   -3.7556315490    1.2083212711
 H    1.0898596143   -1.8603813338    2.6450877842
 H   -0.7327480720   -0.2649355174    2.0412715690
 H   -2.2170467820   -0.9473010594    0.0165465005