17

 C    0.0376953808    1.5851364444    0.0335155466
 C   -0.0023092656    0.0561654925    0.0211465440
 C   -1.4387586185   -0.5132401285   -0.0019744066
 C   -2.1377759774   -0.1335264285   -1.2318511416
 N   -2.6585930967    0.1622141187   -2.2200884855
 C   -1.4289004488   -2.0670987917    0.1501247507
 O   -0.7248298848   -2.4790371488    1.3008222950
 C   -2.7996555274   -2.6114623822    0.1510582949
 N   -3.8728922564   -3.0332770354    0.2194804354
 H    1.0722558093    1.9380564061    0.0559705770
 H   -0.4425740112    2.0054167520   -0.8550566506
 H   -0.4717181665    1.9893018531    0.9150270340
 H    0.5393780792   -0.3288929911   -0.8506987040
 H    0.4909116326   -0.3510705305    0.9073914857
 H   -2.0045734325   -0.1004592460    0.8441193432
 H   -0.8876018028   -2.4922786249   -0.7017579321
 H   -1.2753713933   -2.3202202790    2.0768314638