23

 C    0.2217657730    1.3220571734    0.3747761822
 C   -0.0467090578   -0.1446959713    0.0331734358
 C   -1.5370127044   -0.4613940352   -0.1143463974
 C   -1.8366892288   -1.9609246922   -0.2760267530
 O   -2.0828835772   -2.3892744583    1.0524766869
 C   -2.7215727257   -1.3086516486    1.7178997080
 C   -4.2444883230   -1.3917775595    1.5704428492
 C   -2.2767236797   -1.3122495839    3.1742400292
 O   -2.2533586094   -0.1182503416    1.0748961544
 H    1.2921054697    1.5094563200    0.5026704578
 H   -0.1410945832    1.9856589967   -0.4184659567
 H   -0.2899088023    1.5980313329    1.3003170351
 H    0.4526728962   -0.4096509148   -0.9083508759
 H    0.3717333055   -0.7985862215    0.8084287778
 H   -1.9568398674    0.1232133732   -0.9436675832
 H   -2.7095870257   -2.1311540036   -0.9229748723
 H   -0.9929225426   -2.5336876096   -0.6691192717
 H   -4.6275101716   -2.2890855974    2.0644273026
 H   -4.7135271822   -0.5125998328    2.0202496989
 H   -4.5282708700   -1.4251854753    0.5152892528
 H   -1.1878141995   -1.2518340128    3.2273005573
 H   -2.7065643762   -0.4557132191    3.6997246541
 H   -2.6056976278   -2.2296421185    3.6697769578