15

 C    0.0059772844    1.5462361180    0.0103366815
 C    1.5640250666    1.6020375279   -0.0048025411
 C    1.8308003905    0.7178979955    1.2323412390
 C    0.9060697145   -0.2413212679    1.2366535937
 C    0.0072196786   -0.0128606273    0.0024441916
 C    0.8814476187   -0.2287492192   -1.2515561303
 C    1.8061738176    0.7304743997   -1.2558566678
 H   -0.4324145271    1.9729215020    0.9167764193
 H   -0.4502260718    1.9820165070   -0.8828903588
 H    2.0404212170    2.5820246316   -0.0045642269
 H    2.6595867268    0.8551952936    1.9137061704
 H    0.8022742316   -1.0713948834    1.9223646401
 H   -0.9546482349   -0.5248081612    0.0093763906
 H    0.7640212923   -1.0518624685   -1.9434311108
 H    2.6213247651    0.8747345122   -1.9520703405