16

 O   -0.1663419493    1.4672511241   -0.0732304557
 C   -0.0558780506    0.0688930620   -0.0788325564
 C   -1.3649744586   -0.6853930673    0.0277427651
 C   -2.0391265489   -0.8040467355   -1.3409224218
 N   -1.6843184647    0.0797209591   -2.4183400819
 C   -0.3118160520    0.1958619263   -2.5310607181
 O    0.2939930704    0.9487632592   -3.2592010626
 C    0.2561135071   -0.7006497798   -1.4354583306
 C   -0.8727377288   -1.6783704309   -1.0334338334
 H    0.6829876450    1.8469992198   -0.3249252215
 H    0.6459652500   -0.2906333821    0.6851495944
 H   -1.9146721725   -0.8749054836    0.9418244522
 H   -3.0380897473   -1.2210636489   -1.3640047301
 H   -2.2587139766    0.8649570888   -2.6843718868
 H    1.2763519884   -1.0354975813   -1.5990004208
 H   -0.8536013616   -2.7590415398   -1.0396037821