18

 C   -0.2131814250    1.4418066794   -0.1495858532
 N    0.1276629467    0.0315501340   -0.0040016960
 C    1.4795646541   -0.4683576182   -0.1426549482
 C    2.5213077658    0.4421284116    0.4947737858
 O    3.0902153400   -0.2595492167    1.6232324171
 C    1.8105601657    0.3938953556    1.7873261501
 C    1.7447532262    1.3977979625    2.9028270400
 O    2.9288386445    2.1606716945    2.9768148617
 C    0.7423319995   -0.5184228683    1.1876991030
 H    0.5294893264    2.1430741392    0.2523684433
 H   -0.3460727787    1.6557663774   -1.2145414781
 H   -1.1690253147    1.6218789305    0.3519891777
 H    1.6732878158   -1.2818161211   -0.8319920247
 H    3.1179059312    1.2373526002    0.0661026538
 H    0.9132935385    2.0912888753    2.7358768131
 H    1.5392248986    0.8673326422    3.8485821896
 H    3.6520554209    1.5288092603    2.8706100136
 H    0.2838511544   -1.3740735084    1.6699895914