18

 C    0.5744285327    1.0140470243    0.4127352776
 C   -0.6733634328    0.4686236692   -0.2533313350
 O   -1.2431902010    1.0661616147   -1.1399787062
 C   -1.2245810993   -0.8652792456    0.1813292450
 N   -0.3887498898   -1.7855681682    0.9682035609
 C   -1.5876810785   -1.2434614424    1.5946875781
 C   -1.4160199908   -0.3647073722    2.7908410712
 C   -2.5749688122    0.2624314433    3.4392040627
 O   -1.9516779925   -0.8877577738    4.0108231111
 H    1.2387266925    0.2129026843    0.7411474504
 H    1.0782039323    1.6871016507   -0.2829033120
 H    0.2899904748    1.5988822360    1.2954043322
 H   -1.8863308274   -1.2750741669   -0.5786987112
 H   -0.5213804419   -2.7462846278    0.6662043153
 H   -2.4620559873   -1.8878075094    1.6798716279
 H   -0.4385796634    0.1007612826    2.8958738126
 H   -2.4466679358    1.1923187487    3.9909169566
 H   -3.5712885497    0.0999331226    3.0296953129