20

 C   -0.2337474070    1.5425749450   -0.0385092789
 C    0.0328996412    0.0464913149    0.0312842941
 O    0.7061854956   -0.3943961463   -1.1723327101
 C    1.8236658086   -1.1924049700   -0.7489007276
 C    2.9191347948   -0.2387481311   -0.2344999163
 C    2.3106055752    0.2408674534    1.1246847400
 C    0.9439999441   -0.4849604557    1.1599248951
 C    1.3149643620   -1.8507221944    0.5412800331
 H    0.6902041879    2.1184880146   -0.1358784401
 H   -0.8580977602    1.7660368749   -0.9085192268
 H   -0.7658043237    1.8814045692    0.8572061062
 H   -0.9377047752   -0.4717804732    0.0905678757
 H    2.1119933319   -1.8433570468   -1.5754092029
 H    3.8746780182   -0.7553874097   -0.0982161156
 H    3.0733629558    0.5777239570   -0.9436556387
 H    2.9254217869   -0.0797850946    1.9709733378
 H    2.2188793750    1.3267873020    1.1902313304
 H    0.4587960426   -0.5008096080    2.1372794437
 H    0.4587391118   -2.5092105651    0.3738310078
 H    2.0901595546   -2.3864875262    1.0959192031