20

 O   -0.0297260291    1.3612660786    0.0212822076
 N    0.0609809872   -0.0422837154    0.0296623586
 C   -1.0824877042   -0.6119780421    0.0025393792
 C   -2.4315579703    0.0612621738    0.0051509373
 C   -3.3180022502   -0.5198421588    1.1266977240
 C   -3.3777403378   -2.0518250889    1.0771773880
 C   -1.9810541528   -2.6667087331    1.1417600680
 O   -2.1320605858   -4.0757661354    1.0508925439
 C   -1.0931902198   -2.1186462336    0.0072168826
 H    0.8971238891    1.6186535542    0.0574570817
 H   -2.3191280472    1.1401857509    0.1084714080
 H   -2.9130439030   -0.1289624722   -0.9645968263
 H   -2.9191118507   -0.1997521619    2.0976168341
 H   -4.3265474827   -0.1009217405    1.0504304788
 H   -3.9819725909   -2.4451089452    1.9008719029
 H   -3.8551724852   -2.3839682289    0.1458319384
 H   -1.5201537530   -2.3930762796    2.1062637433
 H   -1.2575566517   -4.4741715096    1.1082708780
 H   -1.5098806783   -2.4890835819   -0.9401059471
 H   -0.0675412134   -2.4910549505    0.0918422389