17

 C    0.0550114899    1.4996538644    0.1919718544
 O    1.5007657467    1.4333571813   -0.0711660205
 C    1.2802749684    0.2299164468   -0.9011790187
 C    1.3736995220   -1.2573971239   -0.5215628654
 C    0.7328794589   -0.9496778016    0.8501872051
 C   -0.2382129078   -2.0771987961    1.1729786080
 O   -0.8081253481   -2.3353489193   -0.1272747211
 C   -0.2015096439   -1.3644345327   -0.9226771065
 C   -0.0142363168    0.0030077144   -0.1697162128
 H   -0.1624285174    1.7822526847    1.2261861348
 H   -0.4393282388    2.1838127241   -0.5083662477
 H    1.3065325932    0.4995398438   -1.9608077302
 H    2.1284387053   -2.0161799228   -0.7477719020
 H    1.3308597515   -0.5124989884    1.6456948341
 H    0.2432491249   -2.9877218112    1.5479213948
 H   -1.0293336070   -1.7781482176    1.8719369084
 H   -0.5357289710   -1.4227687759   -1.9571581446