21

 C    0.0872647518    1.5411665809   -0.0624232037
 C    0.0687732089    0.0199325864   -0.0080179387
 O    0.6072752437   -0.4611014466   -1.2315502804
 C    0.6694965799   -1.8742645340   -1.2744073664
 C    1.7389461867   -2.3916362470   -0.3126126348
 C    1.4705761354   -1.9215540742    1.1290887628
 C    2.6564516517   -1.1954070375    1.7972851325
 O    2.0864842341    0.0933079183    1.4873275070
 C    0.8054080184   -0.5211134879    1.2132165812
 H    1.1190242050    1.8986075071   -0.0806606383
 H   -0.4271093187    1.8869309550   -0.9623843059
 H   -0.4127768656    1.9637547244    0.8140810384
 H   -0.9746656415   -0.3386628879    0.0774680655
 H   -0.3173673767   -2.3081640478   -1.0347437397
 H    0.9107073879   -2.1438552372   -2.3068621458
 H    1.7977052730   -3.4844715200   -0.3590963736
 H    2.7024595368   -2.0008739234   -0.6571846621
 H    0.9867898971   -2.7007939387    1.7216695424
 H    2.7300009833   -1.3535600454    2.8826377354
 H    3.6449826781   -1.3298781362    1.3438722784
 H    0.1462221907   -0.4210154384    2.0900685660