15

 O   -0.1333876221    1.4491826968   -0.2663938886
 C    0.0011316149    0.1077176427   -0.1149906316
 C    0.4774890157   -0.8961117338   -0.9176208719
 C    0.3378866119   -2.1217082647   -0.1788666282
 C   -0.2028763152   -1.7940207723    1.0322272505
 N   -0.4073488580   -0.4308055806    1.0763473844
 O   -0.5834828156   -2.5295621533    2.1165352358
 C    0.3267059263   -3.4107695081    2.6201174462
 N   -0.0343428236   -4.2261058904    3.5079127642
 H    0.1491059690    1.6824923138   -1.1558153121
 H    0.8702860715   -0.7852758150   -1.9160474378
 H    0.5855455614   -3.1146707174   -0.5177323056
 H   -0.8088803259    0.0774525985    1.8454934702
 H    1.3162509368   -3.2927171533    2.1639391227
 H    0.7573044028   -4.7974420029    3.7959206618