17

 C   -0.1992127830    1.6116372447    0.0149974693
 C   -0.0315835013    0.0869529478   -0.0258919161
 C    0.7722879052   -0.4302558147   -1.2602231652
 C    1.9913623520   -0.5323770332   -0.2955643434
 N    1.0393372397   -0.4582820225    0.8465329699
 C    2.8243397374   -1.7205808728   -0.3524181152
 C    3.5235634357   -2.6957550455   -0.4177811981
 C   -1.3324567064   -0.5620899373    0.1964053099
 N   -2.3651683806   -1.0562622856    0.3539082862
 H    0.7571213156    2.1011948718   -0.1924617885
 H   -0.9283370771    1.9451480736   -0.7293227254
 H   -0.5509481956    1.9327295202    1.0002194786
 H    0.4361614932   -1.4062993494   -1.6061554166
 H    0.8612538563    0.2594977717   -2.0991052163
 H    2.6307878730    0.3572373345   -0.3849191507
 H    1.3160254988    0.1388929979    1.6194521930
 H    4.1322969872   -3.5646748912   -0.4683461714