17

 O   -0.1599273878    0.9620727848    1.5085056741
 C    0.0391366908    0.0572884477    0.4682372501
 C   -0.5779263517   -1.3125768882    0.5445521694
 C   -1.1074730928   -0.3001182268   -0.4571720488
 C   -2.4262612153    0.3473358842   -0.2492664443
 C   -2.7345750226    1.6595726904   -0.4760665353
 O   -4.0416901946    1.9077191413   -0.1987919451
 C   -4.5834251546    0.7347170735    0.2218053927
 C   -3.6507751670   -0.2501264516    0.2166567783
 H   -0.9852390745    1.4337650778    1.3363227685
 H    1.0278296311    0.1463405505    0.0244685280
 H   -0.0243234214   -2.1667658943    0.1704812170
 H   -1.1886267738   -1.5069976891    1.4195132664
 H   -0.8364696069   -0.4705110709   -1.4956676562
 H   -2.1667860699    2.4956632472   -0.8518481406
 H   -5.6274420106    0.7710218603    0.4858396440
 H   -3.7951750382   -1.2806002466    0.5006788819