19

 C    0.2817099917    1.4930927048   -0.2967151376
 C   -0.1109788471    0.0817245621    0.1373181613
 O    0.1542825067   -0.8801723919   -0.8892275948
 C    1.4734617075   -1.3373352656   -0.6967857026
 O    1.8522704332   -1.0178940002    0.6326570973
 C    0.7210657804   -0.4856874504    1.2939355832
 C    1.0453346398    0.3687358582    2.5321548909
 O    0.1884166947   -0.4406674541    3.3613276705
 C    0.0047411654   -1.4112049196    2.3097383550
 H    1.3662304568    1.5852099268   -0.4121956230
 H   -0.1898426881    1.7244615640   -1.2552372132
 H   -0.0498702308    2.2368909252    0.4340014034
 H   -1.1837953610    0.0317089982    0.3433462782
 H    1.4868044151   -2.4230678716   -0.8623757895
 H    2.1828640484   -0.8495699787   -1.3823236238
 H    2.1004451904    0.3017916734    2.8249914098
 H    0.7355014341    1.4192847232    2.5176936222
 H   -1.0535577734   -1.6347191239    2.1319090294
 H    0.5552994664   -2.3408748498    2.5007038533