15

 O    0.0443792579    1.4129512305    0.0082448812
 C   -0.0157607870    0.0440836185    0.0380411287
 C    0.3487356374   -0.8472770794    1.2845443956
 C   -0.3573005632   -1.9012226090    0.4049874720
 C   -1.3416207277   -0.8018732052   -0.0483001426
 O    0.5514098482   -2.0075041348   -0.7510686112
 C    0.7891621930   -0.6888070924   -1.0076753265
 N    1.5004402791   -0.1421628197   -1.8909534554
 H    0.6324850460    1.6412413608   -0.7291009552
 H    1.4025994158   -1.0081274993    1.5200317650
 H   -0.2238046240   -0.5715986933    2.1713038296
 H   -0.6404662286   -2.8969173344    0.7301813094
 H   -2.0611699364   -0.5222573696    0.7225482648
 H   -1.8210907981   -0.9215412623   -1.0218220067
 H    1.9638775978   -0.8144176705   -2.5014538487