14

 O    0.1006371718    1.3582260439    0.1176828328
 C    0.0683611798    0.0027194142    0.0357646720
 C    0.0702791583   -0.6777643208   -1.1793408433
 C    0.0357839216   -2.0784678152   -1.1899698310
 C   -0.0005432840   -2.7980947768    0.0094111828
 C   -0.0019099949   -2.1015487195    1.2141675560
 C    0.0321079490   -0.7132591762    1.2362080837
 C    0.0379844703   -2.7710105668   -2.4421944708
 N    0.0398445088   -3.3289876198   -3.4566064604
 H    0.1237441103    1.7351046099   -0.7684053684
 H    0.0982191415   -0.1339639797   -2.1181884349
 H   -0.0269903463   -3.8801350915   -0.0116815390
 H   -0.0299077589   -2.6490485820    2.1498179448
 H    0.0313192028   -0.1627666997    2.1698377857