18

 O    0.0909242596    1.2581786844   -0.4101928454
 C   -0.0764098650   -0.0079720588    0.1925727820
 C   -1.5604781485   -0.3209106254    0.4602430299
 N   -2.0842710752    0.7284775480    1.3385177281
 C   -3.4690390385    0.5265173505    1.7897650273
 C   -3.6760231841   -0.6615562372    2.6247216714
 C   -3.7972372392   -1.6374496344    3.3165112174
 C   -2.3006592220   -0.3018636074   -0.8755787580
 O   -2.4182578833   -1.2678117777   -1.5815526578
 H   -0.4791925735    1.8661612201    0.0777665617
 H    0.3361322250   -0.7549599116   -0.4912258124
 H    0.4762592281   -0.0844369762    1.1456347747
 H   -1.6446876606   -1.3366628252    0.8752790420
 H   -1.4898352158    0.7876516814    2.1611888247
 H   -3.7793219635    1.4216885024    2.3407328343
 H   -4.1186355981    0.4732457313    0.9078916095
 H   -3.9214679377   -2.5003048814    3.9235110461
 H   -2.6998791078    0.6943977472   -1.1678378955