18

 C   -0.2603682191    1.5186050007    0.0169569241
 C   -0.0410333905    0.0266189992    0.1135511493
 N    1.2579544593   -0.5111216373   -0.2539664743
 C    0.8086244364   -0.6703140049    1.1552177473
 C    1.6168860785    0.1669474048    2.0964906999
 O    1.7757617445   -0.0514638658    3.2712041371
 C    0.3048717592   -2.0235411213    1.5775971284
 C    0.7524764414   -2.7879511764    2.7511413566
 O   -0.5092953149   -2.1090376878    2.7395082518
 H    0.6573801996    2.0779463349    0.2050568708
 H   -0.6060062927    1.7760806298   -0.9897597286
 H   -1.0246236805    1.8443570979    0.7293718387
 H   -0.9150725967   -0.5637829516   -0.1633051106
 H    1.1788199247   -1.3989871700   -0.7446560894
 H    2.0951410118    1.0362154446    1.5996329355
 H   -0.0823743064   -2.5951094781    0.7272857384
 H    0.6926659541   -3.8753415080    2.7177890018
 H    1.4919907211   -2.3617260410    3.4190985831