14

 O    0.0050330261    0.0180595383   -0.3016973962
 C    0.0343840139    1.1696068724    0.0250856611
 O   -1.1015278181    1.8145457816    0.4057744572
 C   -1.0255322873    3.1983871283    0.8112806073
 C    0.3748229778    3.7515103751    0.6156525882
 C    0.9509946420    3.3509041380   -0.7577279018
 C    1.2714532741    2.0594444447    0.0238791583
 O    1.2845951319    2.8168960140    1.2659521830
 H   -1.7656267886    3.7510382746    0.2221609269
 H   -1.3051471847    3.2442322897    1.8687343433
 H    0.4733197727    4.7766474966    0.9810472275
 H    0.2814526577    3.2954276957   -1.6181821261
 H    1.8557820693    3.9083318154   -1.0006696510
 H    2.1788590632    1.4847614756   -0.1561982475