18

 N    0.3521729308   -0.8603298549   -0.6996466683
 C   -0.2259201115   -0.8561005186    0.5298968717
 O    0.3852577787   -0.8478420759    1.5799258986
 C   -1.7589768611   -0.8031348668    0.4958656288
 O   -2.3370241791   -1.2259220349   -0.7274320652
 C   -2.7659391491   -2.5803190841   -0.7496408289
 C   -1.6330281286   -3.5862664386   -0.7565012922
 C   -1.1964887550   -4.2800851381    0.4625020025
 O   -2.0291000936   -4.9322416863   -0.4991853157
 H    1.3547920283   -0.8206139992   -0.7725965857
 H   -0.2225087781   -0.8332402477   -1.5245099068
 H   -2.1344961157   -1.3742219029    1.3519402973
 H   -2.0488441062    0.2443785408    0.6431655196
 H   -3.4290260493   -2.7950820933    0.1011916961
 H   -3.3528029743   -2.6854742418   -1.6679079844
 H   -0.9114245321   -3.4715772632   -1.5659591484
 H   -0.1769966226   -4.6544037513    0.5317856620
 H   -1.6742469613   -4.0528899932    1.4142506989