18

 O   -0.0137289048    1.3449570781    0.1865285652
 C    0.0540571715   -0.0446303724   -0.0887180527
 C   -1.3402102388   -0.6242384469   -0.1215417807
 C   -2.3012436023   -0.0882462297   -1.1708507421
 C   -3.4732469608   -0.6145202569   -0.8204992575
 C   -3.1222208708   -1.4165258314    0.4112271956
 C   -1.7391616056   -2.1090786656    0.1954735213
 C   -1.4668068178   -1.8122938993    1.6733788364
 N   -2.1463824460   -0.5132108455    1.2328269200
 H   -0.6426560406    1.4446627781    0.9127936410
 H    0.5259199273   -0.1515344760   -1.0721918409
 H    0.6953492264   -0.5674929949    0.6357328681
 H   -2.0417056833    0.5910696156   -1.9697223238
 H   -4.4543101225   -0.4998464795   -1.2577659863
 H   -3.9001851212   -1.9049275232    0.9992426201
 H   -1.5185191729   -3.0063555243   -0.3966121061
 H   -2.0472015377   -2.3665284877    2.4161828311
 H   -0.4361088399   -1.6913748286    2.0108705513