18

 N   -0.0355597166   -1.1337522114   -0.0617449784
 C   -0.0191939877    0.0220493035   -0.0211230052
 C    0.0039749676    1.4741410207    0.0327642326
 C   -0.1092630489    2.0707431115    1.4770002792
 C    1.4345769595    1.9318980857    1.5906778134
 C    1.4405642127    2.0991387315    0.0454795844
 C    1.3014673301    3.5895775937   -0.2896149889
 O    0.5889834239    4.2887757212    0.7219522553
 C   -0.4617156179    3.5572720845    1.3389736139
 H   -0.6921497471    1.8731112385   -0.7129767515
 H   -0.7592868879    1.5621008254    2.1902205208
 H    1.9663427807    2.6796015624    2.1812222649
 H    1.7324799494    0.9267617582    1.8932632940
 H    2.2128499312    1.6165565883   -0.5550369644
 H    2.2867605778    4.0647691284   -0.3404160169
 H    0.8167387879    3.7117271837   -1.2724226117
 H   -1.4053540559    3.6710128157    0.7800438768
 H   -0.5996260889    4.0118852884    2.3256336318