20

 C   -0.3473624162    1.2699988374    0.5828490957
 C    0.0836578862   -0.1288084137    0.2087656446
 C    1.4293524868   -0.3814906282   -0.4290471828
 C    1.1632060623   -0.8574963654    0.9753560087
 N    1.8531117985   -0.2047094601    2.0516459225
 C    1.3289391799   -0.1011735257    3.2993666885
 O    0.1944480811   -0.4477537943    3.5909135153
 C    2.2390663817    0.5015466121    4.3767898092
 O    1.5490501202    0.5751615557    5.5876469559
 H    0.5037020850    1.8711454048    0.9149332927
 H   -0.8018937162    1.7784902516   -0.2737427744
 H   -1.0774802742    1.2462660652    1.3972083200
 H   -0.7235578038   -0.7737641634   -0.1267394619
 H    1.5256502599   -1.1244147351   -1.2125560946
 H    2.0860404643    0.4761793991   -0.5428181909
 H    1.0150707078   -1.9237075785    1.1256675512
 H    2.8311569805    0.0089192834    1.9289101070
 H    3.1431582005   -0.1230427126    4.4697061174
 H    2.5726043681    1.4986507827    4.0466785972
 H    0.6752692177    0.1964067950    5.3867834987