21

 C   -0.5120809124    1.3137984726   -0.1404826083
 C    0.0106895383   -0.1350661609   -0.0961686599
 O    0.8591457315   -0.3916092329   -1.1875606758
 C    0.7702693945   -0.3988674946    1.2041398665
 O    1.9757479143   -0.5417231071    1.1675716768
 C    0.0337753622   -0.4865422565    2.5493764141
 C    0.3612030724   -1.8453687272    3.1889105944
 C    0.4975174195    0.6756451553    3.4435913832
 O   -1.3622496113   -0.3885822134    2.2713955590
 H    0.3182365230    2.0200848983   -0.0394028439
 H   -0.9802751742    1.4804055219   -1.1137561409
 H   -1.2465402811    1.4938039839    0.6462380003
 H   -0.8485804344   -0.8174413505   -0.1305538393
 H    1.7496737421   -0.4653596549   -0.8097331414
 H    1.4406147565   -1.9649333945    3.3016501629
 H   -0.1052810624   -1.9141061686    4.1780879517
 H   -0.0217976880   -2.6610988597    2.5694765699
 H    0.2192733482    1.6370653180    3.0038263930
 H    0.0265300675    0.5985016177    4.4300618194
 H    1.5818530907    0.6478981761    3.5741919842
 H   -1.8359493569   -0.4642962629    3.1058853242