20

 C   -0.1343598270    1.4853007672    0.1176628645
 C   -0.2216567247   -0.0276102666   -0.0844696186
 O   -1.5649864010   -0.4749120244   -0.2265022636
 C    0.6467593651   -0.5173438544   -1.2479292355
 C    0.2945701165    0.0293780430   -2.6184158861
 N    2.0498698931   -0.7101070502   -0.8966951043
 C    1.2333303021   -1.9053301832   -1.2182459603
 C    1.0159994190   -2.8850564618   -0.1168669426
 O    0.7565313899   -4.0461868428   -0.3119344068
 H    0.9060348652    1.7946793939    0.2536771708
 H   -0.5429854966    2.0328291412   -0.7398878433
 H   -0.7044064272    1.7745924154    1.0043985975
 H    0.1451792801   -0.5084350143    0.8258042857
 H   -2.0195552691    0.1192707370   -0.8324579786
 H    0.4468814837    1.1127028253   -2.6676747911
 H    0.9116221344   -0.4314321997   -3.3952694133
 H   -0.7520062006   -0.1793233249   -2.8630134788
 H    2.6629675969   -0.4911812052   -1.6784044552
 H    1.3606129540   -2.3834149769   -2.1869272784
 H    1.1321761462   -2.4756682585    0.9089592080