19

 O   -0.0704285505    1.1988516575   -0.7146902154
 C    0.0113329569   -0.1506260780   -0.2957637147
 C   -1.3059817268   -0.5795355680    0.3299856673
 O   -2.3926917269   -0.3806649569   -0.6242854268
 C   -2.5793555668   -1.7951744522   -0.7448631891
 C   -3.8862457539   -2.4092068877   -1.1078348176
 C   -2.6989744818   -2.4910881466   -2.0588252613
 C   -1.6076933531   -2.1040880193    0.3826989939
 O   -0.5891663862   -3.0076856670    0.0247520400
 H   -0.8726621389    1.2545665911   -1.2491194810
 H    0.2604798803   -0.8243282155   -1.1271960759
 H    0.8211853990   -0.2127222850    0.4398173536
 H   -1.5035271980   -0.0131816374    1.2468450319
 H   -4.2010029488   -3.3061702337   -0.5837034457
 H   -4.6899856935   -1.7301810270   -1.3716107378
 H   -2.7279351284   -1.8679617789   -2.9461686016
 H   -2.1830967533   -3.4378979290   -2.1736881671
 H   -2.1026988867   -2.4088775895    1.3127670617
 H   -0.1234358625   -3.2778278869    0.8218230554