17

 N    0.0125594428    1.4183699936   -0.4689881037
 C    0.0169429399    0.0425996368   -0.1020890867
 C    0.6116381728   -0.9267737122   -1.1630267469
 C   -0.7210883203   -1.7341944709   -1.2147367871
 C   -1.2779020718   -0.8762514691   -0.0593946723
 O   -0.8847337690   -1.3805063234    1.2322567353
 C    0.2110143659   -0.4413285310    1.3506226194
 C   -2.6421993587   -0.3914822757   -0.1010240214
 N   -3.7197966956    0.0253368448   -0.1521659299
 H   -0.2597380524    2.0272394765    0.2950298998
 H    0.9165609044    1.7183944842   -0.8161835142
 H    0.8470096663   -0.4210518861   -2.1011097100
 H    1.4901354921   -1.4815043615   -0.8267387652
 H   -1.2688414643   -1.5920662849   -2.1483158023
 H   -0.6709575179   -2.7980169916   -0.9779541244
 H    1.1566879581   -0.9360318641    1.6014894706
 H   -0.0081312423    0.3302507044    2.1024455492