23

 C    0.1683992666    1.4365961855   -0.1585078793
 C   -0.1004127127   -0.0578301263    0.0986662470
 C    0.6470301259   -0.5962802937    1.2841882152
 C    0.1151309505   -0.9815823530    2.4493939271
 C    1.1669204522   -1.3922097674    3.4522777398
 C    2.4009260984   -1.6384279730    2.5535621141
 O    2.4912050508   -3.0060124887    2.1736322289
 C    2.1708863129   -0.6984707482    1.3331222895
 C    2.8615664794   -1.1576854971    0.0459314481
 H    1.2301538201    1.6278692964   -0.3438309154
 H   -0.3908544865    1.7874478871   -1.0312218454
 H   -0.1326039710    2.0393854091    0.7040338129
 H   -1.1748698396   -0.2119595721    0.2493901709
 H    0.1715756470   -0.6238927872   -0.8022017524
 H   -0.9457879737   -0.9614756160    2.6782515223
 H    1.3531187471   -0.5894953981    4.1805588300
 H    0.9219931440   -2.2915094314    4.0276998230
 H    3.3468085449   -1.4262748167    3.0591473188
 H    1.6410634933   -3.2497754461    1.7888182739
 H    2.5735087226    0.2925873977    1.5961823264
 H    2.4997698882   -2.1369284420   -0.2783970150
 H    2.6952526068   -0.4452983871   -0.7682046006
 H    3.9416776928   -1.2444905115    0.1985141605