15

 O   -0.1835869516    0.1948735231   -0.6335350080
 C    0.0852980278    1.0305034439    0.1989306450
 C    1.2779842395    1.8891018173    0.1511407076
 C    1.6652526195    3.0277634803    1.1019201614
 N    2.1968898882    3.8407549586   -0.0408678925
 C    1.7134953074    2.8506694165   -0.9903993100
 C    2.4264566610    1.5516498234   -0.8022338049
 C    3.7859534952    1.4740595993   -0.3365181972
 N    4.8753192945    1.3943743316    0.0418230779
 H   -0.5909725583    1.2289489472    1.0597185976
 H    0.7756771062    3.4729509405    1.5590794674
 H    2.4086473219    2.8094734260    1.8736219807
 H    1.7248585364    4.7318866984   -0.1324549286
 H    1.1961691850    3.0943327488   -1.9109397781
 H    2.1264013274    0.7725974550   -1.4974222582