16

 C    0.1557411570    1.2919601947    0.1739023999
 O   -0.1823516767   -0.0358604439   -0.2019733372
 C    0.5381952985   -0.5032768166   -1.2683307928
 C    0.3910885679   -0.1678176338   -2.7572836515
 C    1.2983861904   -1.4106478823   -2.9611130002
 O    2.5914988622   -0.9999514178   -2.4260963870
 C    1.9758232327   -1.0661526134   -1.1403579711
 C    0.8493178858   -1.9599705775   -1.5548727656
 H    1.2201455627    1.3756591830    0.4307941432
 H   -0.0684535179    2.0071612079   -0.6289977596
 H   -0.4497266587    1.5373185683    1.0486727595
 H   -0.6300566603   -0.3515447744   -3.1009585751
 H    0.7746271257    0.7802154818   -3.1464720301
 H    1.3616608796   -1.9480710199   -3.9040692098
 H    2.5813105463   -1.0254701067   -0.2446290808
 H    0.4502126148   -2.8952658694   -1.1890462418