21

 C    0.0241971053    1.5029021807   -0.2013218534
 C    1.5460927921    1.5235716816   -0.0372638248
 C    1.9385764181    1.0158983382    1.3376298026
 C    1.1565511929    1.3169058356    2.5627748145
 C    0.1732430863    0.5717754541    3.0703714398
 C   -0.2742097332   -0.7576276102    2.5083688125
 C   -0.8791030230   -0.6884236704    1.0935288983
 C    0.0360291555   -0.0496189969    0.0344508936
 C    1.5589677242    0.0240651603    0.2626788223
 H   -0.5389951602    2.0957737992    0.5256279062
 H   -0.3098456548    1.7674621063   -1.2069060101
 H    2.2370932103    2.1000764644   -0.6405134310
 H    3.0176388222    1.0765701002    1.4788218108
 H    1.4184323969    2.2499363766    3.0608265680
 H   -0.3413874277    0.9305408064    3.9590180424
 H    0.5842166585   -1.4408197909    2.4793849902
 H   -1.0039110804   -1.2161361094    3.1839017798
 H   -1.1354927019   -1.7107109273    0.7886461570
 H   -1.8261144217   -0.1341988585    1.1203354418
 H   -0.1533452960   -0.5343294539   -0.9279772853
 H    2.2701593366   -0.7235778860   -0.0711187253