19

 C    0.0183363424    1.5764850316    0.0710782909
 C    0.0438376440    0.0445181186    0.0260974946
 C    0.6253983609   -0.5256781604   -1.2687440907
 C    0.6792760201   -2.0618836479   -1.3332136699
 C    0.7829688604   -2.3243112752   -2.8393702200
 O    0.1426971330   -1.2248484409   -3.4901518487
 C   -0.1846291731   -0.2182096375   -2.5378196480
 H    1.0246447136    1.9924397712   -0.0512024240
 H   -0.6101205257    1.9927604646   -0.7232471141
 H   -0.3760722164    1.9368704659    1.0261237310
 H    0.6279576449   -0.3328621044    0.8748186079
 H   -0.9745267206   -0.3452175744    0.1601069854
 H    1.6432210369   -0.1343211249   -1.4058887192
 H    1.5121128665   -2.4905994963   -0.7696247693
 H   -0.2505167085   -2.4823526674   -0.9312188523
 H    1.8330803989   -2.3740291402   -3.1633135983
 H    0.2942798020   -3.2566165614   -3.1459088717
 H   -1.2651901113   -0.2429526613   -2.3158710395
 H    0.0448438720    0.7592310501   -2.9753850142