19

 C   -0.0816142003    1.6515528596   -0.0422379164
 C    0.0830590698    0.1415175797    0.0610042002
 C    1.1197619210   -0.6224110028   -0.8160033944
 O    2.3537719993    0.0686133873   -0.9074363310
 C    2.8903198618    0.4223082148    0.3704964078
 C    2.2709505731   -0.4787950866    1.4221688754
 O    2.4661919677   -1.8384525203    0.9270288047
 C    1.1751606349   -1.7310739029    0.3270747315
 C    0.7077993718   -0.6017535362    1.2660400942
 H    0.8695414071    2.1848797118   -0.0110963975
 H   -0.5710759426    1.9177950738   -0.9852779569
 H   -0.7095430113    2.0292896634    0.7723023208
 H   -0.8957922894   -0.3306326618   -0.1001783216
 H    0.8493132231   -0.9112499496   -1.8325479868
 H    3.9715015171    0.2518690148    0.3262187609
 H    2.7175674881    1.4838513230    0.5954855937
 H    2.6817553798   -0.3335603482    2.4243040749
 H    0.6718664936   -2.6830641664    0.1508139625
 H    0.1536947253   -0.7616799834    2.1914413280