23

 C   -0.1694530490    1.2160745170    0.2060084629
 O    0.1817048901   -0.1396988037    0.0591803659
 C    0.7452394577   -0.5619582344   -1.1884001689
 C   -0.1498147957   -0.1856720486   -2.3775439556
 C    2.1696231592   -0.0094157570   -1.3561092551
 C    0.8105594325   -2.0940021039   -1.0841205578
 C    1.2586000525   -2.7043897395    0.2635338467
 C   -0.1814029222   -3.2478060354    0.3276805548
 O   -0.4948845532   -2.7003048539   -0.9706509925
 H    0.6746838004    1.8988533135    0.0318495789
 H   -0.9962951597    1.5129574690   -0.4535058130
 H   -0.4976861070    1.3386727740    1.2417300637
 H   -0.2017899791    0.8976695300   -2.5177241065
 H    0.2504798724   -0.6172289763   -3.3002385598
 H   -1.1570046525   -0.5784590313   -2.2228681836
 H    2.7921295268   -0.2778732693   -0.4974407757
 H    2.6362406516   -0.4099047145   -2.2614145385
 H    2.1656694755    1.0803108029   -1.4474119006
 H    1.3411245513   -2.4758420249   -1.9671360921
 H    2.0374677764   -3.4640806808    0.1844240658
 H    1.5185142053   -1.9781211619    1.0319793675
 H   -0.2854715581   -4.3393668158    0.3425997254
 H   -0.8108274551   -2.8124960552    1.1118986778