16

 C    0.0032837581    1.5340879270    0.0096659340
 C    0.0033646812    0.0319409794   -0.0126389627
 C   -0.0348591307   -0.6714563000   -1.1732464208
 C   -0.0109924375   -2.1179897039   -1.2261711426
 O   -0.0363945577   -2.8156459304   -2.2069019089
 O    0.0524852552   -2.7444553859    0.0230892152
 C    0.0615597373   -2.0449356802    1.1758144658
 C    0.0546714541   -0.6937804986    1.2381320730
 N    0.1870997679    0.0175241468    2.4504227943
 H    0.8479385405    1.9090787078    0.5969586870
 H    0.0589436516    1.9439864389   -1.0003139844
 H   -0.9086168970    1.9243502827    0.4801923828
 H   -0.0744242452   -0.1738515315   -2.1347896133
 H    0.0977997523   -2.6935714103    2.0440241913
 H    0.1563638591   -0.5904412186    3.2597257841
 H   -0.5113475393    0.7434622467    2.5617255151