19

 C    0.0937659509    1.3590656267    0.1110076636
 O   -0.1405552226   -0.0138795049   -0.1452849246
 C    0.6091215119   -0.5532700560   -1.2075678489
 C    0.2200844673    0.0602017370   -2.4766807025
 C   -0.1288290143    0.6000912441   -3.4934654519
 C    2.1419655439   -0.8467316137   -0.9658000414
 C    1.6894560590   -1.9072439799    0.0825926765
 C    0.7462395932   -2.1074780297   -1.1421678462
 C    2.0111193811   -1.9662617493   -2.0373243503
 H    1.1388430007    1.5454427657    0.3970756052
 H   -0.1498894089    1.9808595741   -0.7598404541
 H   -0.5562233789    1.6368758700    0.9435569039
 H   -0.4365382606    1.0651312447   -4.3974700665
 H    2.9401408300   -0.1090496529   -0.8757596448
 H    2.3991604495   -2.7168583685    0.2661927197
 H    1.2347127331   -1.5416292443    1.0005371771
 H   -0.0736802231   -2.8179035057   -1.2497585481
 H    1.8628147241   -1.6582322534   -3.0727434099
 H    2.7354027836   -2.7786978840   -1.9546680070