17

 C   -0.0207925996    1.5322975387    0.0477291153
 C   -0.0123505650    0.0314799837    0.0293283849
 C   -1.2837925861   -0.8380529985   -0.0465540961
 C   -0.6188319691   -1.7721838277    0.9995193794
 O   -1.0314092908   -2.6782253391    1.6644162651
 C    0.6353161491   -0.9449231013    1.0401899140
 C    1.2013235253   -0.7580746152   -0.3800719490
 C    1.2292627732   -1.8598173810   -1.3824181831
 O    2.1102543053   -1.9850187808   -2.1958653822
 H    0.9606863724    1.9330990870    0.3176461579
 H   -0.2855641388    1.9322227606   -0.9373368915
 H   -0.7542630635    1.9087803408    0.7688782724
 H   -2.1491848314   -0.3457812575    0.4091644796
 H   -1.5820712177   -1.2493676310   -1.0136519264
 H    1.2752631865   -0.7709559796    1.8971227664
 H    2.1190756865   -0.1752458941   -0.3912431737
 H    0.3882770038   -2.5841076050   -1.3325361232