17

 O   -0.2085330533    1.5507794923   -0.5281593168
 C   -0.0466521828    0.1989958408   -0.1625686297
 C   -1.3885194048   -0.4870166830    0.0654603986
 C   -2.2394348267   -0.6427894574   -1.2032531152
 O   -1.8810041678   -2.0425199774   -1.2895081593
 C   -1.3603429212   -2.0325489923    0.0510143048
 O   -2.0908564064    0.1861266169    1.1223475873
 C   -1.7960216125   -0.1484797618    2.3976807126
 O   -2.2830454323    0.4082569366    3.3340062928
 H   -0.7248307212    1.9787296447    0.1649245148
 H    0.4705032395   -0.2957190001   -0.9906729920
 H    0.5806356246    0.0862078066    0.7378445856
 H   -3.3106769374   -0.4993407859   -1.0191971026
 H   -1.9238658189   -0.0701777095   -2.0791003184
 H   -0.3814364994   -2.5196657422    0.1247062148
 H   -2.0544289518   -2.4910946088    0.7684457903
 H   -1.0747959479   -0.9830844694    2.4755066523