15

 O    0.0779718482    1.2947736225    0.1538862872
 C    0.0683649082   -0.0426910360    0.0157731731
 N    0.0878393536   -0.7142481348   -1.1083556377
 C    0.0654771063   -2.0318324896   -0.6821929773
 C    0.0332253907   -2.1268724520    0.6784958621
 C    0.0092409136   -3.5481012712    1.1297181666
 C    0.0336374553   -4.2613538232   -0.2245873129
 C    0.0655929829   -3.3793966027   -1.2455747043
 N    0.0349237840   -0.8227724344    1.1425582053
 H    0.1018867400    1.6544735608   -0.7417916951
 H    0.8732177001   -3.8356173238    1.7439318857
 H   -0.8874516846   -3.8187817398    1.7033497976
 H    0.0251875122   -5.3396697477   -0.3044973415
 H    0.0875696159   -3.6216310170   -2.2997348964
 H    0.0165450235   -0.4787009411    2.0870472675