22

 C    0.0839777022    1.5783572255    0.0003350856
 C    0.0177258872    0.0488122111    0.0706607462
 C    0.5821836639   -0.5888557548   -1.2289717157
 C    1.2192999160   -1.9860567193   -1.0054194841
 N    1.7373893902   -2.1860759256    0.3638026276
 C    2.2391575906   -0.8713549409    0.9003415623
 C    0.7719517876   -0.5243084526    1.2869786650
 O    0.4737900229    0.2495292158    2.4186470209
 C    0.5809877242   -2.0576619954    1.3129416344
 H    1.1226029472    1.9239893597   -0.0615682802
 H   -0.4400227901    1.9412923313   -0.8901767870
 H   -0.3691666301    2.0351403992    0.8817538000
 H   -1.0345159729   -0.2403155462    0.1942101660
 H   -0.1955803986   -0.6381821114   -1.9978924523
 H    1.3480781014    0.0863958151   -1.6269209751
 H    0.4962000136   -2.7872764049   -1.1924257160
 H    2.0422586386   -2.1342275865   -1.7135493666
 H    2.8693523932   -1.0501892994    1.7794253262
 H    2.7843004145   -0.2392482114    0.1943507671
 H    0.9118438595   -0.1497553043    3.1777179842
 H   -0.3674141670   -2.4786842846    0.9635625930
 H    0.8408360858   -2.5029058804    2.2818898383