16

 O   -0.0582686746    0.0241703426   -0.0422842294
 C   -0.0580803743    1.2217351254   -0.0035605057
 C   -1.2613434489    2.1908265446   -0.0121878055
 N   -1.4070676771    2.6230609738    1.4236231566
 C   -0.3495102019    3.6565711081    1.1634360224
 C    1.0342757116    3.0079725742    1.3577172628
 C    1.1394996305    2.1920683907    0.0438488389
 O    0.7325477060    3.1538755005   -0.9476456773
 C   -0.5241887316    3.5049298595   -0.3904834159
 H   -2.1464012949    1.8193821313   -0.5263620747
 H   -2.3089619611    3.0816793621    1.5299085757
 H   -0.4844030485    4.6149191156    1.6643467977
 H    1.8294416902    3.7587641675    1.3716506365
 H    1.0768295188    2.4017699523    2.2642333520
 H    2.1047218515    1.7589380815   -0.2080608412
 H   -1.0188687156    4.2728017304   -0.9809147228