18

 C   -0.1029950985    1.4708809643    0.0507926274
 C   -0.0188039662   -0.0219019511   -0.0197932313
 C   -0.0335581705   -0.7887727166   -1.1140541900
 C    0.0826760914   -2.2692353955   -0.8342664204
 C    0.0582178098   -2.3397202722    0.7045492827
 C    0.0837406391   -0.8699020031    1.2299049066
 N   -1.1918251818   -1.1649515577    1.9231733415
 C   -1.3466632208   -2.4151606940    1.3604015476
 O   -2.2483148043   -3.2086731891    1.3753609441
 H    0.7755103873    1.8937897893    0.5547642335
 H   -0.1720448017    1.9189503948   -0.9438460231
 H   -0.9785680813    1.7961309585    0.6277676552
 H   -0.1237923507   -0.4031156659   -2.1253149482
 H   -0.7358115705   -2.8465385477   -1.2808850489
 H    1.0118819966   -2.6838420213   -1.2447783013
 H    0.7785203943   -3.0313917912    1.1412920441
 H    0.8784815521   -0.5640386113    1.9181818108
 H   -1.8991651844   -0.5420756702    2.2889015897