17

 C   -0.1806602833    1.5940247385   -0.0722218733
 C   -0.0866481606    0.1049040000    0.0460955082
 C   -0.0713043891   -1.0234948489   -0.9181697558
 N    1.4090986996   -1.4524166895   -0.6715563896
 C    1.0377430590   -0.8377009336    0.6145440511
 N    0.7622676659   -1.6275852825    1.5762214429
 C   -0.7063049101   -1.5197460772    1.7288069080
 C   -1.0955719702   -0.9348712108    0.3491884007
 O   -2.4171625957   -0.6933953903    0.0250461063
 H    0.6661826568    2.0080120619   -0.6301681841
 H   -1.1014417357    1.8705686539   -0.5948839139
 H   -0.1975584984    2.0704409545    0.9135746269
 H   -0.4735532648   -1.0936764673   -1.9250872628
 H    1.9240192287   -0.7789434813   -1.2510260492
 H   -1.0761710461   -2.5345081797    1.9169673630
 H   -1.0768451863   -0.8712675840    2.5366320536
 H   -2.8700016397   -1.5391721737   -0.0689167421