17

 C   -0.0161769311    1.5340236162    0.1043360832
 C    1.2636940471    0.7501897934   -0.0757950073
 C   -0.0543653722    0.0404654016    0.0155308567
 C   -0.4650253301   -0.9979483420    1.0469743536
 O   -1.8756765696   -1.2250378781    0.8905545292
 C   -0.9772901861   -1.8990260787   -0.0022646419
 C   -0.6106028441   -0.8773412569   -1.0776314003
 C   -1.1930333889   -0.6246116707   -2.3907058313
 O    0.1215831338   -1.2007017321   -2.2422289436
 H   -0.2091905057    1.9931340696    1.0682284951
 H   -0.3924673598    2.1002925078   -0.7417049097
 H    1.7439097873    0.7585396308   -1.0483870313
 H    1.9446593378    0.6768576078    0.7657861755
 H   -0.0210261894   -1.2209004885    2.0099362959
 H   -1.0177236686   -2.9796557207   -0.0667275683
 H   -1.9544579610   -1.2935053318   -2.7884619251
 H   -1.2091387294    0.3888708123   -2.7886362504