17

 O   -0.0710324750   -0.0438166235   -0.0097645966
 C    0.0365435019    1.1414942712    0.2061481713
 C    1.2592485718    1.8897599334    0.0665336480
 C    2.2731712837    2.5378993259   -0.0424141056
 C    3.4861263017    3.3313205345   -0.1754612314
 C    3.2231348777    4.8431172009   -0.1645175048
 C    2.8238057355    5.4470718692    1.1999094195
 O    4.0853875289    6.1381499485    1.3118390055
 C    4.4803559238    5.7278060154   -0.0114440413
 H   -0.8307013251    1.7489017121    0.5368793710
 H    4.1693262959    3.0732582139    0.6455140813
 H    4.0042372922    3.0484360813   -1.1013569639
 H    2.5668121044    5.1124689706   -0.9939776888
 H    1.9760946208    6.1428385435    1.1723931293
 H    2.6689728692    4.7304264012    2.0159826440
 H    5.4436734451    5.2012180300   -0.0116254047
 H    4.5402520277    6.5756677718   -0.7054867829