19

 C   -0.1653348103    1.4078117768    0.0471991312
 C    1.4105596695    1.3301184366    0.0503356532
 C    2.0301696490    0.5506780179    1.2552346017
 C    2.3904264823   -0.8705543109    0.7755233621
 C    1.2905208991   -1.8018551082    0.2268704678
 C   -0.0498878965   -1.1545103791    0.2671042039
 C   -0.0266515527   -0.0191732515   -0.4476007223
 C    1.3433341690    0.2260571829   -1.0741001237
 C    2.1809660374   -0.9775244856   -0.7073510131
 H   -0.6789023332    1.5757626622    0.9963522646
 H   -0.5125089763    2.1277642153   -0.7010190908
 H    1.9298295094    2.2665155902   -0.1768139439
 H    2.9470921294    1.0488378674    1.5856088974
 H    1.3516011178    0.5380667946    2.1150540620
 H    3.2440221175   -1.3588093406    1.2338194315
 H    1.4399376075   -2.8698724203    0.3493512225
 H   -0.7780368120   -1.3843241296    1.0382781211
 H    1.3680784105    0.5884627571   -2.1025368737
 H    2.8918008725   -1.4347715750   -1.3826692414