16

 C    0.0917975914    1.5211386113    0.0288932087
 C   -0.0826471378    0.0452443820    0.0647153749
 C   -1.1421172217   -0.8029191998   -0.0138551966
 C   -2.5813932182   -0.9727055234   -0.1564498691
 C   -2.8668763548   -2.2898488532   -0.1378892903
 C   -1.6207590961   -3.1549385536    0.0225083505
 C   -0.5545358522   -2.0965993840    0.0941055592
 N    0.7389321074   -2.0701632686    0.2268576313
 O    1.0499203552   -0.6946938110    0.2088046181
 H    0.7377368092    1.8215341852   -0.8030492311
 H   -0.8763325244    2.0116898049   -0.0896244828
 H    0.5554068110    1.8856988520    0.9518076691
 H   -3.3035220719   -0.1734631502   -0.2602744607
 H   -3.8577487936   -2.7174099150   -0.2247199737
 H   -1.6600879920   -3.7760756696    0.9254599107
 H   -1.4794135516   -3.8398653571   -0.8222260981