18

 C   -0.0190319907    1.5299353463    0.1185054486
 C    1.2989935926    0.8119779328   -0.0176590820
 C    0.0034889377    0.0284355814   -0.0087214303
 C   -0.0141158363   -0.6693945725   -1.4132850948
 C    1.5008913225   -1.0020370636   -1.5416510408
 C    1.9109943984    0.4949419676   -1.4265671775
 C    1.0166075786    1.0800489168   -2.5090690927
 C   -0.1279837170    0.3877855489   -2.5011699060
 H   -0.2508206745    1.9244058997    1.1033863170
 H   -0.3889835113    2.1322418318   -0.7029415332
 H    1.9807870179    0.7970385234    0.8249602720
 H   -0.2913169547   -0.5771658767    0.8406366880
 H   -0.7168067146   -1.5003465848   -1.4772711046
 H    1.8766568691   -1.6138962956   -0.7149766216
 H    1.7691449265   -1.4565015493   -2.5002557142
 H    2.9725128929    0.7310107970   -1.5027242969
 H    1.2487642495    1.9607004842   -3.0949150972
 H   -1.0216186566    0.5875453127   -3.0792462739