18

 O    0.0662783932    1.4270471901   -0.1653983227
 C    0.0096904471    0.0209860662   -0.0331080680
 C   -1.4161435663   -0.4440358465    0.0833097743
 C   -2.4464544196    0.3953431885    0.0586423425
 C   -3.8730687174   -0.0379719944    0.1718997181
 N   -4.0158323950   -1.4754260947    0.3123237509
 C   -3.0360163880   -2.4215356331    0.3492026872
 O   -3.2896077443   -3.6063663128    0.4715267995
 C   -1.5991600457   -1.9297286378    0.2301269118
 H    0.9891417749    1.6850833161   -0.2364860429
 H    0.4763683599   -0.4834953860   -0.8982579570
 H    0.5670965475   -0.3220471549    0.8570431362
 H   -2.2751734711    1.4599426706   -0.0485576633
 H   -4.3416242435    0.4674046868    1.0314416449
 H   -4.4310225873    0.3058316616   -0.7136950887
 H   -4.9476797336   -1.8554623809    0.3952351005
 H   -1.1533176259   -2.4679060485   -0.6174867170
 H   -1.0648060748   -2.3077548202    1.1124158939