17

 C   -0.2682024164    1.3628803104   -0.2757476969
 O   -0.2924715606   -0.0460486365   -0.3278681969
 C    0.8998543979   -0.5921611473   -0.8782847016
 C    0.7427775914   -2.0710323887   -0.9600934116
 N    1.6939210952   -2.9324795145   -0.5989098967
 N    1.1563069756   -4.1113793436   -0.8531254335
 N   -0.0921133877   -4.1094262589   -1.3401538020
 C   -0.3734047113   -2.8101025191   -1.4220032710
 N   -1.5606457443   -2.3098156521   -1.9307574688
 H    0.5530757850    1.7291881301    0.3587895863
 H   -0.1536071193    1.8067640312   -1.2770384647
 H   -1.2185480525    1.6903407015    0.1520044690
 H    1.0702877217   -0.1568863133   -1.8785417424
 H    1.7731842092   -0.3437255470   -0.2578253552
 H    1.6513224898   -4.9693971534   -0.6809763156
 H   -2.3122538734   -2.9855282538   -1.9203723000
 H   -1.8187617702   -1.4390123250   -1.4850870084