21

 C   -0.0419348304    1.4322938132    0.0152497308
 C    0.0618374097   -0.0795182767    0.0378687123
 C    1.4221181455   -0.6752342696   -0.2129194726
 C    0.7983369496   -0.6957265878    1.1919870050
 C    0.7877066031   -2.2381760318    1.1739388632
 O    1.4379279235   -2.7290011478    2.3087444551
 C   -0.4612910268   -2.9985397036    0.6258608817
 C    0.1525820792   -2.9540726830   -0.8135746463
 C    1.4123097768   -2.2213611665   -0.2607522398
 H    0.8625287846    1.8962964019    0.4229049542
 H   -0.1752771545    1.8036706853   -1.0066186087
 H   -0.8915923431    1.7795800382    0.6128923216
 H   -0.8202633668   -0.5790875764   -0.3557110241
 H    2.2319257713   -0.0574659203   -0.5851600009
 H    1.0636565455   -0.1286899260    2.0770538852
 H    1.5517042305   -3.6797236621    2.2046562265
 H   -0.5251631184   -4.0136862295    1.0319327609
 H   -1.4326397801   -2.5177566679    0.7695811241
 H    0.3711726528   -3.9433127553   -1.2225398566
 H   -0.4254134672   -2.4017834564   -1.5577639970
 H    2.3864585852   -2.6753473479   -0.4461327748