19

 C    0.1392532926    1.5572449898   -0.0668501331
 C   -0.0259997398    0.0411938716    0.0543394808
 O    0.5491053973   -0.6076650523   -1.0876168895
 C    1.4666594623   -1.6173573044   -0.6836779742
 C    1.5367973442   -1.5111449262    0.8226374452
 C    0.6771496524   -0.5732767979    1.2269261642
 C    2.3985303452   -2.3177512731    1.7274222040
 C    3.2995003933   -3.3497898535    1.0755450459
 O    2.3783257466   -2.1535895386    2.9304680064
 H    1.1985518338    1.8291720580   -0.0704042479
 H   -0.3135232908    1.9048531543   -0.9992615249
 H   -0.3533532728    2.0662713524    0.7678561044
 H   -1.1049994339   -0.1906523927    0.0917092322
 H    1.1106729746   -2.6068767270   -1.0144330016
 H    2.4380394978   -1.4469671335   -1.1718449232
 H    0.5039751944   -0.2913111771    2.2575161614
 H    3.9873938242   -2.8668453269    0.3715150343
 H    3.8688927194   -3.8770023005    1.8412428306
 H    2.7058967191   -4.0671526325    0.4966720051