16

 C   -0.0145434388    1.5497839785   -0.0229023774
 C    1.4905765644    1.8351986040   -0.0146252227
 O    2.0364168819    1.4392280804    1.2721442645
 C    1.4862078802    0.3108817521    1.7965474220
 N    0.5707455101   -0.4259040578    1.3185604602
 C    0.0357083315    0.0103341915    0.0150976212
 C    1.1156486117   -0.3035486316   -1.0272633047
 O    1.1605937675    0.5925787996   -2.1440288182
 C    2.0358660570    0.8407862171   -1.0381828397
 H   -0.5233641327    1.9711936904    0.8456349019
 H   -0.4704637515    1.9240679097   -0.9391477871
 H    1.7808677231    2.8766285967   -0.1535380668
 H    1.9409871680    0.0904570868    2.7601730725
 H   -0.9223495730   -0.4798482301   -0.1645696756
 H    1.4297874142   -1.3250985390   -1.2138828550
 H    3.1011245365    0.7663336618   -1.2312162250