13

 O   -0.2834874566    1.4515495194   -0.0189198612
 C   -0.1141035141    0.0737383862   -0.0003427704
 C   -0.4820877680   -0.7150086418    1.2178661896
 O   -1.0985272615    0.0271061646    2.2531884439
 C   -2.3327335157    0.4799354342    1.8724149030
 O   -3.0274030130    1.1559306267    2.5618594834
 C   -2.6212109720   -0.0574468021    0.4438706918
 O   -3.6760980749    0.0535836045   -0.1124549566
 C   -1.3883604049   -0.7694189835    0.0016658208
 H    0.3830458623    1.8538008955    0.5504034873
 H    0.6939193679   -0.3212135176   -0.6154870456
 H    0.0986240786   -1.5504926121    1.5871998821
 H   -1.4753575182   -1.6165048439   -0.6648272880