20

 C   -0.1158826413    1.6114890894   -0.0114003933
 C    0.0157423613    0.0671437079   -0.0021236236
 C    0.5554860537   -0.4543146060   -1.3167542130
 C    1.8169422147   -0.6450086894   -1.7080788630
 C    3.0681560908   -0.3795606306   -0.9602766795
 N    3.2080110672    0.8998038221   -0.2320839192
 C    3.1714750161   -0.3617572345    0.5384548594
 C    2.0351297013   -0.6074110570    1.4569220988
 C    0.7316034027   -0.4239621484    1.2379784332
 H    0.8757547749    2.0616374757   -0.0851103954
 H   -0.7219214045    1.9402396286   -0.8627183278
 H   -0.5999235344    1.9612696954    0.9070004243
 H   -1.0062721272   -0.3271109759    0.0730161215
 H   -0.2171747789   -0.6850920861   -2.0481741646
 H    1.9738475794   -1.0402291005   -2.7095924417
 H    3.9601588427   -0.7381314006   -1.4699317059
 H    4.1663315333    1.2329486434   -0.3021144421
 H    4.1255517023   -0.7096329454    0.9292366488
 H    2.3286069314   -0.9790943365    2.4364989106
 H    0.0669814345   -0.6361153518    2.0737456526