16

 C    0.1099274948    1.4188926728   -0.5386364543
 C    0.0070153173    0.0249482858   -0.1338659508
 C   -0.0825155515   -1.1237193432    0.2128155855
 C   -0.1672000953   -2.5186296379    0.6225944783
 N   -1.4121600176   -3.1627517106    0.2071335999
 C   -2.0676827562   -3.0953175707   -0.9747216637
 C   -3.1245887363   -3.9592362088   -0.8182131114
 N   -3.0629580159   -4.5037182136    0.4279374713
 N   -2.0237593402   -4.0219328060    1.0481161008
 H    0.7897115479    1.5394956603   -1.3887261004
 H   -0.8681022336    1.8144693717   -0.8326394796
 H    0.4855575546    2.0394533803    0.2818559936
 H    0.6807935853   -3.0861237050    0.2186281400
 H   -0.1353125616   -2.6216762255    1.7112222573
 H   -1.7433512491   -2.4553317252   -1.7769399484
 H   -3.9122210527   -4.2105478643   -1.5097309181