21

 O    1.8058771601    1.5645654355    0.5422861576
 C    0.8466118049    0.6157040457    0.0900630205
 C    1.2967408159   -0.0358003753   -1.2298794052
 N    0.1519318226   -0.6183208021   -1.9253906234
 C   -0.4751177437    0.2125889966   -2.9525745083
 C    0.3515103741   -0.9674374065   -3.3265631343
 C    0.5412945176   -0.4043962855    1.1732540441
 C   -0.7001168997   -0.3075222755    1.9792299653
 N   -0.5276728674   -1.3935048764    1.0026091239
 H    2.5853801689    1.0802324818    0.8361335770
 H   -0.0568189062    1.2012809197   -0.1203496650
 H    1.8122427759    0.7300369487   -1.8344360699
 H    2.0175067722   -0.8385576117   -1.0253368940
 H   -1.5587784708    0.1656340362   -3.0058003249
 H   -0.0499793142    1.1976084427   -3.1386085976
 H    1.3289279316   -0.7687095999   -3.7630367789
 H   -0.1165263845   -1.8902426621   -3.6564520180
 H    1.4396853490   -0.8110067126    1.6438540508
 H   -0.7077897701   -0.6243383868    3.0185715167
 H   -1.3829966262    0.5081351645    1.7517537388
 H   -1.0184535502   -1.2033686869    0.1317855350