14

 O   -0.0155495467    1.4524571606    0.0075736523
 C    0.0295050467    0.0402377456    0.0018584401
 C   -1.3811749774   -0.4821464930    0.0122473580
 C   -2.4673252556    0.3246183044    0.0239233020
 O   -3.7091185899   -0.1531947012    0.0329550558
 C   -3.9638916337   -1.5605416679    0.0306089900
 O   -5.1096035506   -1.8921455175    0.0392961741
 N   -2.8647827221   -2.3978067035    0.0190003775
 C   -1.6737154339   -1.8797892734    0.0105347856
 H    0.8846369206    1.7891144308    0.0009539803
 H    0.5556701654   -0.3428506241   -0.8887499787
 H    0.5711710520   -0.3495682699    0.8801687271
 H   -2.4232866351    1.4068258762    0.0269490248
 H   -0.8442954495   -2.5910965569    0.0015350911