21

 C   -0.0470353936    1.5136508529    0.5100292199
 C   -0.0900623969    0.1670844778   -0.2272184844
 O    0.9237624668   -0.7186346312    0.2470362811
 C   -1.4220287575   -0.4435035603   -0.1591320939
 C   -2.5098173537   -0.9553066486   -0.0677598909
 C   -3.8250690425   -1.5817228267    0.0511528568
 C   -3.7182243877   -3.0523471832    0.4994495473
 C   -4.7190896430   -0.7651219347    0.9995437401
 O   -6.0164230651   -1.3366891128    0.9633346847
 H    0.9606115422    1.9323973050    0.4443476562
 H   -0.7585490588    2.2205363561    0.0731073867
 H   -0.3048842451    1.3797368299    1.5656570944
 H    0.1701550362    0.3368590469   -1.2793344443
 H    0.6394432720   -1.0418113401    1.1091330742
 H   -4.3136950901   -1.5589092624   -0.9327363304
 H   -4.7175693733   -3.4823242293    0.5902977533
 H   -3.1405728435   -3.6358606773   -0.2215422518
 H   -3.2179598195   -3.1217693150    1.4708166682
 H   -4.2904658512   -0.7937276992    2.0136520926
 H   -4.7317826627    0.2844205653    0.6712850894
 H   -6.5735578330   -0.8635707232    1.5875563906