17

 O   -0.0785507221   -0.0202989889   -0.0013219913
 C   -0.0023952176    1.1899428294   -0.0029584771
 N    1.1652847950    1.8962668525   -0.0057715368
 C    1.2753647851    3.3618193035   -0.0021571937
 C    2.7983586876    3.6065141850   -0.0430752962
 C    3.3771813443    4.7820424412   -0.7474765998
 N    3.4241362707    4.6983633667    0.7234673512
 C    3.4073785676    2.2485309300   -0.0101536276
 C    2.4462908009    1.3227859505    0.0044518673
 H   -0.8863982128    1.8570358385   -0.0045332345
 H    0.7591411007    3.7931594196   -0.8655528654
 H    0.8301363513    3.7789011245    0.9097215811
 H    4.3414504578    4.7025019255   -1.2426312434
 H    2.6865215978    5.4812705106   -1.2145288824
 H    2.7082710553    5.2952175435    1.1329784803
 H    4.4716087607    2.0693379987    0.0023727071
 H    2.5074801777    0.2455088793    0.0209494610