18

 C    0.4265938669    1.0086425523    0.2387228169
 N    0.1249044954   -0.3992228055    0.0929316526
 C    0.3792763403   -0.9485098577   -1.0145295453
 N    0.0276857529   -2.2692142589   -1.2996071196
 C    0.9641573897   -3.3181757706   -1.6572809863
 C    2.4573672041   -3.0948390676   -1.6598222067
 C    0.1744230435   -3.3699589857   -0.3624306756
 C    0.8740112937   -3.2144470628    0.8924574824
 N    1.4366949949   -3.1684731072    1.9014076465
 H    1.1095109244    1.1476637033    1.0840324602
 H    0.8788723698    1.4637439434   -0.6573711194
 H   -0.4917749167    1.5565470974    0.4789950352
 H    0.8162079031   -0.4343494186   -1.8826485097
 H    0.5967366336   -3.9665935604   -2.4514091383
 H    2.7772405592   -2.4830970433   -0.8129844182
 H    2.9790517410   -4.0550454049   -1.6038141900
 H    2.7675380467   -2.5997623871   -2.5855622412
 H   -0.6878311726   -4.0282532859   -0.2948100337