19

 C    0.0208034504    1.5544633937    0.0486230191
 C   -0.0033756197    0.0562174582   -0.0226619504
 C   -0.0315684066   -0.6431228561   -1.1598348010
 C   -0.0540555418   -2.1404209768   -1.1223147846
 C   -0.9402882368   -2.8312894335   -0.0427218399
 O   -0.0672222485   -4.0185811309   -0.0930807718
 C    0.8431239484   -2.8587611525   -0.0700381846
 C   -0.0219501042   -2.2241261304    1.0578776616
 C    0.0046613414   -0.7148505783    1.2771781562
 H    0.9133624507    1.9130157675    0.5779227730
 H    0.0124034455    2.0049682126   -0.9474949098
 H   -0.8435667081    1.9400848909    0.6049848475
 H   -0.0387050469   -0.1455785577   -2.1256705090
 H   -0.0765537815   -2.6350640543   -2.0937257081
 H   -2.0195433957   -2.9913903958   -0.0395506041
 H    1.9165276773   -3.0520239009   -0.0998393764
 H   -0.0167249395   -2.8046638526    1.9829146274
 H    0.8908069540   -0.4416823687    1.8694438328
 H   -0.8540928683   -0.4147986043    1.8961793521