17

 C   -0.0205651004   -0.8754011202   -0.8155346942
 C   -0.0485913924    0.2239684147   -0.3313698317
 C   -0.0569193933    1.5553685984    0.2654255003
 C    1.3484846450    2.1090846927    0.4361011875
 O    1.9269348914    2.8019982420   -0.6750610383
 C    1.6710310367    3.5458924757    0.5123067873
 C    0.6915594751    4.6787080360    0.4332105373
 C    0.4793814383    5.4087181385   -0.8256829600
 O   -0.5081956376    4.5086888529   -0.3152034299
 H   -0.0065305942   -1.8426497125   -1.2529165104
 H   -0.6392556550    2.2521518205   -0.3416390901
 H   -0.5375830046    1.5113079387    1.2522712835
 H    2.0411433909    1.4224698896    0.9254927433
 H    2.5676893259    3.8217376269    1.0743863225
 H    0.5639261741    5.2172848927    1.3736314141
 H    0.2054513023    6.4616383648   -0.8026124508
 H    0.9956382977    5.0617491586   -1.7174744505