15

 C    0.0307381952    1.5463928271   -0.1908635613
 C   -0.0033823493    0.0566983408    0.0560003176
 N    1.2730146996   -0.6734929835   -0.0073010588
 C    0.5454976167   -0.6198859937    1.2641292077
 C    1.2251779795    0.1258077322    2.4039587564
 C    2.1174929022   -0.7478456697    3.1668083827
 N    2.8066865666   -1.4551124313    3.7666536194
 H    0.9318283942    2.0045073275    0.2227216547
 H    0.0239484920    1.7510172132   -1.2664254819
 H   -0.8448589449    2.0356104015    0.2493637429
 H   -0.8715724608   -0.4399247734   -0.3770400504
 H    1.1666757209   -1.5800238034   -0.4525551840
 H    0.0267996381   -1.5199057063    1.5888268199
 H    1.8091126074    0.9613786323    2.0098495835
 H    0.4755030925    0.5390091167    3.0892858616