18

 C    0.0060917018    1.6623686050    0.0293208674
 C   -0.0780001499    0.1349151619    0.0535411044
 C    0.6910421787   -0.5155687171    1.2276562074
 C    0.8170122062   -2.0831307403    1.1513543192
 C    2.3476262973   -1.9842093851    0.8879098976
 C    2.2490464078   -0.4622131776    1.0186023215
 O    3.0235352260    0.4411380253    0.9560083649
 C    0.2492417542   -0.0095223129    2.5171926683
 N   -0.0920959601    0.3773894988    3.5526694764
 H    1.0450912614    1.9986007159   -0.0204529943
 H   -0.5256513661    2.0564317173   -0.8413854649
 H   -0.4457388715    2.0947693991    0.9266948909
 H   -1.1221821014   -0.1934260168    0.1132803504
 H    0.3285841472   -0.2816113322   -0.8762023338
 H    0.5555441336   -2.5870486781    2.0812382717
 H    0.2351894539   -2.5141087986    0.3355704708
 H    2.9917167204   -2.4380036998    1.6462292235
 H    2.6926571707   -2.3192142049   -0.0944113913