21

 C   -0.1477293097    1.5294727599    0.0558146578
 C   -0.0093085960    0.0063070575   -0.0217297598
 C    0.7814103863   -0.5820979189    1.1407404790
 O    0.1100167407   -0.2547506159    2.3677974498
 C    0.4972551471   -1.1945704210    3.3592975598
 C    0.7436421844   -2.4987573147    2.6105524202
 O    1.5787158338   -3.4473125241    3.1953078483
 C   -0.3043770187   -2.8872065292    1.6021296673
 C    0.9204295828   -2.0957523654    1.1758572204
 H    0.8339706040    2.0164563831    0.0470879390
 H   -0.7191555523    1.9163443540   -0.7933160222
 H   -0.6577206795    1.8234621805    0.9765463093
 H   -0.9998812573   -0.4625883611   -0.0440238745
 H    0.4969756817   -0.2792006834   -0.9523768871
 H    1.7941579542   -0.1401363133    1.1477152788
 H    1.4314443996   -0.9024453647    3.8659192740
 H   -0.3060803053   -1.2377102848    4.1037375767
 H    1.0507667005   -3.9773280223    3.8019682585
 H   -0.3187288102   -3.9298410845    1.3042429293
 H   -1.2719421179   -2.3959603300    1.6301480189
 H    1.6666032719   -2.5789910217    0.5570064063