16

 C   -0.0746712311    1.4246981312   -0.0110709358
 N   -0.0333920243   -0.0303138860    0.0326038776
 N   -0.1332520111   -0.6566214941   -1.1302464585
 N   -0.1052828949   -1.9325363120   -1.1752554930
 C    0.0326862547   -2.6201386464    0.0347101053
 C    0.0554857414   -4.1085959794   -0.1130985211
 N    0.1352490029   -2.0765212029    1.2029708051
 C    0.1070059308   -0.6898804427    1.2746882946
 N    0.1935876087    0.0236038404    2.3258281425
 H    0.8452377003    1.8293785669    0.4168615301
 H   -0.1857967448    1.7156122666   -1.0547375917
 H   -0.9115729894    1.7847898231    0.5914728593
 H    0.8766387590   -4.4029350910   -0.7747599388
 H    0.1692928949   -4.5859263902    0.8595241058
 H   -0.8692078980   -4.4475849682   -0.5915649417
 H    0.2895329607   -0.5948938455    3.1304404804