14

 N    0.1301354585   -1.0751896875    0.1482293663
 C    0.0428053521    0.0736536451    0.0378312002
 C   -0.0830687113    1.4981323098   -0.0797406403
 C   -1.3613745868    2.2234886081    0.4323388969
 N   -0.9870618054    3.6377483087    0.2075239118
 C   -0.0405921869    3.5997205099   -0.6384891948
 N    1.3217527731    3.8339795511   -0.1094589787
 C    1.3246768812    2.2926001078   -0.2788361935
 C    0.3012977798    2.2294159623   -1.3288484953
 H   -2.2532460681    1.8582195786   -0.0961112848
 H   -1.5290956925    2.1129964495    1.5070325392
 H    1.9608174177    4.1270089031   -0.8577784291
 H    2.2575412614    1.7517046040   -0.1554097919
 H    0.2928913373    1.9162109097   -2.3641699260