22

 C   -0.0973785026    1.5654949180   -0.0461518392
 C    0.0111840482    0.0383557598   -0.0432813894
 C    0.7314974510   -0.5080616554    1.1938318900
 C    0.8446557270   -2.0326599111    1.1954136093
 N    1.5039709694   -2.5297566676    2.3900033375
 C    2.9610955730   -2.2947396143    2.5312380548
 C    3.0955312955   -3.7591718005    2.9740397127
 O    3.9556004306   -4.4238131599    3.4655205455
 C    1.6443246925   -3.9972047297    2.5323365272
 H    0.8934019086    2.0327995057   -0.0245035661
 H   -0.6161951933    1.9270421907   -0.9393099788
 H   -0.6501651968    1.9246047090    0.8288735076
 H   -0.9938440809   -0.4003611260   -0.1003988640
 H    0.5379139985   -0.2930707287   -0.9479699259
 H    1.7372334925   -0.0693669826    1.2514679524
 H    0.2072363298   -0.1953284347    2.1051796364
 H   -0.1593212917   -2.4737984809    1.1614114798
 H    1.3677409912   -2.3667155742    0.2747962904
 H    3.4904640844   -2.1171765972    1.5789772206
 H    3.2533310483   -1.5208607014    3.2482746859
 H    0.9661494578   -4.4704252047    3.2504669843
 H    1.6046623471   -4.5558817643    1.5816094488