19

 C   -0.3297311167    1.5947291217   -0.3875747252
 C   -0.1554254509    0.1126293369   -0.6290515104
 C   -0.4708567618   -0.8898766176    0.3970602110
 O   -1.3490583653   -0.6690945803   -0.7081427768
 C    0.9563193061    2.2459878376    0.0954610069
 O    2.0745090600    2.0946342918   -0.8354135954
 C    2.3363678030    3.4989094827   -0.7642839447
 C    1.1997852879    4.2827840696   -1.3327971070
 C    1.1214429331    3.7666501982    0.0924592905
 H   -0.6656756571    2.0740317352   -1.3135987554
 H   -1.1135202929    1.7494496527    0.3636564771
 H    0.5968391185   -0.1444371651   -1.3744934474
 H    0.0471589250   -1.8478523529    0.4010328474
 H   -0.8510249882   -0.5660308567    1.3658633048
 H    1.2540569202    1.8227348098    1.0641486323
 H    3.3692215127    3.8201406444   -0.7005744795
 H    1.3593680813    5.3544668475   -1.4025363501
 H    0.5966086372    3.8562465196   -2.1285949757
 H    0.9882342480    4.4152463747    0.9472297474