18

 C   -0.0079553942    1.6126557013    0.0034984934
 C    0.0944868924    0.0923912542   -0.0068311616
 C    0.8071575347   -0.6547703050   -1.1362933483
 C    2.2954675425   -0.7792766042   -0.7608216737
 C    2.4959045152   -0.1163059339    0.6013380882
 C    1.0822380655   -0.6740593155    0.9376031496
 O    0.7227134950   -1.0244617650    2.2308739231
 C    1.2762379357   -1.7451143707   -0.2067157297
 H    0.9516540727    2.0924846315   -0.2083923833
 H   -0.7197929613    1.9575301673   -0.7546040069
 H   -0.3657582899    1.9803921055    0.9731265935
 H   -0.8953720838   -0.3553386462    0.1400342971
 H    0.4852334647   -0.7645981052   -2.1642936575
 H    3.0442568634   -0.9769744849   -1.5166422210
 H    3.2532700168   -0.6465922510    1.1854028588
 H    2.6672094874    0.9645020100    0.6630037051
 H    0.7188664555   -0.2272214385    2.7724957079
 H    1.1894970375   -2.8207159697   -0.2338783248