19

 C    0.1376165734    1.0823077382    0.4165753932
 O   -0.0905214302   -0.1449197854   -0.2569477738
 C   -1.3721482680   -0.6796427079   -0.0957779237
 C   -2.4593334430    0.0507220950   -0.8621548426
 C   -1.4785420809   -2.1524835837    0.0052095735
 C   -0.2470867537   -2.7444865153    0.7078169445
 C   -0.6205105104   -1.8863010706    1.9408517991
 O   -0.2225500273   -1.8609632906    3.0713640206
 C   -1.7990718227   -1.2576354475    1.2570360583
 H    1.1942972287    1.3209254929    0.2793497789
 H   -0.4640268290    1.9015777280    0.0008149216
 H   -0.0742034425    0.9946805665    1.4903589515
 H   -2.1861194790    0.1093444133   -1.9201173469
 H   -3.4161847283   -0.4712316742   -0.7781457382
 H   -2.6014477751    1.0691105265   -0.4885847341
 H   -2.1910289400   -2.7214086841   -0.5786445927
 H   -0.3524466038   -3.8067996950    0.9461257567
 H    0.7218055771   -2.5593197554    0.2425649781
 H   -2.7401369853   -0.9787814608    1.7167291861