12

 C   -0.0647623695    1.4435469295    0.0151213809
 C    0.0029584278   -0.0060702407    0.0036285226
 C    0.0639293598   -1.2095533139   -0.0052380000
 C    0.1240452497   -2.6157748645   -0.0168479333
 N    1.1723217015   -3.3908691897    0.0821681051
 C    0.6068504446   -4.6343384692    0.0075918982
 N   -0.6922981546   -4.6541185147   -0.1275817614
 O   -1.0306335334   -3.3029806724   -0.1455038578
 H    0.9259992149    1.8823598826   -0.1406565674
 H   -0.7285518212    1.8098980519   -0.7750277250
 H   -0.4499366121    1.8081376566    0.9735587828
 H    1.1785742425   -5.5497812057    0.0553180855