13

 O    0.0713731673    1.3668069454   -0.0251473021
 C    0.0574408192    0.0037514912   -0.0414251711
 C   -0.0174950988   -0.8046393045   -1.1451891709
 N    0.0165244865   -2.1228629672   -0.6828494363
 C    0.0965445251   -2.1344771346    0.6728739341
 O    0.1164213900   -3.3117105746    1.3447498799
 C    0.1424045482   -0.8323979827    1.1136503841
 O    0.1750713119   -0.4096674533    2.4321521428
 H   -0.0638986192    1.6344858993    0.8913302371
 H   -0.0781616225   -0.5754769095   -2.1937741819
 H   -0.0780832131   -2.9462945935   -1.2489936773
 H    0.0220968381   -3.1003811711    2.2808781417
 H    1.0913495074   -0.2376519150    2.6793900000