18

 C   -0.2895438959    1.6022345235    0.1599626405
 N   -0.1058055672    0.2339065039   -0.3274622595
 C   -1.2636155333   -0.6073617781   -0.1073430002
 C   -1.0329731924   -2.1114416407   -0.4615592744
 N   -1.2434962397   -2.4220945482    0.9635504445
 C   -1.2314117617   -3.5783745531    1.6906053152
 O   -1.4174779815   -3.6261932101    2.8867052672
 C   -1.4381180750   -1.0742612252    1.3439165984
 N   -1.6626656093   -0.4845585666    2.4314516395
 H    0.6181363699    2.1777383446   -0.0405786490
 H   -1.1449092081    2.1261182168   -0.3010142103
 H   -0.4550607858    1.5770299260    1.2393786685
 H    0.0974617173    0.2540463491   -1.3223267175
 H   -2.2051749251   -0.2089938772   -0.5228719577
 H   -1.7730447141   -2.5633367432   -1.1266739479
 H   -0.0185862398   -2.3238109398   -0.8083923600
 H   -1.0342308789   -4.4699821293    1.0636485343
 H   -1.6967555494   -1.1525398125    3.2037861584