15

 O   -0.0425765222   -0.0777955514   -0.0071332277
 C   -0.0353634667    1.1247752145    0.0441238193
 C   -1.2781086136    1.9717979187    0.1523500659
 C   -1.5912321655    2.6880459004   -1.1805047944
 N   -0.7469089827    3.7958364627   -1.5661106722
 C    0.4726218996    3.9250852323   -1.2670533112
 N    1.3757588223    3.1286358977   -0.5427465073
 C    1.3239809396    1.8561794531    0.0120229058
 O    2.3141123969    1.3528218471    0.4873566301
 H   -2.1071340742    1.3082503681    0.4098511356
 H   -1.1646985557    2.7216306729    0.9446158779
 H   -1.5994797113    1.9541893988   -1.9991604585
 H   -2.6146175274    3.0728140516   -1.1176078107
 H    0.9847800490    4.8201771988   -1.6245286079
 H    2.3150080419    3.5041318448   -0.4896840547