19

 C    0.0094557522    1.6630051933    0.0054006728
 C    0.0198362093    0.1235593391   -0.0311401723
 C   -1.3195576035   -0.4559834479   -0.0303311959
 C   -2.4336880777   -0.9165481806   -0.0290133349
 C   -3.7715540880   -1.4395109019   -0.0167467662
 C   -4.3195369873   -2.1996480334   -1.1914319839
 C   -4.0459562721   -2.9522272061    0.0964028300
 C   -2.9099554695   -3.9025943489    0.1359202618
 O   -2.9112863424   -4.9324962365    0.7640725182
 H    1.0326299852    2.0500360615    0.0032784668
 H   -0.5154484498    2.0690849818   -0.8634443894
 H   -0.4946919320    2.0268978872    0.9047088026
 H    0.5615013730   -0.2176520698   -0.9226991110
 H    0.5842251272   -0.2595862026    0.8287751807
 H   -4.4896301557   -0.8369481887    0.5325197407
 H   -5.3563473694   -2.0495507983   -1.4682394179
 H   -3.6440161354   -2.3764602303   -2.0212614138
 H   -4.8938017628   -3.2439711555    0.7057460481
 H   -2.0332987414   -3.5962164126   -0.4764208965