18

 N    0.0381211458   -1.1576640649   -0.1489200374
 C    0.0202467251   -0.0053780467   -0.0597832887
 C    0.0129418294    1.4548392941    0.0324730082
 C   -0.8332123252    2.1526411512   -1.0387993928
 C   -0.2394796281    3.5721916863   -1.0968517067
 C    1.2771838643    3.3488609946   -0.9183533342
 C    1.3949281537    2.1947066700    0.0859108007
 C    0.9947125697    2.5083169238    1.5408012022
 O   -0.3112721713    1.9062938715    1.3668593344
 H   -0.7020414454    1.6332820799   -1.9948032928
 H   -1.8941010471    2.1234028516   -0.7785778677
 H   -0.4833200785    4.0915438090   -2.0264665403
 H   -0.6379014248    4.1718713683   -0.2723508845
 H    1.7263562279    3.0472214151   -1.8712336008
 H    1.8050288686    4.2460260429   -0.5806639820
 H    2.2916366362    1.5884510622   -0.0344140892
 H    1.5784282742    1.9841063078    2.3057186646
 H    0.9187849855    3.5693527635    1.8050149871