19

 O    0.0682782099    1.3972584014   -0.0955288408
 C    0.0696052418   -0.0078395228    0.0708885546
 C    0.7880182420   -0.4673049689    1.3441148869
 C    0.5440578724   -1.9605376327    1.5502242482
 O   -0.8281979496   -2.2067087297    1.8260128552
 C   -1.7299074530   -1.8182864595    0.8124054939
 C   -2.8498154966   -0.9454952042    1.4030439936
 O   -2.2487293011    0.2581714058    0.8649624995
 C   -1.3640655035   -0.5301890260    0.0280117248
 H   -0.6200109831    1.7348052551    0.4929314125
 H    0.6055292101   -0.4172417110   -0.7956497462
 H    1.8573347948   -0.2468007395    1.2668853945
 H    0.3926471138    0.0750308363    2.2104705626
 H    0.8769537746   -2.5346576126    0.6684650312
 H    1.0897362609   -2.3418448772    2.4171848639
 H   -2.0266601100   -2.6844801972    0.2090168546
 H   -3.8453807313   -1.1194928281    0.9763777788
 H   -2.8977976601   -0.9392145125    2.4952181605
 H   -1.7391803419   -0.5434194466   -1.0039260082