18

 O   -0.0524016606    1.3612802884    0.1253243668
 C    0.0131697993   -0.0333227195   -0.0324655786
 C   -0.5720060574   -0.5974072265   -1.2971546115
 C   -1.3215300405   -0.7204520139    0.0374546823
 C   -1.3803281076   -2.0394135655    0.7132925299
 C   -0.2851205957   -2.7330585246    1.0294658627
 C    1.1060799213   -2.2239165014    0.7430937945
 C    1.1755008962   -0.6853528368    0.6933865396
 H    0.6688534820    1.7479427943   -0.3840997584
 H   -0.9590241855    0.1214381311   -2.0109030662
 H   -0.1685052173   -1.5073436754   -1.7284455023
 H   -2.1814507778   -0.0692093366    0.1482705009
 H   -2.3655263231   -2.4448862639    0.9269824587
 H   -0.3755881757   -3.7125230462    1.4905482813
 H    1.8050071155   -2.5866625160    1.5052375955
 H    1.4672720257   -2.6498498238   -0.2040851824
 H    2.1266546602   -0.3688433066    0.2457807521
 H    1.1615536511   -0.2899275472    1.7160547851