12

 N   -0.0361982516   -1.1816303061   -0.0556330729
 C   -0.0001314690   -0.0281180155   -0.0007958232
 C   -0.0248870007    1.4265861640    0.0015065082
 C    0.0473621072    2.1252468647    1.3963143609
 N    1.4931372176    1.6447775855    1.4508654307
 C    1.3591529389    2.1497536127    0.0186849730
 C    0.6222131329    3.3609500060    0.6520932445
 O    0.6644996289    4.5463185816    0.7134459482
 H   -0.7677797151    1.8109850520   -0.6990448368
 H   -0.6357659461    2.0186107953    2.2351243041
 H    2.0762645808    2.2666913126    2.0171879449
 H    2.1651803963    2.0709385373   -0.7063980416