20

 C    0.1161884789    1.5390131911   -0.1363955643
 C    0.0369407462    0.0162422022    0.0743425851
 C   -1.3671067313   -0.5109151560    0.0811802198
 C   -2.1064810677   -0.9931458969    1.1437681561
 N   -3.3342168063   -1.3240057980    0.6814311541
 C   -4.4593052844   -1.8453735986    1.4173306143
 N   -3.4532064800   -1.0930338068   -0.6513043034
 C   -2.2721113820   -0.5988175874   -1.0111833312
 N   -2.0416496421   -0.1743893040   -2.3239613588
 H    1.1565888493    1.8787005729   -0.1726261584
 H   -0.3730885079    1.8263188647   -1.0717439650
 H   -0.3890638583    2.0685415844    0.6772357804
 H    0.6216818846   -0.4817464542   -0.7127429966
 H    0.5283648179   -0.2500197988    1.0172379447
 H   -1.8440134539   -1.1209417217    2.1833861132
 H   -5.2926998076   -1.1352599418    1.4093236994
 H   -4.8003604349   -2.7864428504    0.9756243732
 H   -4.1533443353   -2.0250629146    2.4497229068
 H   -2.7548265367   -0.5256382955   -2.9512520101
 H   -1.1234364286   -0.4290807406   -2.6653724792