19

 C    0.0021916427    1.3483744118   -0.0440557818
 O   -0.0563129771   -0.0749660046    0.0433941465
 C   -1.2934772358   -0.6008025404    0.0947508680
 N   -2.3623421516    0.0992714365    0.1013930980
 C   -3.5801044674   -0.7180003812    0.0644112628
 C   -3.4975765228   -1.8597696840    1.1236685831
 C   -2.6032129012   -2.5803934582    0.0764407036
 C   -3.4411584306   -1.8426844613   -1.0104567163
 N   -1.2690218403   -1.9811054990    0.1727161108
 H    1.0626521293    1.5959523470   -0.1090223170
 H   -0.5324476875    1.7062734395   -0.9282450727
 H   -0.4457942570    1.8100031024    0.8399976096
 H   -4.4582372632   -0.0723735797    0.0450546544
 H   -3.0521092696   -1.6222517939    2.0916195627
 H   -4.4514335735   -2.3754127251    1.2534295797
 H   -2.5192013080   -3.6675071250    0.0768581675
 H   -4.3906656906   -2.3497032853   -1.1946888315
 H   -2.9526078215   -1.5866196650   -1.9538159334
 H   -0.5050851542   -2.4356909044   -0.3060238438