16

 C    0.1085466618    1.5276884141    0.1326903693
 C   -0.0632702030    0.0122580448   -0.0722197515
 C    0.6872211014   -0.5025493530   -1.2581276717
 N    0.0990023011   -0.7828418630   -2.4203676809
 N    1.1059558825   -1.1817806949   -3.1916876459
 N    2.3088596399   -1.1953161969   -2.6491911218
 C    2.0771414486   -0.7605333486   -1.3994637167
 C    3.0968901959   -0.6126810934   -0.4312146892
 C    3.9317795067   -0.4730415328    0.4243128777
 H    1.1615241638    1.7849096365    0.2801238282
 H   -0.2585318428    2.0824900316   -0.7358072288
 H   -0.4493784180    1.8612834508    1.0126764660
 H    0.2841672280   -0.5152341166    0.8232421225
 H   -1.1215889411   -0.2312730782   -0.2029790387
 H    0.9573020129   -1.4716462155   -4.1449559038
 H    4.6782732323   -0.3544943049    1.1702173253