21

 C   -0.1249081975    1.5912114062   -0.0302419156
 C    0.0179083705    0.0701291298   -0.0080307212
 C    0.9043825628   -0.5221454244   -1.1052323565
 C    2.3094777912   -0.6446047568   -0.5441299081
 C    2.2692649632   -0.1370276665    0.8958955726
 C    0.8045835761   -0.5368914019    1.1854507215
 C    0.8368701502   -2.0426801903    0.7949256536
 O   -0.4264849271   -2.6837969802    0.7330581126
 C    1.4050127658   -1.8605610859   -0.6030046173
 H    0.8433585453    2.1007576050   -0.0346374812
 H   -0.6651548126    1.9130583469   -0.9273109976
 H   -0.6899362006    1.9474760332    0.8384164316
 H   -0.9769344672   -0.3857570006   -0.0426145341
 H    0.7252503547   -0.3431860545   -2.1577186227
 H    3.1866531755   -0.5594633930   -1.1720908525
 H    2.9771048943   -0.6594518520    1.5490817752
 H    2.4562947473    0.9366797216    0.9872260569
 H    0.4240732163   -0.3110104281    2.1832033420
 H    1.5200782989   -2.6072826907    1.4479294094
 H   -0.7567980895   -2.7729706604    1.6327922039
 H    1.5922916823   -2.7000161775   -1.2589138427