18

 N    0.8328036115    0.7389394012   -0.1339762839
 C    0.3389314077   -0.4109371720    0.0249355874
 O   -0.9888509777   -0.6003913366   -0.1074609771
 C   -1.5141263219   -1.8784840219    0.1981649026
 C   -2.3463820026   -2.0078148973    1.4949420491
 C   -3.3765430017   -2.8753709099    0.6896907934
 C   -2.7531188695   -2.2813215412   -0.6225451431
 C   -3.1937242325   -4.3069271107    0.8398993875
 C   -3.0259201143   -5.4917739112    0.9614069391
 H    1.8434902492    0.7002082796   -0.0204522473
 H    0.8891927135   -1.3328595861    0.2616269810
 H   -0.7246494348   -2.6366895762    0.1446941157
 H   -1.8775160780   -2.4620343443    2.3686242763
 H   -2.7794146899   -1.0414886294    1.7635657894
 H   -4.4238425847   -2.6131648496    0.8568657164
 H   -3.2993305054   -1.3906331140   -0.9410792501
 H   -2.6151613296   -2.9551190297   -1.4684783219
 H   -2.8912335592   -6.5393144406    1.0708321956