15

 O   -0.0251291459    1.4550148178   -0.4481104417
 C   -0.0718385388    0.1060319323   -0.1260418080
 C   -1.4082491533   -0.5107989544    0.1876061520
 N   -2.5474914032    0.1403459151   -0.3785476357
 C   -2.3632084315    0.2371183502   -1.7290818433
 C   -3.3073990903    1.0111027625   -2.5649732992
 O   -4.2033080721    1.6737261204   -2.0975712248
 N   -1.3604678000   -0.4163041853   -2.2243901433
 C   -0.6257450464   -0.9214209383   -1.1019519589
 H    0.3831504940    1.5438963201   -1.3169282853
 H    0.7556239527   -0.2632730023    0.4782493819
 H   -1.5671878666   -1.1271260758    1.0645814535
 H   -3.1436181610    0.7833492751    0.1169901549
 H   -3.1134629227    0.9298003988   -3.6512353582
 H   -0.1004503047   -1.8598461562   -1.2346634839