16

 C   -0.0916477649    1.5871101562    0.0485781691
 C    0.0088980820    0.0819127484   -0.0327899951
 O   -1.1150043333   -0.6057455479    0.4225835677
 C    0.6585526413   -0.6259567222   -1.1967780494
 C    1.2584172733    0.1117216506   -2.3443456724
 O    1.0951609246   -0.2221619499   -3.4902005651
 C    1.3386510927   -0.6293621728    0.1909475422
 C    2.5453722243    0.1125648019    0.4170959237
 N    3.5048163181    0.7285135284    0.6169706550
 H    0.8199509244    2.0845068861   -0.2872043568
 H   -0.9321907787    1.9379733422   -0.5563260947
 H   -0.2636723215    1.8914805328    1.0875757251
 H   -1.3095708023   -0.3069872213    1.3190640875
 H    0.1895434234   -1.5632369068   -1.4738550777
 H    1.8789236710    0.9940467741   -2.0817714425
 H    1.2781682155   -1.5763486499    0.7156677636