18

 C   -0.2003469364    1.5305161343   -0.0153031970
 C    0.0836121089    0.0327424150    0.0358650575
 C    0.9362125771   -0.5399238708   -1.1067162567
 C    1.5489610349   -1.7979126643   -0.4547222304
 O    1.6982281106   -1.4424632867    0.9400818678
 C    0.8701964848   -0.3974048211    1.2604779707
 N    0.7933307209    0.1213467424    2.4073278477
 C    0.7141460275   -2.9895350210   -0.5957560950
 C    0.0243016971   -3.9642417535   -0.7281581716
 H    0.7303031609    2.1019726611   -0.0910151813
 H   -0.8284189169    1.7803841510   -0.8757049501
 H   -0.7103183119    1.8456135680    0.8976762766
 H   -0.8681443156   -0.5151464585    0.0679630787
 H    0.3709876249   -0.7742369119   -2.0092623747
 H    1.7390605003    0.1579247775   -1.3667476572
 H    2.5547163424   -2.0098740195   -0.8287854815
 H    1.4129216156   -0.3553708256    3.0644921748
 H   -0.5805125950   -4.8306446464   -0.8383563783