25

 C    0.1505565470    1.4298075314    0.6840953994
 C    0.0019776800   -0.0134654809    0.1945354181
 C    0.6995963117   -0.2674598802   -1.1469725357
 C    0.5919944600   -1.7101556838   -1.6478557697
 C   -0.8515392771   -2.1918074206   -1.9701638583
 C   -0.6522256954   -3.1326182926   -3.1323417632
 C    0.5641539189   -3.0342916641   -3.6729475066
 C    1.0946024735   -3.7728934881   -4.8608272081
 C    1.3917365680   -1.9936240886   -2.9467245845
 H    1.2053063105    1.6958274332    0.8169620542
 H   -0.2786696459    2.1374913140   -0.0341078733
 H   -0.3545105432    1.5823226296    1.6431736166
 H    0.4104566595   -0.7000296042    0.9483502851
 H   -1.0635102179   -0.2604415743    0.1063354588
 H    0.2822105814    0.4080478866   -1.9080461727
 H    1.7609134091    0.0024543453   -1.0535061775
 H    0.9893102247   -2.3741560411   -0.8687135353
 H   -1.3370109453   -2.6665260839   -1.1096070220
 H   -1.4985812097   -1.3477361397   -2.2568507573
 H   -1.4391950571   -3.7828491761   -3.5018435885
 H    0.3548507621   -4.4665591328   -5.2702933419
 H    1.3891390165   -3.0800233339   -5.6601087411
 H    1.9945531110   -4.3465721293   -4.6037745683
 H    1.4897714002   -1.0870852775   -3.5647541163
 H    2.4158150974   -2.3302217784   -2.7414898317