17

 C    0.0013836616    1.5358227019    0.1697214913
 C   -0.0287426993    0.0078238994   -0.0295463985
 C   -1.4177716087   -0.5423204585   -0.0577298334
 C   -2.1506361191   -0.9833743436   -1.0914131739
 C   -3.4920601953   -1.4176883510   -0.6109564879
 O   -4.4245165994   -1.8702352547   -1.2304060702
 N   -3.4665828029   -1.1910200251    0.7709080382
 C   -2.2446739857   -0.6705924113    1.1827352924
 N   -1.8336871495   -0.3535655582    2.3454602642
 H    1.0348588401    1.8938486843    0.1826685409
 H   -0.5269913142    2.0477425133   -0.6403727896
 H   -0.4692200355    1.8068077057    1.1173768881
 H    0.4801454617   -0.2574852845   -0.9617681225
 H    0.5172692397   -0.4650437385    0.7938293539
 H   -1.8700926485   -1.0438130941   -2.1333236179
 H   -4.2455377270   -1.4046134910    1.3718233089
 H   -2.5431406381   -0.5217815542    3.0611364559