15

 N    0.0817301472    1.3978988079    0.1082103835
 C   -0.0461134875    0.0161680871    0.0308152842
 C   -1.1517227410   -0.7870914359    0.0740859779
 C   -0.6286821082   -2.1201648200    0.0343194199
 N   -1.3664542506   -3.2847337283    0.1194982906
 N    0.6853548038   -2.1531552435   -0.0445572893
 N    1.0587793104   -0.8206748926   -0.0187631619
 C    2.3918669163   -0.4361144732    0.0263998449
 O    3.3322510209   -1.1816720480   -0.0265981104
 H    0.6761453739    1.8085601650   -0.6003094776
 H   -0.8167576266    1.8607589788    0.1154051955
 H   -2.1835423122   -0.4773622555    0.1206274860
 H   -2.2691500355   -3.2514649476   -0.3304595344
 H   -0.8365213055   -4.1052338299   -0.1417275903
 H    2.4813860747    0.6600227356    0.1288005415