18

 C   -0.0069489491    1.5734779944   -0.0024541803
 C   -0.0364324110    0.0322849985    0.0259828762
 N    0.7110330299   -0.4303698899    1.2004244873
 C   -1.4983771995   -0.4837793761   -0.0100844777
 O   -2.1133670272   -0.0333130416    1.1915036866
 C   -3.4083829387   -0.3722861892    1.3774291851
 N   -3.9967261112   -0.0226213163    2.4350819476
 C    0.6257679629   -0.4950405609   -1.1829831876
 N    1.1075396302   -0.9220573293   -2.1420082981
 H    1.0264192614    1.9208898553    0.0309785766
 H   -0.4873879349    1.9578807917   -0.9056182770
 H   -0.5428324156    1.9574742162    0.8685208029
 H    0.1912759922   -0.1532914791    2.0293411909
 H    0.7602610634   -1.4456577480    1.2104272860
 H   -2.0270239179   -0.0929771880   -0.8888630119
 H   -1.5015727776   -1.5803900502   -0.0561307002
 H   -3.8354025135   -0.9452340114    0.5436049059
 H   -4.9611136341   -0.3476318261    2.4245326179