18

 C   -0.0123498564    1.5409377910    0.0104196700
 C    0.0219725009    0.0321844710   -0.0002559493
 C   -0.1126134123   -0.6857467801   -1.1910224682
 C   -0.1120778293   -2.0773018876   -1.1965826514
 C    0.0282406281   -2.8046177957   -0.0121899519
 C    0.0627095560   -4.3133775872   -0.0213994273
 C    0.1628606671   -2.0864543501    1.1789907377
 C    0.1623588671   -0.6953667158    1.1845451936
 H    0.6011412949    1.9494639317    0.8191045866
 H    0.3519017452    1.9559734241   -0.9340170315
 H   -1.0326721959    1.9169850086    0.1574024411
 H   -0.2222153776   -0.1478792345   -2.1286846149
 H   -0.2200340829   -2.6077421794   -2.1386564269
 H    1.0892903219   -4.6896566528   -0.1142272509
 H   -0.3502872845   -4.7287433924    0.9027988113
 H   -0.5079646581   -4.7213550602   -0.8609114285
 H    0.2723983987   -2.6243930454    2.1166547850
 H    0.2703939472   -0.1648548451    2.1266046954