19

 O    0.1131749219    1.3945631136    0.3212961229
 C   -0.0132199951    0.0430385089   -0.0975521542
 C   -1.4301164759   -0.4829784910   -0.0406837320
 C   -1.9282565725   -1.4281572358   -1.1227869367
 C   -2.5017022409   -0.0385467876   -1.0047351989
 O   -3.7186620923    0.1456777366   -0.3217972911
 C   -3.5315789103   -0.0425918464    1.0601511746
 C   -3.2877561498   -1.4350865063    1.5792481293
 C   -2.1189504310   -0.5027702462    1.3137928579
 H   -0.1244534292    1.4457145690    1.2519462281
 H    0.3406445914    0.0254679339   -1.1331319728
 H    0.6539650152   -0.6156058767    0.4815829860
 H   -1.2552774686   -1.6064563489   -1.9564109947
 H   -2.5421732402   -2.2811486899   -0.8624051689
 H   -2.3437444402    0.6938366636   -1.7892026634
 H   -4.0641805773    0.6869154189    1.6609938627
 H   -3.5337851661   -1.6140512262    2.6212010154
 H   -3.4672171080   -2.2833725509    0.9305705260
 H   -1.5465676311   -0.1487173987    2.1648750898