18

 C    0.0012924985    1.5953093848    0.0740670963
 C    1.4859786385    1.9755759274   -0.1230306532
 C    2.2805511300    0.8143724764    0.5263164704
 N    2.4840627928    1.0967339055    1.9506105474
 C    1.6237383299    0.6845892621    2.7760844759
 O    0.5054403183   -0.0573360012    2.5532890106
 C    0.3958682696   -0.6830742996    1.2950985264
 C   -0.0107561155    0.0642145064    0.0521688054
 C    1.4224954280   -0.4255964371    0.2391886683
 H   -0.3881617258    1.9790985412    1.0233818864
 H   -0.6322829431    2.0018489145   -0.7178609559
 H    1.7131907769    1.9983743690   -1.1947686394
 H    1.7592124042    2.9434985058    0.3041873881
 H    3.2711329936    0.7138619947    0.0768375471
 H    1.7033626820    0.9145423940    3.8366322316
 H    0.0082273423   -1.6870286554    1.4277611814
 H   -0.6944112683   -0.4498981429   -0.6139842608
 H    1.8507697481   -1.2525986855   -0.3139300260