20

 C    0.0398492074    1.6844180359   -0.0293320521
 C   -0.1391883524    0.1640860555   -0.0874882078
 C    0.6965487301   -0.4929486127   -1.1861551297
 C    2.2239516492   -0.5831445161   -0.8564138800
 C    2.0126066684   -2.0799231179   -0.5817124255
 O    2.6264989140   -2.9108977409    0.0240423752
 C    0.6281048311   -2.0659175653   -1.2471588694
 C   -0.5001490606   -2.8685265199   -0.6135356230
 H    1.0828824676    1.9595188751    0.1602965466
 H   -0.2573710949    2.1523845003   -0.9744324066
 H   -0.5686986916    2.1242782630    0.7666081024
 H    0.1225472217   -0.2722248518    0.8861846683
 H   -1.1984224653   -0.0705468966   -0.2498994313
 H    0.4780531835   -0.0143752023   -2.1449170692
 H    2.8757297596   -0.4156651168   -1.7197827671
 H    2.6009379789    0.0081397544   -0.0172945785
 H    0.7657591933   -2.3820128657   -2.2903795570
 H   -0.6719382371   -2.5747974844    0.4256633060
 H   -1.4390155648   -2.7434879949   -1.1622534664
 H   -0.2454071080   -3.9325187192   -0.6168958748