18

 C    0.0235998103    1.3093375280   -0.1633274101
 O   -0.0228868859   -0.0010284268    0.3546049011
 C   -1.2598335337   -0.6221659494    0.1760644123
 C   -1.6721068137   -1.1614990101   -1.2504945026
 C   -1.8124823363   -2.5532647551   -0.6064383899
 C   -2.7391516562   -3.6641145290   -0.9774356271
 O   -0.5054165188   -2.8789346703   -0.1176887235
 C   -1.3403857131   -2.0529355590    0.7026784603
 H    1.0189102115    1.7067496161    0.0483397754
 H   -0.1409863789    1.3281927110   -1.2511451863
 H   -0.7281836932    1.9613841734    0.3097077765
 H   -2.0736368394   -0.0075977180    0.5944249550
 H   -2.6037101673   -0.7287915175   -1.6225808812
 H   -0.8953066941   -1.1072631842   -2.0163512245
 H   -2.4664256757   -4.0871956940   -1.9509356551
 H   -2.6936796859   -4.4641817921   -0.2338890721
 H   -3.7707516699   -3.3039208125   -1.0462423993
 H   -1.5316842396   -2.3924595006    1.7147062609