18

 O   -0.5015295408    1.3765837483   -0.2266282897
 C   -0.0712649288    0.0790567717   -0.0361320726
 C   -0.8491857964   -1.1418419623   -0.5283017722
 O   -0.5542176752   -1.8679749897    0.6967727944
 C    0.1248556167   -0.7342442743    1.2409376744
 C    1.3144676556   -0.3052788957    0.3943739966
 N    2.2401887148   -1.0906337930   -0.3800789371
 C    3.3005651090   -1.7636273811    0.3769628046
 C    2.2184441256   -2.5558457567   -0.2582420752
 H    0.0873386507    1.7997619034   -0.8609446806
 H   -1.9235336277   -0.9451019358   -0.6059205396
 H   -0.4862228507   -1.6582995951   -1.4229800925
 H   -0.0117033551   -0.5232908919    2.2960008294
 H    1.8055679915    0.5527298542    0.8545541328
 H    4.2902254561   -1.7173477108   -0.0682844460
 H    3.2797209428   -1.6784961621    1.4616962840
 H    1.4686071138   -3.0006599362    0.3845660267
 H    2.4107149281   -3.0869531728   -1.1864032875