15

 O   -0.1030554341    1.4925448972   -0.0688951186
 C   -0.0446470625    0.0902664343   -0.0113107820
 C   -1.3815838023   -0.6133131215   -0.0549488178
 C   -2.1048859142   -0.6037331185   -1.3488538286
 N   -1.3191331640   -1.7895861348   -0.9760758293
 C    0.0125166815   -1.8063331996   -1.6016993091
 C    0.6808417372   -0.4838305584   -1.2408164038
 O    1.5599991898    0.1044187622   -1.8165508619
 H    0.6771680326    1.7666543720   -0.5740960939
 H    0.5098321350   -0.2452264399    0.8848900512
 H   -1.9210112505   -0.7736713097    0.8722588716
 H   -3.1787765458   -0.7584732997   -1.3654287820
 H   -1.7297156373    0.0489304973   -2.1358825002
 H    0.5962808589   -2.6395454197   -1.1891693449
 H   -0.0439717142   -1.9426671211   -2.6850993807