21

 C    0.2081542150    1.5925071772   -0.0573878377
 C    0.0401700676    0.0590643788   -0.0444327066
 C   -1.4421372059   -0.3882935393    0.0042885469
 C   -2.1748872784    0.0029489046    1.2923255846
 C   -3.6171248566   -0.5342528928    1.3285621304
 C   -4.2953628574   -0.2329700353    2.6451285972
 O   -5.3278965065    0.3726078520    2.7711996221
 C    0.7043682612   -0.5377410082   -1.2028918966
 C    1.2319471548   -1.0201331184   -2.1696333401
 H    1.2653351368    1.8619062318   -0.1200499045
 H   -0.3031365897    2.0271669875   -0.9218943403
 H   -0.2032748500    2.0415033123    0.8505202877
 H    0.5330883323   -0.3275928119    0.8596356363
 H   -1.9651032088    0.0289460318   -0.8651520104
 H   -1.4759412909   -1.4778224888   -0.1108822964
 H   -1.6211686532   -0.3829305493    2.1594407893
 H   -2.2013457945    1.0929409760    1.4020178025
 H   -4.2230290746   -0.1166376499    0.5190853427
 H   -3.5959090519   -1.6276202604    1.2095562192
 H   -3.7475668447   -0.6197520223    3.5379412724
 H    1.7073954656   -1.4503315653   -3.0159813988