16

 C   -0.1098656418   -1.2554814348   -0.0482895497
 C   -0.0553807802   -0.0553086626    0.0022329091
 C    0.0275552952    1.3890928787    0.0409983359
 C   -0.2211294593    2.1209298538    1.3884924050
 O    0.8222034523    1.7654509775    2.2871513532
 C    1.0839871440    2.7978906512    1.3216468255
 C    1.4330435215    2.0814482964    0.0307456596
 C    2.7173560425    1.5622425805   -0.4644011071
 N    2.0554950262    2.7186999018   -1.1158308217
 H   -0.1615125881   -2.3157808330   -0.0748675192
 H   -0.5982094243    1.8390223388   -0.7400580622
 H   -1.1723607093    2.4310198354    1.8035616764
 H    1.4095344889    3.7663821537    1.6798603227
 H    3.6420322151    1.7963237778    0.0549129740
 H    2.7007006852    0.5987872327   -0.9669589055
 H    1.6013042122    2.4262167421   -1.9780901158