17

 C   -0.0106345126    1.4981710168    0.0127837170
 C   -0.0718928493    0.0012117757    0.1011584425
 C    0.2838554103   -0.7935057877    1.2947851346
 C   -0.1434737291   -2.2048885072    0.8172045213
 C    1.1345710446   -2.1492484263   -0.0640347201
 N    1.2879041283   -0.6790706635    0.1873543698
 N   -1.3254235743   -1.9489291594    0.0042128039
 C   -1.1862897413   -0.7218179104   -0.6273080799
 O   -1.8441951358   -0.3054293973   -1.5536199418
 H    0.8744578633    1.8753029557    0.5294307409
 H    0.0344822807    1.8051615925   -1.0357014430
 H   -0.9044890176    1.9490611059    0.4545449874
 H    0.4437166760   -0.4241161413    2.3011169158
 H   -0.2820707354   -3.0176129576    1.5276385233
 H    1.9930443745   -2.6505412694    0.3901119216
 H    1.0333192225   -2.4485032477   -1.1128428625
 H   -1.7482976147   -2.6970287386   -0.5292738409