16

 O    0.0611582326    1.4997983062   -0.2295715716
 C    0.0561655849    0.1010995698   -0.0714312579
 C    0.6820169755   -0.5683184124   -1.2370010971
 N    1.1795536125   -1.0955568176   -2.1366309553
 C    0.7612277548   -0.3338910983    1.2321785153
 O    1.9081723494    0.5161537767    1.5079147207
 C    1.4372482894    0.7164580975    2.8557659509
 C    0.1416373559    1.4544905779    2.8844220215
 C    0.1514191089   -0.0369246746    2.6008369161
 H    0.9537452912    1.7832007828    0.0190297266
 H   -0.9912539207   -0.2189970894   -0.0271435754
 H    1.0802277643   -1.3790368282    1.1533500123
 H    2.1732848143    0.6661368705    3.6480276116
 H   -0.2121972590    1.6969327617    3.8820453157
 H   -0.1132666982    2.1717800712    2.1142847585
 H   -0.3669312458   -0.7626118037    3.2115576980