21

 C    0.2181012955    1.5877222879   -0.2244731457
 C   -0.0532380226    0.1112481314    0.0659457985
 O    0.4603999303   -0.6969774409   -1.0019942149
 C    1.3242608569   -1.7026403532   -0.4911444524
 C    1.4192884876   -1.4491297792    0.9956242366
 C    2.2908265693   -2.2567246476    1.9069399144
 C    1.8354067372   -3.7117637966    2.0543449508
 O    2.7505981082   -4.3523206048    2.9279333323
 C    0.6261655270   -0.4240286484    1.2967013224
 H    1.2946034059    1.7787478177   -0.2614702674
 H   -0.2195568610    1.8673880403   -1.1870070735
 H   -0.2247327081    2.2212344704    0.5515944220
 H   -1.1458613965   -0.0373506895    0.1235513992
 H    0.9160238257   -2.7013853240   -0.7199729877
 H    2.3073336508   -1.6412806763   -0.9856138183
 H    3.3229587240   -2.2691849703    1.5322168941
 H    2.3188730279   -1.8036756951    2.9028648298
 H    0.8095805842   -3.7346410116    2.4542084073
 H    1.8146742357   -4.2033454502    1.0689988215
 H    2.4734963805   -5.2664739282    3.0379035890
 H    0.4755514714    0.0015611983    2.2817614722