14

 C    0.0770898133   -0.9887975158   -0.6374057296
 C    0.1232932579    0.1254503110   -0.1902205382
 C    0.1849869356    1.4821466083    0.3559534080
 N    1.5173053213    2.0800718387    0.2508452438
 C    1.8368646514    2.5899373404   -0.8485366105
 O    1.0858259549    2.6772124711   -1.9975411160
 C    1.8637884309    3.3388413387   -2.9305300395
 C    3.0332705778    3.6358609067   -2.3774307734
 O    3.0486006703    3.1780533583   -1.0756129328
 H    0.0361187926   -1.9739873545   -1.0308212190
 H   -0.5792995821    2.0999206464   -0.1382940094
 H   -0.0737946946    1.4490644163    1.4196713542
 H    1.4370923343    3.5009754981   -3.9038992036
 H    3.9176650464    4.1336484363   -2.7320150239