17

 N   -0.0041173168    1.3547193828   -0.2158106702
 C    0.0652768526    0.0387315391    0.1424682808
 O    1.1027901387   -0.4792916638    0.5053021760
 C   -1.2817019331   -0.7001944401    0.0939987985
 C   -1.1184530531   -2.2375256463    0.0040734506
 C   -2.1483071230   -2.8411126199    0.9935516901
 C   -2.5240315261   -1.6672936142    1.8623771007
 C   -2.0701457704   -0.5134886020    1.3798070925
 H    0.8415576811    1.9007739072   -0.2005362901
 H   -0.8406154418    1.7666521695   -0.5891512177
 H   -1.8568541268   -0.2984259607   -0.7539495375
 H   -1.2451486756   -2.6079979202   -1.0157784302
 H   -0.1008473837   -2.4744214559    0.3233033669
 H   -3.0348085418   -3.2368494451    0.4781933994
 H   -1.7328148525   -3.6766622903    1.5682041567
 H   -3.1263287176   -1.7698815378    2.7587024873
 H   -2.2360885900    0.4648145375    1.8173048263