15

 N    0.0865902588    1.4454734727    0.5386004976
 C    0.0929500826    0.1845912093    0.2885306165
 C   -1.2650582005   -0.4671960132    0.3058294192
 O   -1.4711206831   -1.6361955127    0.0958607528
 N    1.1625091879   -0.6189721729    0.0455654199
 C    1.2856266235   -1.9796667778   -0.5162834070
 C    2.7714714080   -1.6446771488   -0.7502363825
 O    3.7127163220   -2.2361313822   -1.1747605334
 C    2.5464722776   -0.2132167088   -0.2071973130
 H    1.0257807453    1.8478269850    0.5215592644
 H   -2.0643807856    0.2626010990    0.5347014362
 H    1.0884774501   -2.7932815298    0.1877217846
 H    0.7131393194   -2.1620088878   -1.4319295615
 H    2.6636794672    0.5779203589   -0.9613614036
 H    3.1287879267    0.0503303892    0.6842186097