16

 O   -0.5073954552    1.2197257808    0.1970564188
 C   -0.1906056090   -0.1009597343    0.0801798886
 C    0.0177055422   -0.7555807638   -1.1115014842
 N    0.3474118586   -2.0589667479   -0.8037327571
 C    0.3372734271   -2.2394946360    0.5496763032
 C    0.0148511289   -1.0362576352    1.1414130088
 C   -0.0592440672   -0.7422478580    2.6180368878
 C   -1.2072656534    0.0925799015    2.9808919985
 C   -2.1395312450    0.8078329971    3.2416742322
 H   -0.9498910506    1.3470749720    1.0470389204
 H   -0.0441747269   -0.4037808238   -2.1269321530
 H    0.5464333638   -2.7736954532   -1.4794983040
 H    0.5626528063   -3.1971067676    0.9915843737
 H   -0.1068890652   -1.6824749013    3.1802081668
 H    0.8536319272   -0.2336849235    2.9613836590
 H   -2.9726476315    1.4156452432    3.4959688205