18

 C    0.2295445153    1.5131768833    0.2879148277
 C    0.2141144459    0.0411944335   -0.0734084726
 C    1.3625687144   -0.4269660178   -0.9833347572
 N    1.6883432358   -1.7109472052   -0.3908911020
 C    2.5498336790   -2.6197927762   -0.9603116212
 N    3.0786759921   -2.3844235024   -2.0952963032
 C    1.1473062493   -1.8382396531    0.8848368828
 N    1.3697334075   -2.8042319941    1.6693783453
 O    0.3672306956   -0.7522593363    1.1294860933
 H    1.1804964795    1.7847130039    0.7554047360
 H    0.0971000363    2.1211809423   -0.6126189067
 H   -0.5806915751    1.7479470658    0.9828195314
 H   -0.7522091311   -0.2316238753   -0.5158374450
 H    1.0673894913   -0.5425789231   -2.0280181049
 H    2.2243140240    0.2518386859   -0.9492714580
 H    2.6864635818   -3.4998543474   -0.3279869839
 H    3.6752627945   -3.1625277432   -2.3688538686
 H    0.8423649739   -2.6918919106    2.5314181865