20

 C    0.2532794915    1.6162565962   -0.2943639259
 C   -0.0140552898    0.1566436319   -0.0217828811
 N    0.1502222459   -0.6970518736   -0.9387433587
 C   -0.0165493526   -2.1359078719   -0.8672525426
 C   -1.4816692892   -2.6130561966   -0.9013041600
 O   -2.0890808108   -2.7870027672    0.3626973218
 C   -2.2683101089   -1.6313053878    1.1442447089
 C   -0.9961820446   -1.1261569895    1.8515638712
 O   -0.4035476948    0.0414404322    1.2833621109
 H    1.0033104097    1.9977467329    0.4058519231
 H    0.6063306325    1.7395884174   -1.3166661163
 H   -0.6565865380    2.2054889029   -0.1407246480
 H    0.4701306255   -2.5421495098   -1.7616029338
 H    0.4868070058   -2.6007611354   -0.0100495781
 H   -2.0654911818   -1.9169319713   -1.5239328753
 H   -1.5240504760   -3.6032588793   -1.3646940041
 H   -2.7092008748   -0.8062077402    0.5621961969
 H   -2.9922443095   -1.9200308054    1.9132353720
 H   -1.2541651649   -0.8016870713    2.8634302230
 H   -0.2766573051   -1.9455813643    1.9394470160