21

 C   -0.3361968260    1.5295395115   -0.0046314827
 C    0.0301003056    0.0456539077   -0.0134307245
 O   -1.1646187509   -0.7462055533   -0.0425314552
 C    0.9566199357   -0.3734650128   -1.1720989729
 C    1.4850730499   -1.7419066876   -0.7305090627
 C    1.8003035331   -1.5260293192    0.7632844633
 C    0.7784424907   -0.4656506836    1.2697839364
 C    1.4817787659    0.6382519204    2.0272062785
 O    1.1679049491    1.0414636081    3.1170814067
 H    0.5505108654    2.1706044539    0.0254447392
 H   -0.8936577715    1.7857504401   -0.9133746022
 H   -0.9634906239    1.7661223267    0.8591208406
 H   -1.6617091078   -0.4945893783   -0.8292037643
 H    0.4250896061   -0.3873969928   -2.1299691599
 H    1.7815703525    0.3450501506   -1.2651626483
 H    0.6944561196   -2.4888652728   -0.8440755444
 H    2.3542171640   -2.0783543485   -1.3015922565
 H    1.7549638817   -2.4455438700    1.3506046001
 H    2.8203458861   -1.1334988003    0.8691046829
 H    0.0257933856   -0.8895640982    1.9360823758
 H    2.3662576991    1.0686388484    1.4957310703