18

 C    0.0672995429    1.4552940407   -0.2918010002
 N    0.0719595020    0.0156782247   -0.0343509114
 C   -1.0286496646   -0.5153755903    0.8272349011
 C   -0.1309902267   -1.7229900987    1.2714586867
 O    0.0457572192   -2.9132767461    0.6176170349
 C   -0.4299762311   -1.5563600135    2.7604248391
 C   -0.3650923121   -0.1060250382    2.2087212416
 O   -0.4558032405    1.0748649564    2.9151557764
 C    0.7811564918   -0.4445645280    1.1981921355
 H    1.0444466190    1.7490729775   -0.6901769110
 H   -0.6820371547    1.6769813339   -1.0596772941
 H   -0.1465472725    2.0685759990    0.5952794319
 H   -2.0806529241   -0.5196508049    0.5352167001
 H    0.2257528092   -2.6958992681   -0.3068775789
 H   -1.4068758065   -1.9116423663    3.1037477485
 H    0.3624880417   -1.8485273812    3.4551768072
 H   -1.2811532750    1.0726838608    3.4130421894
 H    1.8594332021   -0.3667767577    1.3461252731