20

 C    0.0924397471    1.4924729462   -0.0010338801
 C    0.0373204927   -0.0189465483    0.0005460878
 O    0.6570535565   -0.4855719385   -1.1812584532
 C    0.6369603332   -1.9031296776   -1.2548085229
 C    1.2801828855   -2.5069717589   -0.0231349309
 C    1.8022961057   -3.8909080107   -0.0672020094
 N    2.7298293353   -2.7464232177    0.0106537882
 C    0.6910446013   -1.9063277226    1.2367345232
 O    0.6959031857   -0.4863217328    1.1532940542
 H    1.1355700579    1.8171181580   -0.0156321126
 H   -0.4163464222    1.8840727780   -0.8846322672
 H   -0.3897239293    1.8836679567    0.8974506851
 H   -1.0091048695   -0.3874755027    0.0136389197
 H   -0.4043588814   -2.2595414998   -1.3435023062
 H    1.1718425792   -2.1852537929   -2.1676234411
 H    1.7710919724   -4.5172699637    0.8208170734
 H    1.7159584408   -4.4379127946   -1.0039073993
 H    3.1403048204   -2.5627630101   -0.9023517043
 H   -0.3406271420   -2.2717249256    1.3801587083
 H    1.2887902809   -2.1760589122    2.1095133073