23

 C    0.0818421544    1.5662145816    0.1159229378
 C    0.0616046153    0.0364496140    0.0357722197
 C    0.7263326799   -0.5345663260   -1.2328086230
 C    2.2341811126   -0.2462714930   -1.2778153179
 C    0.4555720970   -2.0550640010   -1.3416454568
 O   -0.9380339207   -2.2780349381   -1.2313388258
 C   -1.2811740514   -3.6247320677   -0.9717645487
 C    0.9266083563   -2.5802622609   -2.6954143949
 O    2.0080369068   -3.0547417046   -2.9259835234
 H    1.0980410589    1.9665641773    0.1800533756
 H   -0.3977226623    2.0138737962   -0.7620206089
 H   -0.4619225529    1.9121149071    1.0005413604
 H    0.5645751939   -0.3865348411    0.9167484172
 H   -0.9723822180   -0.3146027588    0.0704576809
 H    0.2479107933   -0.0620247018   -2.1036604336
 H    2.7155894294   -0.6917802113   -2.1513171023
 H    2.4215375751    0.8298634386   -1.3069249532
 H    2.7316262027   -0.6477429854   -0.3872171258
 H    1.0074132817   -2.5832214244   -0.5475233343
 H   -0.9510093610   -4.3028976257   -1.7728446854
 H   -0.8449493926   -3.9753787523   -0.0246386085
 H   -2.3702219208   -3.6701585588   -0.9014602720
 H    0.1493457424   -2.4649113439   -3.4876186872