15

 O   -0.0147728452    0.0609195356    0.0604417052
 C    0.0535429166    1.2500324663    0.0221190851
 O   -1.0382572639    2.0950745380    0.0521697435
 C   -0.4097470506    3.4032294452   -0.0204155298
 C    0.6470093978    3.2130273799   -1.1276651102
 C    1.2240652600    2.2192043743   -0.0612694967
 C    0.7353368591    3.2601128522    1.0361248473
 C    1.5878399487    4.4082412983    1.2474663470
 C    2.2928038478    5.3631663595    1.4401494104
 H   -1.1663960856    4.1826654466    0.0060422250
 H    0.3023381376    2.8022475191   -2.0780090941
 H    1.2848023204    4.0842505943   -1.2724112202
 H    2.2242460081    1.7980431415   -0.0823512292
 H    0.4141333162    2.8259191815    1.9875026858
 H    2.9154893431    6.2057788877    1.6141264109