17

 C   -0.0005564361    1.4962515419    0.0118859280
 C    0.0182252707   -0.0121411498   -0.0566847077
 O    0.8739882013   -0.4126456190   -1.0881454681
 C    0.9274949694   -1.8080632220   -1.2251332422
 C    2.1707262098   -2.4598205749   -0.7183605921
 C    0.8635654127   -2.5884606028    0.0627775618
 C    0.7073022415   -1.8333900027    1.3454071468
 O    0.7884671395   -2.3314680573    2.4333428434
 O    0.4817077897   -0.4959143653    1.2198978464
 H    1.0144182197    1.8672198190    0.1724368416
 H   -0.3863136549    1.9033576963   -0.9254512274
 H   -0.6356107789    1.8233086838    0.8374817548
 H   -0.9880198873   -0.4278875042   -0.2176870063
 H    0.4293704809   -2.1875438418   -2.1134768829
 H    2.5337629010   -3.3556407642   -1.2080272369
 H    2.9345809404   -1.8015875954   -0.3217908910
 H    0.4008582806   -3.5672870318    0.0773984418