19

 O    0.5980477775    0.6926817939   -0.8864967001
 C    0.0674134616   -0.3051766569   -0.0532587365
 C    0.1209188513   -0.1061367505    1.4891119791
 C   -1.3637839267   -0.5787059417    1.5938115960
 O   -1.5257921606   -1.9031256350    2.0522689900
 C   -2.3530170699    0.4453094246    2.1958151009
 C   -2.7402000896    1.2842620636    1.0008464071
 C   -2.2830686282    0.7856187552   -0.1514642097
 C   -1.4845760029   -0.4733593555    0.0391962280
 H    0.1463916651    1.5173777023   -0.6722810308
 H    0.5486407087   -1.2369621811   -0.3590410670
 H    0.8494008340   -0.7124777536    2.0333741462
 H    0.2549835398    0.9444395600    1.7650557248
 H   -1.2554546295   -1.9342130011    2.9763970104
 H   -3.2251446880   -0.0698042447    2.6210864748
 H   -1.9034259328    1.0371214920    3.0040907494
 H   -3.3536732955    2.1748604798    1.0907452069
 H   -2.4728415771    1.2139741332   -1.1301042860
 H   -1.8995175075   -1.3365237544   -0.4893600034