16

 O   -0.4963866080    0.4964753423    0.7401087561
 C    0.0207396232    1.1695524116   -0.1222018889
 C    1.2701971471    1.9683887814   -0.0011133361
 C    1.6091990856    2.8416827902    1.1668014758
 C    1.1270311691    2.2658347267    2.5121218819
 C    2.0015853137    1.0244216895    2.1398371265
 N    2.4578603537    1.6577597330    0.8478311232
 C    1.5536422743    3.0131481822    3.6770646304
 C    1.9176260912    3.6349579317    4.6394550522
 H   -0.4439573644    1.2475538088   -1.1302906276
 H    1.6016343855    2.3686435968   -0.9563120911
 H    1.9454136759    3.8623992549    1.0134427626
 H    0.0544616267    2.0615907366    2.5541824360
 H    2.8716147644    0.9147709557    2.7871810117
 H    1.4777435674    0.0771121714    2.0284807453
 H    2.2315284049    4.1809586273    5.4944143320