25

 C    0.0416886435    1.5907638927    0.0375694948
 C    0.0265104229    0.0603004570    0.0293261548
 C   -1.3873788666   -0.5277090374   -0.0249819922
 C   -1.4155650349   -2.0594174314    0.0193557053
 O   -0.7722056134   -2.5620558359    1.1931556838
 C   -2.8341682633   -2.6289248271   -0.1086676173
 C   -2.8520394157   -4.1549169485   -0.2700988446
 C   -4.2637651059   -4.7365305115   -0.2060646909
 O   -2.1866661643   -4.5493104367   -1.4704808658
 H    1.0643927371    1.9791451050    0.0727807735
 H   -0.4383698786    1.9995831934   -0.8589159784
 H   -0.4943468391    1.9888951938    0.9068455341
 H    0.5990928766   -0.3094187761   -0.8314842915
 H    0.5355886682   -0.3275071191    0.9180355689
 H   -1.9840226103   -0.1364343105    0.8145941146
 H   -1.8960600632   -0.1892784713   -0.9378001523
 H   -0.8154623300   -2.4581341021   -0.8066625222
 H   -1.2516244801   -2.2171015652    1.9554966665
 H   -3.4187766961   -2.3441355154    0.7785240796
 H   -3.3410807230   -2.1711972718   -0.9708111149
 H   -2.2410531140   -4.5857688277    0.5301492761
 H   -4.9026207650   -4.2995110628   -0.9847309114
 H   -4.2344840808   -5.8190668854   -0.3571248459
 H   -4.7355904332   -4.5330597585    0.7608647214
 H   -2.7236827508   -4.2474821473   -2.2120338161