15

 O   -0.1679799231    0.1708620654   -0.2947650015
 C    0.1238310318    1.2053578090    0.2478566387
 C    1.4286118019    1.9012198967    0.0368367415
 C    2.8735182278    1.3456267024    0.0551497221
 C    2.9237299220    2.9002538898   -0.0117940170
 C    1.8275459006    2.8708393431   -1.1155252816
 O    1.8293748830    2.9407615991    1.0103210293
 C    4.0435653800    3.7782163365    0.1278046046
 C    4.9962235908    4.5050445776    0.2196980497
 H   -0.5655346791    1.7345508809    0.9413608173
 H    3.1900472541    0.9185207224    1.0062275808
 H    3.2208516268    0.7867217826   -0.8148442311
 H    2.0849018145    2.4365910977   -2.0830469779
 H    1.2252957703    3.7763574473   -1.1841492269
 H    5.8360608384    5.1499027494    0.3068704222