19

 C   -0.0468777777    1.5134285844    0.0106042533
 C   -0.0679761630   -0.0079756933    0.0026601423
 C   -1.5012932782   -0.5607049976    0.0193099391
 O    0.6326191002   -0.3935820159   -1.1715990150
 C    0.8664294479   -1.7806480593   -1.3157046803
 C    1.2623635871   -2.4958101536   -0.0290093091
 O    1.7702430437   -3.5906887371   -0.0418983052
 C    0.9019345585   -1.7946560424    1.2756977513
 O    0.6645167957   -0.4061423590    1.1530141182
 H    0.9893341081    1.8563530000   -0.0019486375
 H   -0.5616182378    1.9011247971   -0.8710977635
 H   -0.5368388248    1.8914423359    0.9104416992
 H   -2.0431293703   -0.2048885088   -0.8604875459
 H   -1.5357772000   -1.6530954208    0.0140275581
 H   -2.0189025348   -0.2142565772    0.9172468060
 H   -0.0150550517   -2.3071341376   -1.7196100874
 H    1.6717060651   -1.9021493291   -2.0453529425
 H    0.0317433827   -2.3255729578    1.6978761166
 H    1.7268565892   -1.9239232579    1.9816808120