15

 N   -0.0609034624    1.2033357497    0.4278411058
 C    0.0075532035    0.0009341769    0.0172442063
 N    1.0960353488   -0.7393982556   -0.4195852654
 C    0.7797684538   -2.1026903301   -0.8615534102
 C    1.5606246423   -3.1283812885   -0.1744304029
 C    2.2258827987   -3.9661122401    0.3715738686
 C   -0.7298502872   -2.1945645888   -0.6032978550
 O   -1.0700962969   -2.0459332102    0.7635615713
 C   -1.1878937867   -0.8955187758   -0.0990323431
 H    0.8554134704    1.6559496181    0.4209310423
 H    2.0248574289   -0.5307538303   -0.0895635591
 H    0.9490113547   -2.1978929231   -1.9447431006
 H    2.8012584835   -4.7096938749    0.8662002414
 H   -1.3329691640   -2.8769152391   -1.1934425152
 H   -2.1809083875   -0.4825697881   -0.2284417940