16

 N    0.0770938014    1.2858888619   -0.2870236108
 C   -0.0263613621    0.0359441841   -0.0993247376
 N   -1.2308446873   -0.6411418159    0.0649399850
 C   -1.2311094583   -2.0743945000    0.3701751487
 C   -2.6807584165   -2.5070863626    0.0926525974
 C   -3.4872738497   -1.2383460890    0.3882464698
 C   -2.5255974529   -0.0893087443    0.0755497073
 O   -2.8155856800    1.0615134661   -0.1111229596
 H    1.0608254493    1.5321709674   -0.3885029426
 H    0.8181808567   -0.6645166936   -0.0490164943
 H   -0.5054576926   -2.6028871772   -0.2548483681
 H   -0.9577113238   -2.2466128246    1.4204765792
 H   -2.7870023028   -2.7828436276   -0.9610137231
 H   -2.9732340724   -3.3684749286    0.6958879371
 H   -4.4037888226   -1.1302800520   -0.1931301823
 H   -3.7595945863   -1.1661840643    1.4484010841