18

 N    0.4858348287    0.9298215889   -0.4990584786
 C   -0.0510554940   -0.3463427747   -0.1085287099
 C   -0.0581344936   -0.6731159669    1.4282579515
 C   -1.4254094373   -1.4097502294    1.2394501033
 C   -1.5617167442   -0.6815675289   -0.0982220787
 C   -2.6433195296    0.2241957845   -0.5417076668
 N   -2.4184471666   -1.0812791812   -1.1992881340
 C    1.0623885423   -1.4180791583    1.9698306589
 N    1.9525411961   -2.0319514537    2.3801556556
 H    0.6302695053    0.9941428326   -1.4999227100
 H   -0.1200237752    1.6939291810   -0.2185081729
 H    0.5001510533   -1.1313311235   -0.6374098600
 H   -0.1889924788    0.2528830031    1.9954065854
 H   -1.2946658097   -2.4865881899    1.1101579569
 H   -2.1827470207   -1.2257720199    2.0023192779
 H   -3.5664699604    0.2965457910    0.0272963247
 H   -2.3657328658    1.1302628291   -1.0765703996
 H   -1.9415004498   -0.9494880137   -2.0893378739