20

 O    0.3581176614   -0.3036134124    0.1625312522
 C    0.2616194378    0.8990947015    0.3094644537
 N    1.2359092934    1.7872431054    0.0187695044
 C    2.5776979936    1.5638426782   -0.5139413343
 C    2.7983047144    3.1029319778   -0.4573895238
 C    1.3514690897    3.2418605739    0.1078585354
 C    0.3578413048    4.2081871295   -0.5895665217
 C    0.5772035809    5.2031940714    0.5831705625
 C    1.1290551555    4.0232810605    1.4297867656
 H   -0.6509857214    1.3926900055    0.7030147438
 H    3.2155492051    0.9645713649    0.1429048806
 H    2.5837065204    1.1157961473   -1.5122523201
 H    3.5836555893    3.4259395136    0.2279169796
 H    2.9510518195    3.5773680438   -1.4281257615
 H    0.6038635150    4.5303177323   -1.6048111953
 H   -0.6571549332    3.8002591234   -0.5863456258
 H    1.3502267949    5.9414759328    0.3555543404
 H   -0.3006976303    5.7255096895    0.9662803775
 H    0.3437862724    3.5602549118    2.0344169176
 H    2.0043043968    4.1945773195    2.0619372992