13

 C   -0.0357585755    1.4822076966    0.0103938496
 C    0.0016559343    0.0284238540    0.0026762462
 C    0.0375097917   -1.1770491560   -0.0037454620
 C    0.0542511391   -2.5884126557   -0.0111085651
 C    1.1216070439   -3.4429550472   -0.0218764482
 O    0.7120540142   -4.7148037446   -0.0259365345
 N   -0.6816469861   -4.7461113565   -0.0178015003
 C   -1.0558142005   -3.4948665200   -0.0091953096
 H    0.9760670203    1.9016320996    0.0025663777
 H   -0.5640050557    1.8711495149   -0.8672397114
 H   -0.5466317478    1.8622425428    0.9021058118
 H    2.1877933341   -3.2813445543   -0.0273976432
 H   -2.1084678821   -3.2518468835   -0.0016914909