15

 N    0.2087539870    1.0625204581    0.6748551048
 C    0.1079735271   -0.0473741947    0.0860986455
 N    0.9867591075   -1.0170234658   -0.4282920029
 C   -0.0654079009   -1.9546378330   -0.8018168546
 C   -0.6521985921   -2.8200961738    0.3582714517
 O   -1.5554404837   -1.7442645244    0.7378149466
 C   -1.0993097846   -0.8931794222   -0.3358286994
 C   -1.3536512388   -4.0231378779   -0.0499033290
 C   -1.9164760043   -5.0179297482   -0.4215712436
 H    1.1809329346    1.3074036488    0.8724943873
 H    1.9077730632   -1.2490846308   -0.0799759150
 H    0.0087511985   -2.4042644692   -1.7901458854
 H    0.0644169751   -3.0398791365    1.1593854058
 H   -1.9082798680   -0.4535721127   -0.9173679224
 H   -2.4192788908   -5.9001279477   -0.7340881593