20

 C   -0.0660072120    1.5693732610    0.0799213600
 C    0.0128311995    0.0666863437    0.0308152375
 C   -1.2502261799   -0.8237811560    0.2278522759
 C   -0.2839405232   -1.9082002219    0.6930139466
 C    0.7593898733   -0.9161822665    1.0332175919
 N    0.9996071036   -1.8447768182   -0.1041122746
 C    0.8123089744   -0.6934099253   -1.0546057618
 C    0.2793498480   -1.0809117240   -2.4246569084
 O    1.1955799691   -1.9508473218   -3.0704476700
 H    0.9290232927    2.0229757895    0.0152934589
 H   -0.6633783467    1.9563982858   -0.7539203150
 H   -0.5333641676    1.9145846640    1.0083526654
 H   -1.8457003687   -0.4646952775    1.0723341874
 H   -1.9065786492   -1.0044928932   -0.6286749936
 H   -0.4983175515   -2.8603070469    1.1598391837
 H    1.4297374804   -0.7885536627    1.8734715687
 H    1.8025864404   -0.2408552447   -1.1839493019
 H   -0.7143375227   -1.5456599186   -2.3468672650
 H    0.1806961824   -0.1945744899   -3.0622217370
 H    1.4289146274   -2.6262899268   -2.4218108786