18

 C   -0.1984951637    1.5545187848    0.1216231658
 C    0.0030659283    0.0366870633    0.0905562447
 C    0.6615487680   -0.4520678729   -1.2035138494
 C    2.1124239458    0.0130883214   -1.3147042284
 O    2.7118913513    0.1482883277   -2.3496738339
 C    0.6894381867   -1.9967399879   -1.2988611070
 C    0.8523040030   -2.5628139861   -2.6917262629
 O    0.5901361185   -2.6811462159   -0.3097739239
 H    0.7513133876    2.0943385275    0.0348281005
 H   -0.8397194787    1.8871648328   -0.7020626373
 H   -0.6697368633    1.8664994893    1.0581297834
 H    0.6156975807   -0.2878234085    0.9389860633
 H   -0.9569069570   -0.4746088514    0.2115600534
 H    0.1474656487   -0.0731446910   -2.0947947830
 H    2.6072925350    0.1889686953   -0.3331205125
 H    1.6271357361   -2.0181297471   -3.2396693578
 H    1.0837613166   -3.6273680408   -2.6407239313
 H   -0.0850195335   -2.4251971404   -3.2446694938