19

 C    0.1353616501    1.5190468076    0.1475899256
 C   -0.0433877352    0.0054643028   -0.0669124729
 C    0.6997868519   -0.5110900452   -1.2609514522
 N    0.0764401475   -0.7682530096   -2.3863629272
 O    1.0371350376   -1.2126276207   -3.2753872795
 C    2.2424269598   -1.2016828362   -2.6606265956
 C    2.1059834438   -0.7732565796   -1.3744942827
 N    3.0489467328   -0.6774202160   -0.3549246480
 C    4.4449002416   -0.8282483079   -0.7285966697
 H    1.1880956736    1.7924147755    0.2811141824
 H   -0.2418993795    2.0772239525   -0.7137874114
 H   -0.4083727455    1.8498015177    1.0373900789
 H    0.2959872054   -0.5376326421    0.8236839850
 H   -1.1043155336   -0.2236575138   -0.2000917121
 H    3.0782344788   -1.5339076359   -3.2532405616
 H    2.8876705845    0.1119341769    0.2544433437
 H    5.0723411836   -0.6896732817    0.1545892390
 H    4.6138835223   -1.8435224705   -1.1042297713
 H    4.7704108304   -0.1205398039   -1.5085606306