20

 O    0.0893047276    1.4468740136    0.1713409126
 C    0.0283829404    0.0318116202    0.2407356396
 C   -1.2913948199   -0.5275569918   -0.3049624057
 C   -1.3657916788   -2.0322650855   -0.2271477457
 C   -0.4786788248   -2.8949415854   -1.1192892000
 O   -1.0110473287   -4.2135181885   -1.0344432556
 C   -2.4203766803   -4.1035797935   -0.8446939076
 C   -2.6090943916   -2.8288933222   -0.0457052157
 N   -1.6899543635   -2.6261386790    1.0825207165
 H   -0.5834640580    1.7977612656    0.7636371490
 H    0.8719635343   -0.3258866300   -0.3600658783
 H    0.1805098955   -0.3325080823    1.2677768102
 H   -2.1201289781   -0.1072254298    0.2773323877
 H   -1.4191171357   -0.1935767510   -1.3419298486
 H   -0.5079906896   -2.5119541193   -2.1530802697
 H    0.5683938543   -2.9477814791   -0.8020271533
 H   -2.9553867605   -4.0291575104   -1.8056016950
 H   -2.7525593855   -5.0131759834   -0.3330204467
 H   -3.5964116861   -2.3866130708    0.0425756165
 H   -1.1404692707   -3.4723155075    1.2296625097