13

 N    0.0587994862    1.3157000874   -0.0048265805
 C    0.0408653597   -0.0461315607    0.0287270312
 N   -1.0990083869   -0.6591184726    0.1187009734
 O   -1.0848558700   -2.0581165630    0.2300564690
 N    0.0583110581   -2.7934998931    0.2272801619
 C    1.1882560265   -2.1846035700    0.1084542639
 C    1.3161250684   -0.7529554825   -0.0133166302
 N    2.3927618258   -0.0563681046   -0.1574598850
 O    3.5267735499   -0.8639838183   -0.2016460392
 H    0.9001073316    1.7362898657   -0.3658298655
 H   -0.8162177191    1.7788415624   -0.1921266598
 H    2.0644670382   -2.8197491601    0.1089063762
 H    4.2404566015   -0.2234949506   -0.2928442753