19

 C    0.0831658115    1.5045611885   -0.0088000496
 C    0.0375220188    0.0068328472   -0.0106075436
 C    0.0367091933   -0.8429856893   -1.0995753023
 N   -0.0311502951   -2.1148649472   -0.6258488245
 C    0.0165478508   -3.3543450623   -1.3731094024
 C    1.4089491354   -4.0023906314   -1.3361870681
 O    1.4361706081   -5.2087887179   -2.0763075217
 N   -0.0650420717   -2.1512702356    0.7215082492
 C   -0.0270551903   -0.8743818113    1.0935856884
 H    0.9408905356    1.8832301404    0.5583114845
 H    0.1628235224    1.8979113009   -1.0261731958
 H   -0.8165300300    1.9390519401    0.4417208428
 H    0.0701368577   -0.6397299543   -2.1591165705
 H   -0.7225377038   -4.0377725007   -0.9426178905
 H   -0.2697110093   -3.1500448699   -2.4080010386
 H    2.1368441276   -3.3329837793   -1.8060634576
 H    1.7122659926   -4.1433215391   -0.2903712721
 H    0.9656823192   -5.8792607022   -1.5710250022
 H   -0.0548291127   -0.6241836066    2.1450536846