19

 C    0.0537687074    1.5087829560   -0.0934391223
 C   -0.0551309523    0.0137758499   -0.0378472470
 O    0.3847257769   -0.6724019606   -1.2205048253
 C   -0.4913186864   -1.7917606069   -0.8678214666
 C    0.3335034138   -2.8109989052   -0.0865877081
 C    1.1651360009   -2.0073530746    0.9492480518
 C    0.3590983581   -0.7570625654    1.2851419627
 O   -1.0349258950   -1.1555677057    1.4981461964
 C   -1.2945023218   -0.8674374371    0.1226894094
 H    1.1052878758    1.8145472984   -0.1333961477
 H   -0.4495651885    1.9000797077   -0.9819703135
 H   -0.3988906650    1.9562933174    0.7965753619
 H   -1.0083580482   -2.1874383735   -1.7447890067
 H   -0.3370809907   -3.5137475849    0.4170106309
 H    0.9782661310   -3.3826830083   -0.7596046868
 H    1.3570339190   -2.5965209505    1.8503394638
 H    2.1309610029   -1.7138725216    0.5266040368
 H    0.7424665142   -0.1704535491    2.1241012691
 H   -2.3339960223   -0.6198078260   -0.0982113389