21

 C   -0.2272244584    1.4997220585    0.0195887869
 C   -0.1046980783   -0.0040890911    0.1325613571
 C    1.1616002373   -0.7182342797   -0.2645803607
 C    0.7448520327   -0.6845287957    1.1902301279
 C    1.5230823550    0.0493295045    2.2137526866
 C    2.5691968033    1.1790847658    2.0787965300
 C    3.2514412910    0.6486015341    3.3874154626
 C    2.1636176717   -0.4282741153    3.4571543579
 O    0.9003744583    0.2462549997    3.5001267179
 H    0.7331000553    2.0001937556    0.1695609855
 H   -0.5919785177    1.7825695257   -0.9741455160
 H   -0.9290875289    1.8986807783    0.7597690653
 H   -1.0264127070   -0.5344153296   -0.0936069984
 H    1.1005317815   -1.6625883088   -0.7940902912
 H    2.0053537986   -0.1010277116   -0.5568454848
 H    0.3270231541   -1.6055021666    1.5874509928
 H    3.2149474559    1.0797951180    1.2036193450
 H    2.1575747278    2.1898625891    2.1182650663
 H    4.2493916124    0.2435734472    3.2030341942
 H    3.2850668796    1.3311518486    4.2399331991
 H    2.2078675156   -1.4196438766    3.8957837761