14

 O   -0.2029297291    0.0341912760    0.0875990360
 C   -0.0306455065    1.2200046073   -0.0507749971
 C    1.2695703099    1.8824263866    0.0481650641
 C    1.7365552725    3.2195270437    0.5462590521
 N    2.8398484535    2.6066011413    1.3010630902
 C    2.7393211207    1.4411292536    0.3668691097
 C    3.0734537436    2.0119035838   -1.0351513812
 O    3.8173810339    1.6993091986   -1.9173497836
 C    1.8959960095    2.9519507230   -0.9389623862
 H   -0.8718785424    1.9150784853   -0.2691795298
 H    1.1510468512    4.0507138713    0.9211230764
 H    3.7264416241    3.1093539828    1.2152504127
 H    3.0846579752    0.4694457899    0.7066306365
 H    1.3818122539    3.5016749868   -1.7153316397