19

 C   -0.2378552122    1.7735910395    0.7079512580
 C    0.0048342847    0.3381878368    0.1741812277
 C    0.6129026008   -0.5198637876    1.1846572446
 C    1.1261757667   -1.2061552287    2.0328348830
 C    1.7653891475   -2.0826936821    3.0150882265
 O    2.9630419632   -2.6836455090    2.5440450165
 C   -1.3301238607   -0.1956355385   -0.3987683602
 C   -2.2098182827   -1.0323665657    0.5048272063
 O   -1.6473886300    0.0989139366   -1.5257778775
 H    0.7042749440    2.2114867281    1.0453387192
 H   -0.6568990977    2.3951761533   -0.0870174996
 H   -0.9304871450    1.7657744972    1.5545707323
 H    0.6756904398    0.4127359722   -0.6894046382
 H    2.0514292934   -1.5081406319    3.9031794147
 H    1.0402739172   -2.8418195305    3.3508577796
 H    2.7639556136   -3.1013105534    1.6995940952
 H   -1.7348748172   -2.0032468979    0.6807634064
 H   -2.3234698900   -0.5621031590    1.4870854137
 H   -3.1836589151   -1.1769414693    0.0364008620