17

 O   -0.0713434170    1.3838906066   -0.1090976351
 C    0.0329798845   -0.0320566550    0.0041906273
 C    0.5439366767   -0.5588757671    1.3737671429
 C   -0.7012214686   -1.3030008689    1.8490612936
 C   -1.4184365584   -1.9869101644    0.6419619812
 O   -2.7297862838   -1.7385019829    1.2503181045
 C   -1.9701796631   -0.4983592991    1.4723024882
 C   -1.3902282803   -0.5716873195    0.0062270134
 O   -2.1636029380   -0.3008672892   -1.1022077145
 H    0.8037096209    1.7476625708   -0.2729788395
 H    0.6059520811   -0.4386888394   -0.8406103197
 H    1.4175907342   -1.2109388815    1.2786250930
 H    0.8077355437    0.2747763153    2.0319035126
 H   -0.7058421103   -1.8374639418    2.7965217091
 H   -1.2422209691   -2.9586781008    0.1793357303
 H   -2.4631168211    0.3213242669    1.9938310923
 H   -1.9821602514    0.6175097800   -1.3394959094