25

 C    0.0132424150    1.4515668770   -0.0080538080
 O   -0.0771947960    0.0494750155   -0.0455194859
 C    0.6443104209   -0.5202248593   -1.1170475942
 C    0.4811054145   -2.0343845124   -1.0668449955
 C    1.2333417740   -2.7394215559   -2.1883566524
 C    2.7886886599   -2.7710168479   -2.1782425807
 C    2.7271043649   -4.2188850574   -2.7325414408
 C    1.2386739349   -4.3047566017   -2.2780695650
 C    1.0441066191   -5.0513468364   -0.9600764103
 H    1.0540377391    1.7934921798    0.1133082947
 H   -0.3911831166    1.9141165400   -0.9231927434
 H   -0.5720830113    1.7967121832    0.8480883639
 H    0.2740506483   -0.1256215775   -2.0802407318
 H    1.7112625398   -0.2441000857   -1.0488272119
 H    0.8279512030   -2.3859537013   -0.0884786118
 H   -0.5895690845   -2.2681849080   -1.1235138176
 H    0.8918803408   -2.3419678564   -3.1526297235
 H    3.3172347412   -2.0220864164   -2.7734625778
 H    3.1864729375   -2.7393574515   -1.1585817007
 H    2.8295366191   -4.2465046229   -3.8209597346
 H    3.4156487316   -4.9517769530   -2.3024274903
 H    0.5489152414   -4.7130133668   -3.0238272372
 H    1.7420313288   -4.7079648769   -0.1885311285
 H    0.0289137917   -4.9263433585   -0.5689214315
 H    1.2167824729   -6.1237633095   -1.1025313450