19

 C    0.4844803538    0.8661824117    0.5595713058
 C   -0.2701064412    0.2322237148   -0.6117510641
 N    0.4439176154   -0.6762870409   -1.4972921588
 C    1.6534126196   -0.9289448246   -1.2973613078
 O    2.2798080411   -1.7989091807   -2.1693383672
 C    3.6008365798   -2.0820934647   -1.9592709386
 O    4.2626964182   -1.6268989860   -1.0653619943
 C    4.0993796238   -3.0533224809   -3.0215948638
 N    5.4936598419   -3.4338643814   -2.9076611655
 H    0.8699066445    0.1114054173    1.2530771961
 H    1.3265530475    1.4779892777    0.2192791847
 H   -0.1928748488    1.5168281151    1.1204579029
 H   -1.1389257549   -0.3222217057   -0.2340282766
 H   -0.6901824612    1.0204667501   -1.2498247443
 H    2.3154822507   -0.5594938959   -0.5164901655
 H    3.4596865653   -3.9431590543   -2.9845912644
 H    3.9094510386   -2.5997760689   -4.0017017644
 H    6.0724797876   -2.5990215135   -2.9311348573
 H    5.6567237680   -3.8408397792   -1.9909676670