15

 C   -0.0207347691    1.4868067754    0.1133604797
 C   -0.0445645095   -0.0057367632    0.0319459754
 C   -1.2498796322   -0.9137765442   -0.2633363369
 C   -0.3165870570   -2.0978254339    0.1261126699
 C    0.6008782092   -1.0412298713    0.8515876042
 N    1.2064801730   -0.6817484622   -0.5090048516
 C    0.7432556999   -1.9918388249   -0.9618342913
 O    1.2099281514   -2.7017860019   -1.7946393646
 H    0.9541427511    1.8396839950    0.4580678854
 H   -0.2148779598    1.9293314719   -0.8690351623
 H   -0.7895231302    1.8431793007    0.8070750503
 H   -2.0400437662   -0.7529515064    0.4748406120
 H   -1.6742718727   -0.9192140594   -1.2729433617
 H   -0.6938799930   -3.0475550629    0.4939961521
 H    1.2092091551   -1.0608971726    1.7439490394