14

 O   -0.0425619800    1.3130259012    0.0080132344
 C    0.0165858687   -0.0195372329    0.0024166496
 N    1.1983298509   -0.5460476102   -0.0068622355
 C    1.5498889937   -1.8559928419   -0.0147983487
 C    0.7824386337   -2.9842087250   -0.0172925918
 C   -0.6364546896   -3.0569561325   -0.0108965242
 C   -1.5536759357   -2.0516345781    0.0003674528
 C   -1.3774943386   -0.6094592593    0.0093048842
 O   -2.3318567797    0.1510423793    0.0206256275
 H    0.8791387629    1.6159473665    0.0033157484
 H    2.6293145196   -1.9962780111   -0.0204857442
 H    1.3183486374   -3.9282387724   -0.0250931576
 H   -1.0445169362   -4.0653663384   -0.0153219004
 H   -2.6058195869   -2.3220689152    0.0040644654