19

 C    0.0086666840    1.5548682344    0.1004303559
 N    0.0091655674    0.1112017559    0.1482058965
 C   -1.2520681970   -0.6139485544    0.3850276872
 C   -0.4801969744   -1.6208312329    1.2701600707
 C    0.1433944342   -2.8488013234    0.5579766712
 N    1.5695464591   -2.5598218054    0.5399046860
 C    1.9428607099   -1.2900627218    0.8917403081
 O    3.0669128546   -0.8375889809    0.8652159154
 C    0.6553062941   -0.5723572852    1.2933483631
 H    1.0382617789    1.9173263661    0.0257196821
 H   -0.5352752507    1.8953963284   -0.7871130924
 H   -0.4595829387    2.0197822580    0.9891927786
 H   -1.9832793507   -0.0357378142    0.9735701802
 H   -1.7464190528   -0.9917679132   -0.5184148716
 H   -0.9473391687   -1.8887139388    2.2160623562
 H   -0.0579555930   -3.7786376047    1.1016646633
 H   -0.2570907583   -2.9653547097   -0.4580868527
 H    2.2438443364   -3.1806779789    0.1205656887
 H    0.7753831555    0.0395398007    2.1953527635