14

 C    0.0120364081    1.5263265418   -0.0880212532
 C    0.0534102646    0.0735438219   -0.0194451299
 C    0.0863073004   -1.1288274562    0.0300462957
 C    0.1029272124   -2.5719935403    0.0987024171
 C    0.0444320908   -3.2666997627    1.4828089958
 O   -1.1883394700   -3.9522695555    1.1007886928
 C   -1.2384757669   -3.3243513020   -0.1152550771
 O   -2.0694989635   -3.4153339230   -0.9546668083
 H    0.7201122576    1.9088805269   -0.8309113518
 H   -0.9869598153    1.8791893995   -0.3657846354
 H    0.2671084939    1.9754588710    0.8779604337
 H    0.8772092256   -2.9973208917   -0.5488670229
 H    0.8376658855   -3.9838863355    1.6996684690
 H   -0.1276793032   -2.5989191742    2.3276065945