18

 C    0.3581172852    1.4058551458   -0.0796442586
 C   -0.0103846301   -0.0901291004   -0.0219146353
 C    0.6147819826   -0.8532691026   -1.2379346047
 C    1.8591612363   -1.4761839651   -0.6595821530
 C    1.8740002269   -1.4455425361    0.6699503594
 C    0.6455977299   -0.7876120825    1.2481809415
 O    0.8906968982    0.0739624465    2.3393386454
 C   -1.4667699559   -0.2292003546    0.0048891392
 N   -2.6169974147   -0.3459095358    0.0253277936
 H    1.4441360433    1.5175789686   -0.1648203091
 H   -0.1004873867    1.8747530208   -0.9535333547
 H    0.0168377428    1.9261819792    0.8166138845
 H   -0.0679104662   -1.6239056240   -1.6152890210
 H    0.8165559434   -0.1780777246   -2.0766726227
 H    2.6183507340   -1.9305468836   -1.2863876768
 H    2.6374225434   -1.8656576079    1.3148451507
 H   -0.0488918043   -1.5366848024    1.6455396038
 H    1.6467170120    0.6296883785    2.1208258279