18

 C   -0.0255119948    1.5992620499   -0.1814600785
 C   -0.0124863727    0.0925145276    0.0274078003
 N    0.9260338670   -0.6544077275   -0.8244632764
 C    1.6632129578   -1.1978717257    0.1943552381
 O    2.6292806097   -1.9154399617    0.2216144030
 C    0.7690007966   -0.5045787240    1.2551006226
 C    1.4796182381    0.4286875831    2.2372014176
 C    2.3439662858   -0.3508852008    3.2157473146
 O    2.3068098755   -0.1988899657    4.4098757409
 H    0.9825637866    2.0206876978   -0.1416576820
 H   -0.4543615570    1.8455515246   -1.1584999737
 H   -0.6395988903    2.0882377118    0.5815592528
 H   -1.0340728819   -0.3007829427   -0.0361117542
 H    0.9855495838   -0.7697475005   -1.8258755080
 H    0.1634959504   -1.2358651569    1.7991224323
 H    2.1475746502    1.1080473556    1.6902610909
 H    0.7721751879    1.0358511075    2.8098470532
 H    3.0284183173   -1.0843227723    2.7402845063