18

 C   -0.2281781892    1.4059765392   -0.0060014783
 N    0.1899970750    0.0261120750    0.1564723908
 C    0.7009396053   -0.6202667302   -0.9709751323
 C    1.2102564653   -0.1041865793   -2.1490815595
 N    1.6006928982   -1.1617126784   -2.9201639162
 C    2.3532338507   -1.1246093707   -4.1486268108
 N    1.3885285708   -2.3462660207   -2.2976979638
 C    0.8435819365   -2.0183796264   -1.1388386767
 O    0.4348042773   -2.9371725568   -0.2300305539
 H    0.6457169826    2.0347450473   -0.2128859724
 H   -0.9517977314    1.5578091259   -0.8250360716
 H   -0.6752200517    1.7601627852    0.9259423239
 H   -0.4967657530   -0.5444638318    0.6305621026
 H    1.3161450232    0.9112372325   -2.4941833594
 H    3.4351834637   -1.1745800476   -3.9713946357
 H    2.0610458882   -1.9746278862   -4.7685623974
 H    2.1251252167   -0.1982416598   -4.6815763056
 H    0.6154249719   -3.8071550773   -0.6062755737