16

 O    0.1898764449    1.4521162745    0.0758789685
 C    0.0517429666    0.0509692255    0.0422906126
 C    0.6556552236   -0.5372872080   -1.1762532875
 N    1.1259411366   -1.0000253935   -2.1243225949
 C    0.6641632949   -0.5640771976    1.2828058172
 C    0.3188619132   -0.2856886785    2.7670466949
 C    1.6747826724   -1.0239150183    2.6779401931
 C    1.0770924105   -2.0108803308    1.6446713898
 O    2.0589534201   -0.1266211214    1.5535286276
 H    1.0998284738    1.6330803031    0.3501502297
 H   -1.0226435792   -0.1649705250    0.0225123761
 H    0.3739105407    0.7603445007    3.0666582361
 H   -0.5294183463   -0.8178168731    3.2032976860
 H    2.4219846658   -1.1977617356    3.4498182741
 H    0.2967038832   -2.6966224939    1.9811857560
 H    1.7957295892   -2.4683467582    0.9654069207