17

 C    0.0724374264    1.4517875082   -0.2597852409
 C    0.0192185289   -0.0299731830    0.1305850449
 O    0.5636602040   -0.2331875007    1.4269344186
 C   -1.3907070882   -0.5951481080    0.0765737826
 O   -2.2254901245   -0.0531071610    1.0784000286
 C   -2.0170519224   -1.0121504556   -1.2257476231
 C   -1.6130905703   -2.0484991127   -0.1912306923
 H    1.0961988453    1.8226932466   -0.1683987932
 H   -0.2672312014    1.6070782341   -1.2893750700
 H   -0.5559720885    2.0535543554    0.4073821778
 H    0.6502804083   -0.6022896870   -0.5601968347
 H   -0.1541052844   -0.0388923711    2.0433518007
 H   -2.5091681329    0.8213765290    0.7893127129
 H   -3.0778256051   -0.8220520294   -1.3477919629
 H   -1.4317088119   -0.9291641850   -2.1356905190
 H   -0.7483347752   -2.6722503225   -0.3872871443
 H   -2.4099415081   -2.5277180774    0.3651070941