18

 C    0.0042288561    1.4857320284   -0.0147522450
 C    0.0852304919   -0.0219179929    0.0236631962
 C    0.4450355038   -0.7044434949   -1.2951451198
 C    0.3182105033   -2.1590516904   -0.8467716505
 O    0.5344369142   -3.1732950488   -1.4547738541
 C   -0.1272982506   -1.9903443965    0.5831500713
 C    0.6821051157   -0.8261179307    1.2287951965
 C   -0.6093433691   -0.5075584198    1.9885330898
 N   -1.1487063856   -0.8132350822    0.5837033984
 H    0.9565749846    1.8990409490   -0.3635027659
 H   -0.7724750771    1.7996410471   -0.7198935971
 H   -0.2185326472    1.9366584546    0.9541538449
 H   -0.2662826881   -0.4732955934   -2.0952313699
 H    1.4527906195   -0.4709183517   -1.6527942860
 H   -0.4123064947   -2.8712163523    1.1557897985
 H    1.7177251505   -0.8523927585    1.5875331259
 H   -0.9457436364   -1.2272283777    2.7388466654
 H   -0.7941756107    0.5118669705    2.3304730914