19

 C   -0.3455334123    1.3909020712    0.1971784756
 N    0.0313453767   -0.0146153237    0.1478240223
 C    1.3872722408   -0.3535994263   -0.2514552004
 C    0.9322324865   -0.5668904691    1.1548517696
 C    1.5232971216    0.2551432193    2.2680882384
 O    0.5310029405    0.4116512417    3.2768110378
 C    1.0183995444    1.0928762321    4.4037321733
 C   -0.0541667087    1.2208683931    5.3948593225
 N   -0.8772098696    1.3394241188    6.1955166942
 H    0.4887756840    2.0839738843    0.3909308373
 H   -0.7853821367    1.6656633696   -0.7663583008
 H   -1.0993214570    1.5321248123    0.9765334191
 H    1.4990743111   -1.1957012589   -0.9292282162
 H    2.0881188909    0.4638758261   -0.4259950446
 H    0.6581668480   -1.5723670223    1.4694969791
 H    2.4022804008   -0.2660274558    2.6824046692
 H    1.8633892126    1.2399869342    1.9156887008
 H    1.8635819197    0.5582629412    4.8685372496
 H    1.3786329567    2.1030752622    4.1467660132