22

 C   -0.4371917891    1.4414174866    0.0029711668
 C   -0.1242207907   -0.0509543851    0.0451164838
 C    0.9356216182   -0.5006777718   -1.0038402158
 C    2.0216762594   -0.4812419976    0.1038261616
 C    0.8965143413   -0.4948226525    1.1672705723
 C    1.0109968530    0.3245533103    2.4166258930
 C   -0.0871587502    0.2400894400    3.4450660139
 N    2.0452169811    1.0656223903    2.5468636803
 O    2.0222663326    1.7779316176    3.7601445809
 H    0.4751226855    2.0455039226    0.0409826101
 H   -0.9674281631    1.6917782746   -0.9224669732
 H   -1.0703477092    1.7469986715    0.8429677938
 H   -1.0573971715   -0.6222552292    0.0355214745
 H    0.7424154781   -1.5090482685   -1.3804487749
 H    1.0824966637    0.1649424981   -1.8588506926
 H    2.7331131500   -1.3094124935    0.1312091434
 H    2.5805754586    0.4551115909    0.1307421734
 H    0.6588172384   -1.5258639565    1.4579346831
 H    0.2988729348   -0.1763547983    4.3819219205
 H   -0.4681310521    1.2376083818    3.6834377994
 H   -0.9103647694   -0.3860095003    3.0946600826
 H    2.8461514406    2.2739999790    3.7161402232