15

 N    0.0667003362   -1.1053177342    0.1226228575
 C   -0.0055601841    0.0490567215    0.0570611298
 C   -0.0553613640    1.4630330706   -0.0284462568
 C   -1.1446737384    2.2442046542   -0.0912202717
 C   -0.6883979939    3.6729607552   -0.0131653240
 C   -0.1649414798    3.9413690248    1.4413481205
 C    1.1943694318    3.5222341092    0.9134371103
 C    1.1538063878    2.3463188873   -0.0243848176
 N    0.7607633116    3.6794126129   -0.5254911434
 H   -2.1757842933    1.9193834589   -0.0487465218
 H   -1.3298220234    4.4233576518   -0.4704480256
 H   -0.1703987146    5.0112940942    1.6573887949
 H   -0.6184858743    3.3919417066    2.2709348243
 H    2.1467909650    3.9025278574    1.2691399049
 H    2.1014863733    1.9654700196   -0.3892278611