15

 O    0.0986870068   -0.0184241838   -0.0185201577
 C    0.0135290281    1.1623387322    0.0953140593
 O    1.1212654711    1.9621487191   -0.0938804371
 C    0.9747328809    3.3152407488   -0.0322926802
 N   -0.1275614570    3.9389003319    0.0465623484
 C    0.1642311071    5.3845388277    0.0299639227
 C    1.6856004585    5.5262950353   -0.0065198648
 N    2.3251082874    4.9385914907    1.1858108922
 C    2.2171091332    4.1405832372   -0.0675421001
 H   -0.8807161144    1.7421275272    0.3551200916
 H   -0.3083895657    5.8324724359   -0.8516550698
 H   -0.2689559872    5.8559780877    0.9178765435
 H    2.1617006676    6.3551821947   -0.5177695386
 H    3.2793086833    5.2891362913    1.2525941389
 H    3.1043755003    3.8195161344   -0.5985014683