19

 C   -0.0304963520    1.3749316585   -0.0935737027
 C   -0.0337722253   -0.1127923846   -0.0224500409
 O    0.9265518660   -0.8620818482   -0.7672386300
 C    0.1516937864   -2.0625891933   -0.4618728019
 C    0.2661613936   -3.1466860331   -1.4859069751
 C    0.4145673093   -2.2533688564    1.0591020720
 C   -0.3749356369   -0.9620769614    1.2494228523
 C   -1.1012303391   -1.1374694037   -0.0812157846
 O   -2.4099416711   -1.0584720439   -0.4763830810
 H    0.8963752168    1.7857097476    0.3202577659
 H   -0.1253124642    1.7137212909   -1.1299282053
 H   -0.8706607836    1.7803056039    0.4775572871
 H    1.3088488428   -3.4705049142   -1.5781667040
 H   -0.3373666118   -4.0137307271   -1.2003885838
 H   -0.0711433205   -2.7930908723   -2.4642796299
 H   -0.1159949047   -3.1211988233    1.4624952953
 H    1.4680142685   -2.2766392301    1.3547876946
 H   -0.7286978543   -0.4956205179    2.1606746188
 H   -2.9323609800   -1.6713736714    0.0540786532