18

 N    0.0299993481    1.3153331081    0.2334417364
 C    0.0650712430    0.0553169013    0.1604404405
 C   -1.0141006247   -0.8216057866   -0.4361342016
 C   -0.6834247018   -2.2479754104    0.0395375473
 C   -0.7274331897   -3.3240147088   -1.0724064356
 C    0.7069206882   -3.3930855628   -1.5428216694
 C    1.5426045642   -2.7414505800   -0.7359152484
 C    0.8162414505   -2.1211284847    0.4294441879
 O    1.0995253922   -0.7183141787    0.6039812188
 H    0.8883284253    1.6714631968    0.6578078515
 H   -2.0037067088   -0.4701527912   -0.1421710813
 H   -0.9523867190   -0.7468632258   -1.5275475147
 H   -1.3007223497   -2.5175430125    0.8985927098
 H   -1.0553475695   -4.2955955971   -0.6801912669
 H   -1.4270400908   -3.0675614533   -1.8767132629
 H    0.9998637488   -3.9438613832   -2.4303302763
 H    2.6177999942   -2.6694043601   -0.8482518269
 H    1.0758253195   -2.5994284609    1.3804381717