19

 C    0.0787223016    1.4846092906    0.1050366009
 C   -0.0118771180   -0.0439108904   -0.0249636815
 O    0.6492593521   -0.7221887024    1.0425282450
 C    2.0487620834   -0.6927286047    0.9941680964
 C    2.8119682818    0.3640455321    1.8337087152
 O    3.5614218776   -0.6714929012    2.5001373805
 C    2.7206237947   -1.7019616537    1.9395600570
 C   -1.4034237250   -0.4928971580   -0.0404002624
 C   -2.5556841347   -0.8292326263   -0.0738910846
 H    1.1209820601    1.8131465733    0.0576135235
 H   -0.4690780871    1.9643623077   -0.7104947378
 H   -0.3543508161    1.8056691291    1.0554359054
 H    0.4595759040   -0.3434432248   -0.9764826564
 H    2.4057390318   -0.7577469321   -0.0426058083
 H    3.4636781911    1.0682317908    1.3033898388
 H    2.1547435221    0.9115981831    2.5219547658
 H    2.0155882509   -2.1136387221    2.6731502377
 H    3.3015170775   -2.5130613371    1.4881391130
 H   -3.5713144178   -1.1388792437   -0.0998030783