14

 C    0.0620916311    1.5252983137    0.0034146185
 C    0.0511421676    0.0265304646    0.0095529298
 C   -0.0337274132   -0.8044044199   -1.0846776405
 O   -0.1216368387   -0.5738181433   -2.4226614463
 N   -0.0173470185   -2.1051605587   -0.6712887344
 C    0.0784998904   -2.1399725402    0.7077923609
 C    0.1208713430   -0.8442502324    1.1479574525
 H    0.9191692151    1.9285995140    0.5551102083
 H    0.1293751163    1.9305110055   -1.0142544277
 H   -0.8417542472    1.9533269861    0.4546750600
 H   -0.1592719016    0.3775502656   -2.5603716665
 H   -0.0660990429   -2.8939985478   -1.2912951819
 H    0.1089306032   -3.0780411469    1.2361227949
 H    0.1966278254   -0.5300332803    2.1784302625