16

 C   -0.0723159925    1.3968640711   -0.0331449882
 N    0.0230162493   -0.0539459860   -0.0551988924
 C    0.5931789549   -0.6255265208    0.9112500277
 N    1.1933311573   -0.0682501915    2.0498009031
 C    1.7479341874   -1.0108214291    2.9069247435
 O    2.3853757007   -0.7867835585    3.9041225134
 C    1.4019989873   -2.3315143278    2.2734344801
 C   -0.0482518035   -2.6260405209    2.1011250902
 N    0.7305820883   -2.0530975366    0.9876521031
 H    0.9166765644    1.8789219608   -0.0026235906
 H   -0.5756562382    1.7382236862   -0.9402203192
 H   -0.6527693223    1.7660693160    0.8259862003
 H    1.2366385660    0.9199485311    2.2424658254
 H    2.1382027917   -3.1258083862    2.3102671471
 H   -0.3596652612   -3.6539083640    1.9491553921
 H   -0.7698703697   -1.9870104538    2.6024091641