21

 C   -0.0927094803    1.4711175992    0.1990162804
 C   -0.0191824099   -0.0578134951    0.1341657295
 C   -1.4045692088   -0.6834019388    0.1634269726
 O   -2.2057337886   -0.2957298138   -0.9720416496
 C   -2.4010648580   -1.6665913620   -1.3769893823
 C   -1.5812052157   -2.2045469419   -0.1920928476
 C   -0.3173232138   -2.9760487078   -0.5286911430
 C    0.3105114275   -3.7629818977    0.6062528483
 O    0.1676018287   -2.9530710454   -1.6379743576
 H    0.9052012433    1.9150789105    0.1421363431
 H   -0.6881528758    1.8567399125   -0.6328245944
 H   -0.5579385579    1.8083853823    1.1320753319
 H    0.4956992620   -0.3708095682   -0.7802054088
 H    0.5611685145   -0.4445317710    0.9831068373
 H   -1.9137026018   -0.4181014198    1.1015671251
 H   -3.4609471418   -1.9451715947   -1.3815490472
 H   -1.9517287465   -1.8749664056   -2.3528780790
 H   -2.1583236207   -2.7400770646    0.5648320307
 H   -0.3582732317   -4.5799132733    0.9027994753
 H    1.2701848738   -4.1746376536    0.2920628654
 H    0.4444480713   -3.1293781511    1.4901650398