17

 C   -0.3791700845    1.2495042880    0.1277187024
 C    0.0757779948   -0.2018710117    0.1139204343
 C    0.9754852250   -0.6952647761   -1.0886617934
 C    1.9529133588   -1.3752229956   -0.0646267358
 C    1.2102283103   -0.6325753224    1.0247671838
 N    1.4320066347   -0.3248070064    2.2312623755
 O    2.6376625167   -0.8834119424    2.6836265339
 C    0.3472953803   -1.5429160874   -2.0848044168
 N   -0.1651952474   -2.2274718856   -2.8633275576
 H    0.4688865299    1.9287278650   -0.0042696381
 H   -1.1033119485    1.4382648270   -0.6708975666
 H   -0.8527964993    1.4892151836    1.0837129227
 H   -0.7828707079   -0.8737794537    0.2273992560
 H    1.4538153252    0.1539100250   -1.5836047055
 H    1.8306350207   -2.4605001585   -0.0098136096
 H    3.0139025791   -1.1457006968   -0.1780019983
 H    2.6847528121   -0.5638145120    3.5913217333