21

 C   -0.0229474841    1.5459210835   -0.0230785791
 C    0.0350916797    0.0351855371   -0.0066202178
 C    0.9131553877   -0.7907866806   -0.9987237098
 C    0.7302219181   -1.9107350637    0.0641120990
 C   -0.7866316641   -2.1728442061    0.0557405656
 C   -1.4178498545   -1.5457184342    1.2857056930
 C   -0.3050905599   -1.1104054336    2.2221113563
 C    0.7246701971   -0.7816197812    1.1503852090
 C   -1.2977781195   -0.7464506537    0.0008134177
 H    0.9796767077    1.9853404082    0.0126682257
 H   -0.5138927074    1.9129442571   -0.9324140682
 H   -0.5894245718    1.9317044296    0.8322754556
 H    0.5250322048   -0.9676893729   -2.0067798741
 H    1.9423349913   -0.4211191018   -1.0538842176
 H    1.3977705828   -2.7705681828    0.1252543319
 H   -1.2418008276   -2.9903829361   -0.4874627274
 H   -2.3842910393   -1.8800998020    1.6443462424
 H   -0.5759236665   -0.2391990870    2.8301674663
 H    0.0239362878   -1.9115740139    2.8941952160
 H    1.7033279002   -0.4160210897    1.4603614464
 H   -2.1538365627   -0.4387923361   -0.5862913009