13

 O   -0.0388983090    0.0225041692    0.3297559721
 C   -0.0152015323    1.1847004753   -0.0009188749
 C    1.2284462997    1.9902285786   -0.0636927908
 C    1.5912401907    2.9515157280   -1.2084537810
 C    0.3614742296    3.7188355044   -1.6809444944
 O    0.0391209973    4.0982412267   -0.3119876817
 C    1.2463244037    3.4895721047    0.1454129054
 H   -0.9463588575    1.7267462995   -0.2612852102
 H    2.1005078956    1.4744679734    0.3280891799
 H    2.5374307341    2.8666125206   -1.7239719871
 H    0.6188052161    4.6074123968   -2.2668902723
 H   -0.4497559133    3.1724249482   -2.1718123409
 H    1.8120675053    3.9888367445    0.9231654157