23

 C    1.2169874159    0.2537183562    1.2400067340
 C    0.2890260904    0.5112151345    0.0487591692
 C    0.8091819105   -0.0969121550   -1.2539552766
 O    2.0831603179    0.4495054507   -1.5838281413
 C    0.9432690902   -1.6216690097   -1.3522835272
 C   -0.3973338563   -2.2980078181   -1.2874129051
 C    0.0301654357   -1.6538698515   -2.5759902705
 C   -0.1446403507   -0.1275020481   -2.5229805561
 C   -1.5540608295    0.4524884489   -2.4847906318
 H    1.2983445446   -0.8189196647    1.4452015021
 H    2.2227377467    0.6287337216    1.0338870433
 H    0.8438280808    0.7403823795    2.1460638430
 H   -0.7123708016    0.1239785968    0.2650088232
 H    0.1617429017    1.5940457711   -0.1005590714
 H    1.9802756226    1.4047557340   -1.6620825798
 H    1.8741045258   -2.1476331784   -1.1815239033
 H   -0.3593847204   -3.3827989051   -1.2800187950
 H   -1.2090220883   -1.8898073460   -0.6912448823
 H    0.1438580604   -2.2325401911   -3.4849744665
 H    0.4243059808    0.3335554352   -3.3360889223
 H   -2.1713998010   -0.0082659304   -1.7078357822
 H   -1.5402692628    1.5327899453   -2.3009965912
 H   -2.0605242635    0.2890800243   -3.4426499521