17

 O   -0.0384575307    0.0316212419    0.3174466450
 C   -0.0094884855    1.1915160805   -0.0009671689
 O   -1.1822269410    1.8748004190   -0.1520011648
 C   -1.1540475867    3.1318774163   -0.8155772558
 C   -1.5634176492    3.1027263378   -2.2643981386
 C   -2.5070747617    3.6306858068   -1.1984363873
 C   -0.0589896839    4.0533410570   -0.3321280089
 C    1.2376756855    3.2962780109   -0.2728262596
 C    1.2410151059    1.9663124766   -0.1655302655
 H   -1.1009538392    3.8069255485   -2.9476311002
 H   -1.7902882213    2.1319889159   -2.6889964972
 H   -3.3488112241    3.0055735618   -0.9244793018
 H   -2.6929626506    4.6980844838   -1.1469890827
 H    0.0224562937    4.9145096027   -1.0033508497
 H   -0.2969246066    4.4588011497    0.6628794373
 H    2.1693567708    3.8549410774   -0.2976526780
 H    2.1492356747    1.3791182233   -0.1046559634