16

 N   -0.0426214885    1.3635353133   -0.0153703975
 C    1.2227363940    1.8195599743   -0.0259436869
 C    2.1376449188    0.7575546835   -0.0162339418
 C    1.3513631257   -0.3682364882    0.0008063650
 N    2.1770235720   -1.5620785214    0.0124570373
 C    3.2222715525   -1.0419074717    1.0319023262
 C    3.5156474283    0.0890576804   -0.0131880141
 C    3.2143804266   -1.0674949318   -1.0275774893
 N    0.0652639350    0.0043555201    0.0011736762
 H    1.3858498993    2.8870783564   -0.0398706136
 H    2.8021397603   -0.7606571167    1.9990327806
 H    4.0205675766   -1.7808509346    1.1462404796
 H    4.4333840218    0.6743879559   -0.0239806016
 H    4.0118531006   -1.8091200403   -1.1296363287
 H    2.7868232873   -0.8103173575   -1.9981486842
 H   -0.7709842702   -0.5546843117    0.0114007530