16

 C   -0.0468211187    1.5554176325    0.0743640882
 C    0.0206884918    0.0271651116    0.0219359555
 C    1.1175849438   -0.6270058539   -0.9275489164
 C    1.7363177223   -1.2928063903    0.3028753886
 N    2.1154188342   -0.1901025815    1.2182244278
 C    0.7254213925   -0.6895698216    1.2072206251
 C   -1.2954407611   -0.5540575508   -0.2249652191
 N   -2.3401130478   -1.0136914193   -0.4115912425
 H    0.9420052392    1.9439474017    0.3243386779
 H   -0.3589051577    1.9622303889   -0.8917939691
 H   -0.7628898846    1.8890014697    0.8310994274
 H    0.6807229391   -1.3289401330   -1.6381269714
 H    1.7583562707    0.0885614348   -1.4472405178
 H    2.2264404944   -2.2560439815    0.3560986916
 H    2.5738664324   -0.6031116787    2.0296070063
 H    0.2476336195   -1.0723916186    2.0999598679