17

 C    0.1516918031    1.4709555703    0.0399797223
 N   -0.1278518138    0.0436547655    0.1262572707
 C    0.5295339155   -0.7406353714    1.0316176015
 C    0.6897837211   -2.1016398047    1.1127704304
 C    0.2246897648   -3.1777080424    0.1848046786
 C    1.4132304949   -2.2278382984    2.3260162075
 O    1.8152099584   -3.4021166735    2.8447038205
 N    1.6798561430   -1.0917827989    2.9264314986
 O    1.1019007923   -0.1161260443    2.0715535502
 H    1.1764245555    1.6929262998   -0.2887239811
 H   -0.5517653496    1.9202883913   -0.6638445017
 H    0.0017696893    1.9307376970    1.0186063447
 H   -0.3130144550   -0.4194588267   -0.7501810492
 H    0.3901868522   -2.9109852022   -0.8666973233
 H    0.7768315952   -4.1018742572    0.3742316052
 H   -0.8424752704   -3.4058237492    0.2992552561
 H    2.2991308235   -3.2075254951    3.6582795290