18

 C    0.1513536481    1.5441627564   -0.0541651398
 C   -0.0063639015    0.0245769682   -0.0219229898
 O    0.6308157136   -0.5551981196   -1.1701807864
 C   -0.1038982506   -0.7094674993   -2.2889260285
 N    0.4408099679   -1.1206525600   -3.3496359699
 C    0.6256993993   -0.5915994888    1.2130357686
 C    1.0809602208   -1.9998670715    1.2343194158
 N    2.0618046811   -0.8953606479    1.2455912625
 H    1.2105705817    1.8156344463   -0.0534499866
 H   -0.3151157106    1.9662082870   -0.9492679613
 H   -0.3225491177    1.9935270894    0.8238648939
 H   -1.0749824541   -0.2367765268   -0.0385033057
 H   -1.1648889646   -0.4580386653   -2.1515792817
 H   -0.2538947060   -1.2009780349   -4.0890612427
 H    0.2484434945   -0.1530784354    2.1353773760
 H    1.0223037282   -2.5721478199    2.1556924083
 H    0.9778940222   -2.5782249632    0.3215897337
 H    2.4347850677   -0.7948559049    0.3032418434