14

 N   -0.0967222872    1.6015555349   -0.0792620175
 C   -0.0086301684    0.1447768635   -0.0179820103
 C   -1.3218660883   -0.4635070381    0.1350294177
 C   -2.4069972890   -0.9859362755    0.2417485603
 C   -3.6333616433   -1.5743268834    0.3621404228
 N   -4.6735724891   -2.0819290913    0.4604708638
 C    0.8103883020   -0.4582898330   -1.2138420980
 N    0.6254424807   -1.7749285482   -1.4631276387
 O    1.6062916020    0.2460623653   -1.7981581164
 H    0.8014898616    1.9210424271   -0.4412555582
 H   -0.7777903380    1.8598708200   -0.7892542177
 H    0.5810757278   -0.1193710198    0.8746387168
 H   -0.1230464909   -2.2933546666   -1.0358981243
 H    1.1441219201   -2.1984730248   -2.2159787704