22

 C    0.8738094277   -0.0286418242   -1.2477968754
 C   -0.0548449554   -0.1227648783   -0.0302650932
 C    0.6212028343   -0.6699204431    1.2213879294
 C    1.7650652189    0.1514185725    1.8054760262
 C    1.3408811865    1.5259998408    2.3373358030
 C   -0.2584708075   -1.4169237163    2.2144651234
 C    0.7296820167   -2.1658640170    1.3516258755
 O    0.2719793041   -2.9476020062    0.2835765638
 H    1.2799703539   -1.0133551003   -1.4970057018
 H    0.3285886593    0.3432577262   -2.1211938436
 H    1.7139673736    0.6515939236   -1.0741662458
 H   -0.4811426797    0.8638540661    0.1906794657
 H   -0.8962274314   -0.7735028410   -0.2831951459
 H    2.2240696755   -0.4186803055    2.6228455439
 H    2.5515388529    0.2767221781    1.0508864315
 H    2.1883403369    2.0442764561    2.7968063263
 H    0.9560352378    2.1688645779    1.5396895957
 H    0.5547963898    1.4297231139    3.0938624392
 H   -0.0544950023   -1.3211583291    3.2765298263
 H   -1.3085701737   -1.5269215464    1.9626546106
 H    1.6243989052   -2.5559185203    1.8388609249
 H   -0.1767911231   -3.7166103974    0.6494776801