12

 O   -0.2681938028   -0.1737223790    0.0029299369
 C   -0.0995682612    1.0178533159    0.0055705857
 N    1.1467566499    1.6576445444   -0.0022228236
 C    2.4100282063    1.0520754353   -0.0144927545
 O    2.6110128847   -0.1344582818   -0.0205896619
 C    3.4763748541    2.0446223238   -0.0193527882
 C    4.3765717351    2.8415512103   -0.0237281821
 C   -1.1925273964    1.9809552563    0.0175328914
 C   -2.1140626170    2.7530575794    0.0275412018
 H    1.1330131249    2.6676699926    0.0014774412
 H    5.1839613853    3.5334885019   -0.0284821276
 H   -2.9398618729    3.4228705509    0.0367130810