20

 C   -0.2968448555    1.5682452542   -0.1946193415
 C    0.1523108656    0.1506743273    0.1833466827
 C    0.8284678871   -0.5558652944   -0.9944200858
 C    2.0966880077   -1.4040734238   -1.0457415103
 C    2.1849662532   -2.5129446254    0.0388561238
 N    1.0070559260   -2.4276523725    0.9464439511
 C    0.8911595923   -3.0783572010   -0.3820769951
 C    0.7602514288   -1.9788837209   -1.4868529563
 O    0.3905005049   -2.3250722586   -2.7758875384
 H    0.5534111835    2.1851017399   -0.5075522039
 H   -1.0149743452    1.5540574201   -1.0229899827
 H   -0.7772215865    2.0696628049    0.6516524962
 H    0.8359338127    0.1926041154    1.0340935417
 H   -0.7064411691   -0.4319436012    0.5275432054
 H    0.8430189426    0.0724074529   -1.8877298574
 H    2.9450990559   -1.1220803526   -1.6562782460
 H    3.0943121002   -3.0105952140    0.3487420867
 H    1.1086296378   -3.1747409872    1.6347888181
 H    0.5781406517   -4.1075917837   -0.5021055875
 H   -0.5591118036   -2.1833863594   -2.8632068108