15

 O    0.2513135876    0.7444372210    0.8441944452
 C   -0.0876131058    0.1843530090   -0.4158366330
 C   -1.4371588828   -0.4670264536   -0.2832315319
 C   -1.8880456237   -1.4974371240   -1.2739512348
 C   -1.5698846512   -1.9216990741    0.1539634160
 C   -0.4145588502   -2.7271544671    0.4201437466
 C    0.5464240110   -3.4156867646    0.6449788807
 H    1.1330688665    1.1217692187    0.7758279344
 H   -0.1361872099    0.9623093556   -1.1957165918
 H    0.6511700392   -0.5645853480   -0.7369592287
 H   -2.2001725382    0.1952617029    0.1150650650
 H   -2.9264683237   -1.5075859653   -1.5848317095
 H   -1.1844138714   -1.8092730497   -2.0380975036
 H   -2.4260420356   -2.1391231921    0.7855885043
 H    1.3937397182   -4.0214712785    0.8495457609