22

 C    0.7008172911    1.1316829701   -0.5552322344
 C   -0.0389082757    0.0238628587    0.1754300078
 O    0.8801299770   -0.6656623336    0.9973400397
 C    0.2921210219   -1.7252004426    1.7246534780
 C    1.3301669757   -2.3279627885    2.6175634195
 C    2.2728994180   -1.5577095657    3.5567409384
 C    3.3730790353   -2.6384185530    3.2854598885
 C    2.3885837194   -3.3661043579    2.3597123276
 N    1.1508091187   -3.7060826395    3.0581836871
 H    1.5000781226    0.7150320195   -1.1747385671
 H    0.0148128462    1.6883333529   -1.2006511349
 H    1.1492568001    1.8287723997    0.1584925391
 H   -0.8571858412    0.4416559575    0.7869704800
 H   -0.5021316987   -0.6722209314   -0.5444274839
 H   -0.5555261603   -1.3497296967    2.3266542546
 H   -0.1071376085   -2.5013025096    1.0529946614
 H    2.5463943257   -0.5798183207    3.1577057409
 H    1.9236668735   -1.4388615169    4.5885573297
 H    4.2367909111   -2.2258896203    2.7591314008
 H    3.7300299880   -3.2181332493    4.1436870407
 H    2.6267451166   -3.9164666518    1.4563736096
 H    1.2829910037   -3.8202276111    4.0621896668