20

 C   -0.0255922611    1.5105352732   -0.0307008204
 C    1.3856399336    2.1427954016    0.0217107499
 C    2.2818643583    1.5898382393    1.1575358794
 C    2.2602207907    0.0764107002    1.0219193036
 N    3.0139687140   -0.8060369268    1.9419537732
 C    2.2727331254   -1.8350020675    2.0359974481
 O    1.0385149204   -1.8393512990    1.4500403596
 C    0.8314105394   -0.4322361090    1.1620223265
 C   -0.0235996043   -0.0410126948   -0.0210170286
 H   -0.6048081634    1.8589158584    0.8345288182
 H   -0.5541155385    1.8719874749   -0.9186516599
 H    1.8917088472    1.9601138314   -0.9355610552
 H    1.2886166227    3.2295550447    0.1148400112
 H    3.2978151592    1.9875291962    1.0727681605
 H    1.8953923753    1.8891536185    2.1397581480
 H    2.6266852253   -0.1636861015    0.0088074284
 H    2.5298906944   -2.7547130838    2.5500319843
 H    0.3891271612   -0.0039542472    2.0766445779
 H   -1.0464246052   -0.4223175010    0.0611271465
 H    0.4065008252   -0.4373194580   -0.9483181812