19

 C   -0.0552032512    1.6230798526    0.0381885520
 C    0.0095408846    0.0949497808    0.0415575806
 C    0.7378544000   -0.4891497576   -1.1897569115
 C    2.1404972514   -0.0844539249   -1.2364627119
 C    3.2964907559    0.2432599740   -1.2727372451
 C    0.6322994900   -2.0489164364   -1.2499197923
 O    1.1761128169   -2.6729154227   -0.0968954459
 C   -0.7487001195   -2.4734936212   -1.5006227951
 C   -1.8884237077   -2.8148879988   -1.6749018090
 H    0.9481832751    2.0579497498    0.0187295437
 H   -0.5992257007    1.9941962492   -0.8374334176
 H   -0.5687680887    1.9925818794    0.9308494378
 H    0.5240217285   -0.2505318418    0.9450649144
 H   -1.0046445266   -0.3205145289    0.0614406003
 H    0.2377636450   -0.1141733858   -2.0936849641
 H    4.3178667851    0.5315445878   -1.3078181200
 H    1.2628766954   -2.3864321187   -2.0795899279
 H    0.5196336702   -2.6180165964    0.6056139669
 H   -2.8888955139   -3.1301774904   -1.8429135453