22

 C   -0.2037302906    1.5178298684    0.2784753291
 C   -0.2887505262    0.0189002910   -0.0029865859
 N    0.5679341294   -0.3236386918   -1.1328989259
 C    1.9332038622   -0.7519894043   -0.8646489668
 C    0.9359576572   -1.7174891105   -1.4260572735
 C    0.4404535509   -2.8721785158   -0.5773953404
 C    0.9886955856   -1.9730672960   -2.9083180232
 C    1.3446544900   -3.2648562769   -3.5099247148
 O   -0.0147683167   -2.8240168817   -3.4724624391
 H    0.8157035952    1.8047558950    0.5569322434
 H   -0.4849379992    2.0916438814   -0.6087260556
 H   -0.8699575376    1.7945647822    1.1014926170
 H   -0.0332105590   -0.5366627449    0.9145269718
 H   -1.3168755593   -0.2543112522   -0.2680693274
 H    2.7106727425   -0.3171899838   -1.4896405517
 H    2.2266077990   -0.9095851380    0.1738905339
 H    0.3391912668   -2.5903042557    0.4714622598
 H   -0.5261265077   -3.2267195173   -0.9448238001
 H    1.1418127513   -3.7116202788   -0.6200231414
 H    1.1799598454   -1.0686551736   -3.4861042008
 H    1.8033311237   -3.2857813733   -4.4978144339
 H    1.5752437671   -4.1210144633   -2.8787665045