22

 C   -0.0361515771    1.4541842624    0.3746132778
 C   -0.0555413465   -0.0683793460    0.2272650312
 C   -1.4318852081   -0.5963953753   -0.2268689694
 C   -1.4756420658   -2.0476720003   -0.3685368875
 C   -1.4825825988   -3.2474053933   -0.4764853969
 C   -1.5310437042   -4.7023448884   -0.6038767493
 C   -2.8324406682   -5.3044746804   -0.0948238721
 C   -2.8364372775   -6.6634659754    0.4976145972
 N   -3.0619590417   -5.4761910556    1.3440035741
 H    0.9476627018    1.8081205834    0.6970926827
 H   -0.2732154371    1.9487244868   -0.5740750624
 H   -0.7703161642    1.7909949177    1.1151288845
 H    0.7022628875   -0.3875825471   -0.4970153629
 H    0.2085460648   -0.5430636430    1.1789188782
 H   -2.1968036896   -0.2754403595    0.4933239659
 H   -1.7026561761   -0.1240080362   -1.1811053395
 H   -1.3926507030   -4.9876210852   -1.6559922445
 H   -0.6912674588   -5.1538902129   -0.0565361400
 H   -3.7159612309   -4.9684524736   -0.6332321604
 H   -3.6987547912   -7.3134982091    0.3798219614
 H   -1.8856789381   -7.1866898351    0.5723787199
 H   -2.2130831374   -5.2484618440    1.8573271020