20

 C   -0.2537427154    1.5390667753    0.0122996609
 C   -0.0393770119    0.0411940941   -0.0674517060
 C    0.9250379311   -0.5806060954   -1.0792325216
 C    2.1323864753   -0.1970472547   -0.1709406702
 C    2.6947342581   -1.6257462038   -0.1302510933
 C    3.5063832463   -2.0660025331    1.0776455626
 O    3.6608940680   -3.4802173878    1.1312024844
 C    1.1632229570   -1.7568629569   -0.0893933543
 N    1.0217805533   -0.5419005978    0.8704712058
 H    0.6792025016    2.0965367263   -0.1144771514
 H   -0.9506479406    1.8685286273   -0.7659187532
 H   -0.6808111954    1.8111067706    0.9830783555
 H   -0.9930427062   -0.4904402344    0.0503161675
 H    0.8941084207   -0.6200543921   -2.1740919698
 H    2.6673045647    0.7523438096   -0.1221993911
 H    3.1533327990   -1.9703355800   -1.0633885015
 H    4.5223791549   -1.6613417290    1.0093290424
 H    3.0506299516   -1.6721185479    1.9956940137
 H    2.7985424017   -3.8584365857    1.3290915580
 H    0.5294221263   -2.6368393545    0.0477639717