14

 C   -0.0289998974    1.3684295217    0.0519388130
 N    0.1703129343   -0.0670327201    0.0882353105
 C    0.5977171776   -0.6146910652   -0.9518163006
 O    0.7917562456   -1.9798290969   -0.9307262237
 C    1.2482718337   -2.5754325490   -2.0369982777
 N    1.4493704648   -3.8865083442   -2.0609231557
 N    1.8863245922   -4.0270345231   -3.3096551196
 N    1.9567137955   -2.9148949442   -4.0122705299
 N    1.5480764176   -1.9620183846   -3.2074535954
 H    0.5780590668    1.8350297466    0.8349651654
 H    0.2241118278    1.8336548091   -0.9129312199
 H   -1.0758717470    1.5914414871    0.2836487958
 H    0.8464602152   -0.1443135132   -1.9057455173
 H    2.1463370535   -4.9233445641   -3.6935974050