21

 C   -0.4291755632    1.0735711017    0.1127266927
 O    0.4450229094    0.0077541954   -0.2036269885
 C    0.9732875622   -0.6112969167    0.9272447257
 C    0.2133092753   -1.6479666358    1.7295814877
 C   -0.6752219201   -2.4820292691    0.7959608672
 C    0.5777443891   -2.8801870277   -0.0482197132
 C    1.4436303971   -2.0243715480    0.8864483016
 O    2.6921064306   -2.3915738665    1.3427092940
 C    3.7246796280   -2.1441620785    0.4011304805
 H    0.0942718954    1.8796169418    0.6492904158
 H   -0.8125210609    1.4687532006   -0.8310102762
 H   -1.2716991989    0.7370023626    0.7334141501
 H    1.6016954478    0.0346431903    1.5447144472
 H    0.1100534246   -1.5696152781    2.8054100327
 H   -1.1305713314   -3.3373774554    1.2982192301
 H   -1.4515089170   -1.9279873754    0.2623687737
 H    0.8182793467   -3.9409475478    0.0503678428
 H    0.5737592876   -2.5993070929   -1.1037732308
 H    3.5800133699   -2.7232528611   -0.5215973158
 H    3.7810021469   -1.0786286564    0.1385044905
 H    4.6629583408   -2.4510356529    0.8684844821