17

 C    0.0899117874    1.5058204584    0.0827730947
 C    0.0480435233    0.0523777805    0.0460155178
 C    0.0145290361   -1.1517440775    0.0252658664
 C   -0.0158722870   -2.5855925989   -0.0242147403
 O   -0.5899079181   -3.2880716322    1.1129587980
 C   -1.2831913829   -3.3283555463   -0.1047749078
 C   -2.7059534345   -2.8406514516   -0.3432062997
 O   -2.9689100626   -4.0072723884   -1.1589038246
 C   -1.6751470362   -4.5849334128   -0.8756009538
 H    1.1217002196    1.8725364938    0.1062256651
 H   -0.4004573661    1.9405734310   -0.7950053686
 H   -0.4205016513    1.8888239456    0.9730509989
 H    0.8781765458   -3.0684707431   -0.4181150306
 H   -3.3292984686   -2.8104093312    0.5591062234
 H   -2.8153186444   -1.9039592010   -0.9013190967
 H   -1.1094516621   -4.8102576046   -1.7873460570
 H   -1.7446344586   -5.4859762518   -0.2523810052