23

 C   -1.2829260913    0.5771359415   -1.3066841679
 C   -0.1103669268   -0.3015004244   -0.8974677373
 C    1.3044324902    0.0802598588   -1.3450479633
 O    1.7352638781    0.7102689108   -2.2708650190
 C    1.9220123317   -0.4292718011   -0.0386402950
 C    3.1184963140    0.3004265433    0.5532396598
 C    0.4666662697   -0.3431460577    0.5745021488
 C    0.2284678702    0.9646654166    1.3327525713
 C    0.0375956081   -1.5455188949    1.4109773841
 H   -1.1261549633    1.6216897520   -1.0242478574
 H   -1.4097236749    0.5480760280   -2.3930667455
 H   -2.2178735134    0.2366243562   -0.8496975026
 H   -0.2926391146   -1.3368987040   -1.2170448825
 H    2.1663280541   -1.4914879871   -0.1779560508
 H    2.9193339550    1.3673595853    0.6852556701
 H    3.4020025396   -0.1166812591    1.5251229135
 H    3.9795045324    0.2092553858   -0.1157161118
 H    0.5291037741    1.8427139991    0.7519596764
 H   -0.8310144182    1.0820361947    1.5833185193
 H    0.7942790173    0.9798520110    2.2701367451
 H    0.5974916502   -1.5939080032    2.3521860758
 H   -1.0273017552   -1.4917756448    1.6655447679
 H    0.2058791930   -2.4848510668    0.8730501011