22

 C    0.5812218032    1.5529167428   -0.6766270134
 O   -0.2300329704    0.4050239357   -0.5789344813
 C    0.4468048805   -0.7794958231   -0.9043170886
 C    1.4299315281   -1.3912055118    0.1388734425
 C    0.7945783107   -2.7782106917   -0.1549596596
 C   -0.4204208414   -2.0480399297   -0.7898464575
 N    1.5585711090   -3.5025838828   -1.1603134822
 C    2.5247272860   -4.4738469181   -0.6592859810
 C    1.2564520199   -4.9227135346   -1.2994695627
 H    1.4330075901    1.5172694246    0.0196541301
 H    0.9778008884    1.6856036635   -1.6958296376
 H   -0.0408272687    2.4155226310   -0.4251293666
 H    0.9227954717   -0.6949458200   -1.8916285593
 H    2.5040557699   -1.2984045260   -0.0337692563
 H    1.1811078145   -1.0415419443    1.1448918086
 H    0.5756615630   -3.4051830927    0.7242502586
 H   -1.2187790402   -1.8872483341   -0.0608637741
 H   -0.8346548489   -2.4738551940   -1.7055460930
 H    3.4665755953   -4.5299352967   -1.1975077584
 H    2.6071992068   -4.6013057340    0.4192649230
 H    0.4958419125   -5.3484644872   -0.6464653231
 H    1.2558539400   -5.3123335368   -2.3134112780