16

 O   -0.0517117800    1.4144213131   -0.0117644127
 C   -0.0081754160    0.0355793209    0.0049542686
 C   -0.2392557047   -0.8425888366   -1.1936146830
 C   -1.1786010035   -0.9174885711   -0.0046181250
 C   -0.5493853502   -1.6854408761    1.2032710199
 N    0.8250001406   -2.1506487867    0.8164542561
 C    0.6106948082   -0.7482978174    1.2091337681
 C   -1.2652784366   -2.2656795964    2.2791531878
 C   -1.8961826229   -2.7593016021    3.1784100827
 H    0.7184234942    1.7351427553   -0.4951979914
 H   -0.6720956922   -0.3045298022   -2.0320235272
 H    0.4196981378   -1.6637364973   -1.4452645599
 H   -2.2366492992   -0.7059547742   -0.0696885667
 H    1.2017398326   -2.6453317677    1.6255388171
 H    1.1097074742   -0.2915328249    2.0544256504
 H   -2.4489839622   -3.1899074667    3.9760237951