16

 O   -0.0845512780    1.4665478895    0.0300115571
 C    0.0382502227    0.0558184347   -0.0511847143
 C   -1.3700453588   -0.5384023123    0.0310863839
 C   -1.3985785020   -2.0783838495   -0.0217348902
 C   -2.1727957089   -2.5233650012    1.2330916982
 O   -2.4484228586   -3.6627383247    1.5272982838
 C   -2.4977830160   -1.2928789154    1.9913471891
 C   -2.0592519581   -0.2114766934    1.3374744626
 H    0.7963471144    1.8515354288    0.0161896222
 H    0.5078064490   -0.2536131965   -0.9979778807
 H    0.6518386351   -0.3442067689    0.7721603428
 H   -1.9437862226   -0.0984297156   -0.7951846236
 H   -1.8832873667   -2.4754093315   -0.9173597847
 H   -0.3947182853   -2.5165321065    0.0136947506
 H   -3.0224813013   -1.3176196909    2.9379567230
 H   -2.1575488349    0.8159305034    1.6678057700