22

 C   -0.2310958907    1.4815384315    0.0240849072
 C    0.0766772188   -0.0225808075   -0.0174212499
 C    0.7968525475   -0.4019968934   -1.3198084102
 C    0.8306782080   -0.5060225506    1.2368855289
 C    2.2153612310    0.1162802571    1.4238267110
 C   -0.0066394330   -0.5068470145    2.5452039733
 O    0.1880431068   -1.9220963656    2.7300370594
 C    0.8327792401   -2.0449565792    1.4477676074
 H    0.6811390219    2.0826644443   -0.0518110058
 H   -0.8792004980    1.7654336315   -0.8113221272
 H   -0.7425375659    1.7644380234    0.9503912033
 H   -0.8870489480   -0.5519413054   -0.0126516666
 H    1.7387593696    0.1447614772   -1.4344955302
 H    1.0241494189   -1.4727090417   -1.3592974071
 H    0.1738420468   -0.1640822248   -2.1880225790
 H    2.1602579278    1.2050304861    1.5237384092
 H    2.6864810187   -0.2743093633    2.3315607116
 H    2.8791457637   -0.1122009547    0.5838369387
 H    0.3951796030    0.0768536956    3.3827962425
 H   -1.0685159024   -0.2550719611    2.4133608720
 H    0.2162309588   -2.6091788547    0.7337109643
 H    1.8157254164   -2.5260842705    1.5256037572