19

 O   -0.2863298506    1.4752079031    0.6528401988
 C   -0.0959279930    0.1398908740    0.2442192233
 C   -1.4438934626   -0.5512106697   -0.0447328502
 O   -2.3396568786   -0.3456357828    1.0594538400
 C   -2.1283735294   -1.2034915451    2.1471102966
 C   -1.2206169470   -0.7885339941    3.2786056638
 C   -2.7270411319   -0.7710348620    3.4445108147
 C   -2.0913176328   -0.0213277151   -1.2419589823
 C   -2.5912869671    0.4012507777   -2.2484801976
 H   -1.1195036582    1.4884466172    1.1408146683
 H    0.5147757625    0.1431916360   -0.6641309026
 H    0.4358259525   -0.4441955250    1.0100561331
 H   -1.2675867662   -1.6299516046   -0.1773535559
 H   -2.1702319376   -2.2596858144    1.8816481566
 H   -0.6450790911   -1.5534278924    3.7886753549
 H   -0.7200445930    0.1686290131    3.1845501314
 H   -3.2141496234    0.1973907916    3.4511840388
 H   -3.1977870838   -1.5199332569    4.0708290770
 H   -3.0392895388    0.7800348792   -3.1338120385