14

 C    0.1351340576    1.5491172596    0.1074083801
 C    0.0459489301    0.0659176198   -0.0204875951
 C   -0.0587141605   -0.7808393779   -1.1059355935
 C   -0.1235930083   -0.4657778243   -2.5651276745
 N   -0.1109586235   -2.0678720859   -0.6462511072
 N   -0.0466255868   -2.0718620940    0.6524923043
 N    0.0461231783   -0.7854144229    1.0382390346
 H    0.9643300645    1.8531184838    0.7556963607
 H    0.2977576781    2.0005162909   -0.8738029014
 H   -0.7840484909    1.9811923751    0.5201922244
 H    0.4650183506    0.4224988594   -2.8139991139
 H    0.2655281228   -1.3085469003   -3.1411873592
 H   -1.1518890002   -0.2845894744   -2.8992520835
 H    0.1183602582   -0.5707663790    2.0202111542