18

 C    0.3676034868    0.8012473295   -0.1852460876
 O   -0.1221426463   -0.2203764701    0.6657686140
 C   -1.3920417138   -0.6500387667    0.3208786225
 C   -1.5811154993   -1.7663365374   -0.7004213695
 C   -0.3548100411   -2.5960977900   -1.0347730038
 C    0.0974390691   -3.1764780859    0.2961926205
 N    1.1434066486   -3.8524787690    0.4844268298
 O   -0.8135590675   -2.8641060603    1.2771781652
 C   -1.8164793783   -2.0130802943    0.7762024585
 H    1.3806541818    1.0347210773    0.1481175098
 H    0.3958568849    0.4784623721   -1.2349551728
 H   -0.2511943405    1.7081379128   -0.1168023696
 H   -2.1624417565    0.1238616824    0.3324081519
 H   -2.3983128006   -1.7102589147   -1.4091157290
 H   -0.6074073493   -3.4087032276   -1.7222300341
 H    0.4655308259   -2.0321500795   -1.4842925864
 H    1.2283415974   -4.1183219289    1.4665627348
 H   -2.7807401515   -2.1906382997    1.2360131957