14

 O    0.0685648698    1.4169014489    0.2258369440
 C    0.0080931462    0.0429696572   -0.1080649061
 C   -1.3716428706   -0.5099519937    0.0442151105
 C   -2.0934646695   -1.0037968280    1.2385308626
 C   -1.9530068549   -1.9050176222   -0.0043980384
 C   -2.8423565273   -1.3383610066   -1.0768293726
 O   -3.6413954849   -1.7218339898   -1.8649598707
 O   -2.3654830267   -0.0366572642   -0.9236474482
 H   -0.5006983728    1.8892772667   -0.3919953410
 H    0.3594637102   -0.1429827244   -1.1337167682
 H    0.6828214118   -0.4773346799    0.5788570464
 H   -1.4799112974   -1.3200601213    2.0768794532
 H   -3.0594011211   -0.5849951464    1.4998826731
 H   -1.4981748728   -2.8843537162    0.0181641053