19

 C   -0.1167499134    1.5591411310    0.0259020537
 C    0.0745930050    0.0470787489    0.0037292713
 C    1.1782262197   -0.5783151898   -0.9188647012
 C    1.7701900143   -1.2900519185    0.3019110613
 C    2.1724955911   -0.2699222230    1.3322597670
 C    0.7199672684   -0.6526627125    1.2192519094
 C   -0.0577036808   -1.2364507857    2.3645203667
 H    0.8198397122    2.0836721023    0.2415354199
 H   -0.4828625876    1.9222499540   -0.9410522766
 H   -0.8464444721    1.8549880431    0.7882012240
 H   -0.8867366559   -0.4324176894   -0.2131248840
 H    0.7650560417   -1.2531369639   -1.6719976341
 H    1.8472999541    0.1311183523   -1.4197254483
 H    2.1612437036   -2.3010664620    0.3157993321
 H    2.6779016534   -0.6655383090    2.2082865088
 H    2.5325079984    0.7094534887    1.0241526642
 H   -0.4756444706   -0.4510746661    3.0069346309
 H   -0.8938660889   -1.8502075481    2.0085632229
 H    0.5764919173   -1.8696044922    2.9942527820