23

 C   -0.0228053019    1.4955923308    0.1868564174
 C    1.5230126634    1.4084056181    0.0207525580
 C    2.1684313169    1.0841640634    1.3741365357
 C    1.2771160858    0.0903062397    2.1591584443
 C    0.4984749956   -0.8502157356    1.2126463868
 C    1.4204160831   -1.9020169155    0.5518037345
 C    2.1461010056   -1.1476342385   -0.5966488561
 C    1.2810955507    0.1021642453   -0.8228632879
 C   -0.0337381997   -0.0413446900   -0.0053521359
 H   -0.4243955833    1.9245113273    1.1099364636
 H   -0.4919279938    1.9967715532   -0.6643118325
 H    2.0325723146    2.2356226394   -0.4809506462
 H    3.1731659669    0.6737167227    1.2203553699
 H    2.3009540345    2.0039695886    1.9558569055
 H    1.8716762467   -0.4895473056    2.8734249556
 H    0.5539317518    0.6560644622    2.7559144866
 H   -0.3086737899   -1.3336621236    1.7728005502
 H    2.1073809491   -2.3625925455    1.2690891520
 H    0.8099314526   -2.7100802162    0.1326120463
 H    3.1766783780   -0.8913443886   -0.3298495971
 H    2.2038917467   -1.7597997933   -1.5016535191
 H    1.1282777859    0.3508484651   -1.8758994699
 H   -0.9075464691   -0.5106776834   -0.4657196116