19

 O    0.4504140738    0.8574489405   -0.7060404282
 C    0.2231784337   -0.3390642300    0.0132669724
 C    0.6003278006   -0.3186725182    1.4851075772
 C   -0.3367031773    0.4482149741    2.4144191894
 C   -0.5120693176   -1.0288059492    2.1939737504
 O   -1.4893237025   -1.4558770172    1.2755510451
 C   -1.2540695567   -0.7828335362    0.0548988033
 C   -2.3558516358    0.0772388893   -0.5102091431
 C   -2.0132264174   -1.2653742847   -1.1317634721
 H    0.0962593671    1.5811999554   -0.1770072405
 H    0.8257561644   -1.0936650341   -0.5044063416
 H    1.6410240475   -0.4377933203    1.7598948724
 H    0.0746520741    0.7680048899    3.3654305192
 H   -1.0765022169    1.1222779543    1.9945089354
 H   -0.3687347018   -1.7417580341    2.9964549214
 H   -3.2701299449    0.1399218452    0.0689414269
 H   -2.0822442035    0.9705980488   -1.0598934182
 H   -1.5056004271   -1.2684936822   -2.0908349875
 H   -2.7038695996   -2.0857238216   -0.9724819118