18

 C   -0.0337909862    1.6207911015    0.1459642439
 C   -0.0570538877    0.1233532237    0.1375940141
 C    1.0502541823   -0.7759977130   -0.3887197013
 C    0.5894765893   -0.9123713012    1.0435585874
 O    1.4005737869   -0.6681697576    2.1298388986
 C   -0.7554016154   -1.6563723150    1.1228813660
 N   -1.3038918383   -0.6454391419    0.1984715970
 C   -2.2742879210   -0.8240999964   -0.7345694575
 O   -3.0582847538   -1.7504093937   -0.7460531826
 H    0.9697821488    1.9743431332    0.3993486756
 H   -0.2983954927    2.0383513237   -0.8314708219
 H   -0.7347132009    2.0139265199    0.8885317188
 H    0.8404489047   -1.5423326642   -1.1305620899
 H    2.0115363090   -0.2811201815   -0.4908185056
 H    2.1068573405   -1.3234132395    2.1413250450
 H   -0.8036734777   -2.6832861257    0.7480271914
 H   -1.2102390612   -1.5981287611    2.1161729375
 H   -2.2974609168    0.0043623689   -1.4719674466