20

 C   -0.0054231797    1.5035698243    0.1799637013
 C    0.1051889256   -0.0156719401    0.0419839553
 C    0.7395051731   -0.4329054296   -1.2919099116
 O    2.0613639555    0.0568580697   -1.3307499861
 C    2.7080192679   -0.0368340192   -2.5995238136
 C    4.1253398868    0.4733993591   -2.3984435098
 O    4.8433397039   -0.3225428542   -1.4797833668
 C    0.7104249391   -1.9056427379   -1.4527772124
 N    0.6890761994   -3.0542720782   -1.5768348842
 H    0.9774227107    1.9738387676    0.1024845493
 H   -0.6471834854    1.9266970961   -0.6006875877
 H   -0.4387785665    1.7693592015    1.1478971765
 H    0.7142794875   -0.4348460166    0.8498054284
 H   -0.8819362329   -0.4846593384    0.1096791471
 H    0.1551733910   -0.0047994130   -2.1233969989
 H    2.7268868439   -1.0818407835   -2.9381255648
 H    2.1723067980    0.5697484987   -3.3461874052
 H    4.6632477066    0.4327888434   -3.3511221047
 H    4.0839584825    1.5271441067   -2.0788191037
 H    4.2889815632   -0.3979215564   -0.6948242584