20

 C   -0.0487185087    1.4294536866   -0.0127322262
 O    0.1050290149    0.0181448006   -0.0151579230
 C    0.6980855076   -0.5595097088    1.1085373805
 C    2.0960925182   -0.0334087884    1.4048521243
 O   -0.1382323626   -0.2869357238    2.2747932907
 C   -0.7883436191   -1.4485846525    2.5385111794
 N   -0.4866191900   -2.4998319859    1.9035394695
 C    0.5934277634   -2.1147495049    0.9733181177
 C    0.3355851778   -2.6380842726   -0.4361529978
 H    0.9092573530    1.9498800963   -0.1388172770
 H   -0.6885913228    1.6673770320   -0.8650108962
 H   -0.5312943421    1.7771050501    0.9069706866
 H    2.0839141258    1.0339051352    1.6370703868
 H    2.5171902721   -0.5597072004    2.2643258552
 H    2.7434012772   -0.1983493984    0.5383870848
 H   -1.5394344176   -1.3753024897    3.3179270668
 H    1.5232451103   -2.5603313051    1.3493488096
 H   -0.5965842969   -2.2359034320   -0.8351650011
 H    1.1483726785   -2.3590301009   -1.1128929581
 H    0.2648173109   -3.7281849173   -0.4043139427