20

 C    0.9464012944    1.3808343425    0.2586369938
 C    0.8899991141    0.2540250315   -0.7397825794
 C   -0.2331436814    0.4226478444    0.2494220521
 C   -0.4403603766   -0.5096869206    1.3792370784
 C    0.0647691619   -1.7353873600    1.5674418367
 C   -0.3698404848   -2.3607347041    2.8776668050
 C   -1.2105381466   -1.2621628215    3.5202254358
 N   -0.4488303193   -0.0275745784    3.8163884279
 C   -1.2664542330   -0.1212462033    2.5703042519
 H    1.6451264743    1.2900496823    1.0822916141
 H    0.7862302207    2.3950568942   -0.0906711044
 H    0.6915101526    0.4936035421   -1.7785694971
 H    1.5732254421   -0.5759333146   -0.6004960870
 H   -1.1529161919    0.8472830526   -0.1489210105
 H    0.7381267143   -2.2413380796    0.8847871195
 H   -0.9583952224   -3.2741974302    2.7168347521
 H    0.4837407485   -2.6379159984    3.5085574702
 H   -2.0462762762   -1.5221726405    4.1608898330
 H   -0.9758679681    0.5062171605    4.5067059424
 H   -2.1293361727    0.5289683011    2.4645303557