21

 O   -0.1845552159    1.4515251074    0.0146743661
 C   -0.0037194662    0.0362860284    0.0281957328
 C    0.6973710341   -0.4970146025    1.3195620328
 C   -0.4347265854   -1.0224767907    2.2354023381
 C   -1.4302441162   -1.6204431754    1.2229804060
 C   -2.9433596918   -1.6949055676    1.5174181998
 C   -3.6212168242   -1.2187620043    0.1970703607
 C   -2.5431571455   -0.3725186521   -0.4545157004
 C   -1.3566719181   -0.6186551199    0.0917848123
 H    0.6837949267    1.8521420373   -0.0974247431
 H    0.5626139806   -0.2700833992   -0.8648184361
 H    1.3666040355   -1.3231733809    1.0506080359
 H    1.3098358415    0.2803773365    1.7861464333
 H   -0.0750247786   -1.7305040293    2.9875060633
 H   -0.9095780626   -0.1852659194    2.7605970509
 H   -1.0517256407   -2.6025441582    0.8963788333
 H   -3.2797948768   -2.6857599086    1.8345888157
 H   -3.1908225395   -0.9913531401    2.3206158694
 H   -3.9019608588   -2.0680373093   -0.4433015857
 H   -4.5446476176   -0.6579584787    0.3801312270
 H   -2.7449983605    0.3472966767   -1.2392525020