18

 C    0.0334801229    1.4236064963   -0.2440396400
 N   -0.1135138696   -0.0178774669   -0.2484943336
 C   -1.2440321841   -0.6416375937    0.1954849881
 O   -2.2245666300   -0.0586278732    0.6241560013
 C   -1.1728133983   -2.0942154267    0.1057012258
 C   -1.1543609605   -3.2993428747    0.0607334580
 C   -1.1501238851   -4.7642560657   -0.0329616418
 C   -2.5666331536   -5.3176220383   -0.2413191458
 O   -0.2450362809   -5.2257012292   -1.0313376359
 H    0.8518211794    1.7394800668    0.4127763548
 H    0.2256538313    1.8055866178   -1.2527043583
 H   -0.9015820707    1.8452717087    0.1257748063
 H    0.6494656766   -0.5957378009   -0.5609210659
 H   -0.7488866792   -5.1658548271    0.9056012338
 H   -2.9978812601   -4.9279903148   -1.1691827395
 H   -2.5230931163   -6.4079864855   -0.3017597823
 H   -3.2228414386   -5.0277945498    0.5838839427
 H   -0.5319007032   -4.8573163433   -1.8747158377