20

 C   -0.1821758023    1.4024449730   -0.1534919360
 O    0.2187999099    0.0607812901    0.0476642723
 C    0.7092590373   -0.5832488468   -1.0972991145
 C    1.2764193521   -1.9366911657   -0.6556533751
 C    2.3991900917   -1.7986355925    0.3660737050
 O    2.9105562689   -3.1008472153    0.6110640746
 C   -0.3978860578   -0.7969506824   -2.1567064864
 N    0.0711173243   -1.0274845006   -3.4198245045
 O   -1.5804156892   -0.7582174581   -1.8898063382
 H    0.6459360141    2.0117430837   -0.5494535777
 H   -1.0385871054    1.4703213951   -0.8331564067
 H   -0.4696753802    1.7950511609    0.8244560116
 H    1.5138680949    0.0218321847   -1.5571468373
 H    0.4659695048   -2.5360664678   -0.2284499903
 H    1.6585503315   -2.4802900921   -1.5266864840
 H    3.1833647630   -1.1320335900   -0.0325723571
 H    2.0068262585   -1.3352788919    1.2797660742
 H    3.5153771342   -3.0497653832    1.3565339476
 H    1.0496477075   -1.1572031772   -3.6103592709
 H   -0.5919092376   -1.3013178137   -4.1269918264