18

 O    0.0462648235    0.0035298082    0.3209549594
 C    0.0295350997    1.1809164807    0.0304224537
 N   -1.1042580237    1.9479834168   -0.1868158233
 C   -0.8689113135    3.3900498424   -0.2974376898
 C    0.6173495101    3.4325658618   -0.7170114447
 C    1.6060749107    4.4792705479   -0.1656957166
 C    2.9124678576    3.6597383890    0.0721516790
 C    2.3976380258    2.2503196761    0.3012645066
 C    1.1460236939    2.1448594627   -0.1384338557
 H   -2.0050897003    1.5649241198    0.0557593653
 H   -1.5428649921    3.8411205930   -1.0317676174
 H   -1.0217786364    3.9004497146    0.6654252824
 H    0.6655277925    3.3964356255   -1.8147421717
 H    1.7555214423    5.3361072053   -0.8275965313
 H    1.2418512552    4.8600273766    0.7955105951
 H    3.5747681932    3.6984067744   -0.8051129386
 H    3.4999167680    4.0366092469    0.9159707628
 H    2.9703409036    1.4664843483    0.7823820848