17

 C   -0.5243116792    1.1845183922   -0.1580512758
 C    0.0894357419   -0.2081460139   -0.0950892062
 C    1.4335491094   -0.4098470562   -0.7956468192
 O    1.9015340158   -0.2463078844   -1.8743440051
 O    2.0793486152   -0.8786376713    0.3316156562
 C    0.8645868762   -0.6935638816    1.1548253704
 C    1.1225715909    0.2621157551    2.3057078359
 C    0.4510018738   -2.0638131418    1.6739805073
 O   -0.6596087341   -2.5137657733    1.5800541037
 H    0.1800637644    1.9623779764    0.1482698596
 H   -0.8314409501    1.4014888628   -1.1847973787
 H   -1.4098714147    1.2479585513    0.4807354564
 H   -0.6394991883   -0.9602573414   -0.4101588816
 H    1.5551094128    1.1961999594    1.9396990124
 H    0.1898147674    0.4854173294    2.8324496682
 H    1.8255649224   -0.1795228430    3.0190438608
 H    1.2790077263   -2.6243648097    2.1608034956