19

 C    0.1267718534    1.5522481154    0.2051767093
 C    0.0572852275    0.0542773473    0.1193418398
 C   -1.2558121527   -0.7371769028   -0.0304740122
 C   -0.6897276028   -1.8395334352    0.9178723331
 C    0.6161199410   -1.0497185510    1.0181768721
 C    1.1921966628   -0.8364771100   -0.3751771412
 O    0.9465986410   -1.7192674385   -1.4356823800
 C    2.5576939174   -0.2399212899   -0.4167116873
 O    3.0528323704    0.4523595619    0.4418545405
 H    1.1275935012    1.8965020611    0.4711970867
 H   -0.1568981451    2.0102054354   -0.7499042863
 H   -0.5711354186    1.9183286654    0.9664112835
 H   -2.0999823067   -0.2006104927    0.4086899519
 H   -1.5118852891   -1.0475104837   -1.0448883317
 H   -1.2207934393   -1.8828020801    1.8708876461
 H   -0.6172685102   -2.8519086686    0.5103705512
 H    1.2757653797   -0.9633861790    1.8743407619
 H    1.3286830660   -2.5760804143   -1.2164507978
 H    3.1098347842   -0.5093326108   -1.3446598596