14

 C   -0.0309314982    1.3889011221    0.0640022987
 N   -0.0610535133   -0.0577725497    0.2352394998
 C   -1.1235989443   -0.6807441341    0.0266055767
 O   -2.3820170420   -0.2560969057   -0.3635999212
 C   -2.8407830768   -1.6398058945   -0.5083762311
 C   -1.4882005738   -2.1546020863    0.0226847312
 O   -0.7782068780   -2.9707552746   -0.8730182427
 H    0.8218208470    1.6541318548   -0.5693479357
 H   -0.9446674378    1.8034497292   -0.3770023648
 H    0.1335873771    1.8633224374    1.0379576779
 H   -3.7240348438   -1.8261550811    0.1053565025
 H   -3.0223100679   -1.8893379693   -1.5557802767
 H   -1.5442911068   -2.5960493589    1.0269018750
 H    0.1575021385   -2.7675940193   -0.7592163398