18

 C   -0.0759772095    1.5740465134    0.0932882534
 C    0.0363447649    0.0718811416   -0.0239474309
 O   -1.0837452708   -0.6238220748    0.4556606589
 C    0.6537063388   -0.6350429404   -1.1867443522
 C    1.5867674655    0.1495525447   -2.0898229107
 O    2.6391245860    0.6625747114   -1.2521524137
 C    2.6150133047    0.0804648171   -0.0052409987
 N    3.5368945355    0.1956752953    0.8510152841
 C    1.3551053734   -0.6841419673    0.1624226925
 H    0.7949134187    2.0888832511   -0.3163648236
 H   -0.9714251874    1.9214330706   -0.4317062912
 H   -0.1657425451    1.8662724941    1.1461552998
 H   -1.1667655589   -0.4369672105    1.3978676007
 H    0.1359071652   -1.4982029091   -1.5855947867
 H    2.0291990757   -0.4999762809   -2.8538551834
 H    1.1124815182    1.0008214041   -2.5887857929
 H    4.3119445631    0.7392516968    0.4674269400
 H    1.3561594121   -1.5525564772    0.8060710347