20

 C   -0.0938786806    1.5223696741   -0.0894696878
 C    0.0218292513    0.0196960906    0.0365939846
 C    1.3298505286   -0.6952896688   -0.1898977892
 C    0.7190439531   -0.6548166329    1.1996881871
 C    1.3690143125    0.1502357367    2.3105175420
 C    2.1282226251   -0.8130730232    3.2181270197
 O    1.2667725383   -1.8572892788    3.6932360564
 C    0.3827931889   -2.3312254139    2.7801829017
 N    0.1000593456   -1.8795796850    1.6316550300
 H    0.8170650687    2.0346617256    0.2343638988
 H   -0.2729662616    1.8081090443   -1.1319584081
 H   -0.9258061771    1.9122377064    0.5077579245
 H   -0.8544272275   -0.5308271018   -0.2933937908
 H    1.3191885917   -1.6454542213   -0.7102329275
 H    2.2168754295   -0.0909098456   -0.3584490592
 H    2.0565778804    0.9088688065    1.9266722284
 H    0.6030135692    0.6678257640    2.9014319404
 H    2.9641576554   -1.2733550908    2.6754894491
 H    2.5216173773   -0.3224390070    4.1112252541
 H   -0.1101351288   -3.2211248292    3.1659275157