20

 C   -0.0272773171    1.4622165536   -0.0251693063
 N   -0.0188015010    0.0100181438    0.0143326735
 C   -1.3692322538   -0.5889142551    0.0053947768
 C   -1.2331698513   -1.7866179295    0.9385269535
 O   -0.1969303824   -2.6557016597    0.3822297456
 C    0.7544294666   -2.0607352888    1.2741213566
 C    1.9664528800   -2.8547560498    1.6287610181
 C   -0.2935422234   -1.3268791678    2.0770301945
 C    0.6495273202   -0.5471162989    1.1804898461
 H    0.9994994269    1.8409921838   -0.0419443468
 H   -0.5183160407    1.7981000683   -0.9441728584
 H   -0.5544412141    1.9284142125    0.8293968359
 H   -2.1308789998    0.1094179619    0.3952506705
 H   -1.6606362175   -0.8959440654   -1.0045123129
 H   -2.1509787179   -2.3295849323    1.1653076622
 H    2.5725402515   -3.0458892084    0.7363591282
 H    2.5837198889   -2.3101126882    2.3494705580
 H    1.6878484865   -3.8185859141    2.0670043152
 H   -0.4952364024   -1.2250799901    3.1351351957
 H    1.4559930708    0.0417571542    1.6022497941