18

 C   -0.1115227751    1.5344588503    0.0213203266
 C   -0.0928868490    0.0297325137    0.0282871785
 C    0.3263671797   -0.7903420875   -1.2291941310
 C   -0.5670048762   -1.9080878527   -0.7013259281
 C   -0.4283388486   -1.8909074597    0.8526770914
 C    0.5494637703   -0.7732919769    1.2001495466
 C   -1.3610853145   -0.9551772517    0.1547679730
 O   -2.6998133739   -0.7504593950    0.3691378990
 H    0.9047899572    1.9393704817   -0.0594123221
 H   -0.6894000868    1.9259534173   -0.8238411578
 H   -0.5552467759    1.9311394747    0.9408912876
 H   -0.0718071890   -0.3544046572   -2.1512742245
 H    1.3979073694   -0.9874103275   -1.3527430322
 H   -0.9068659128   -2.8053773969   -1.2027601171
 H   -0.6882551745   -2.7714788395    1.4257539935
 H    1.6261786668   -0.9706059683    1.1341495327
 H    0.3166491391   -0.3268071669    2.1715460150
 H   -3.1057922961   -0.4768235380   -0.4612073112