21

 C   -0.1030542355    1.5868397003   -0.0258957884
 C    0.0430015429    0.0658260703    0.0089237052
 C    0.7861611819   -0.5457371272   -1.1672519799
 O    2.2250824633   -0.4864211091   -1.0316207776
 C    1.5365338304   -1.7167695555   -0.7082734542
 C    1.3068882548   -1.9065921385    0.7820007419
 C    2.4948604571   -2.4674371932    1.5631545419
 C    0.8304691330   -0.4913643945    1.2357972432
 O    1.9069057491    0.3469044055    1.6147430409
 H    0.8730797066    2.0762062381   -0.0446438301
 H   -0.6648964563    1.9032454479   -0.9109762597
 H   -0.6357389036    1.9479246875    0.8589959631
 H   -0.9588705339   -0.3885490473    0.0164664603
 H    0.4221198500   -0.4351693559   -2.1859456864
 H    1.7813180860   -2.5563345276   -1.3545701566
 H    0.4562995804   -2.5970582864    0.8820845973
 H    3.3654975671   -1.8134348276    1.4798367991
 H    2.2535280077   -2.5609704543    2.6262531790
 H    2.7714088814   -3.4594619344    1.1909256111
 H    0.1883938420   -0.5567703454    2.1186401387
 H    2.4756754556    0.4055764874    0.8346066312