19

 C   -0.0790387958    1.5387371750   -0.0020152660
 C    1.4729844651    1.5259950832   -0.0713088253
 C    1.4336014372    0.0983746353    0.5394850952
 C   -0.0502258438   -0.0116758367    0.0935297663
 N    2.3921108731   -0.8971022363    0.1101147362
 C    3.2265650730   -1.6361753424    0.9244394476
 C    3.9496998330   -2.4432536283    0.0881309168
 N    3.5893126703   -2.2255243600   -1.2211469012
 C    2.6592199120   -1.2985583750   -1.1693526448
 H   -0.4426411212    1.9978697009    0.9210224295
 H   -0.6148018163    1.9791944972   -0.8441009527
 H    1.8285539778    1.5000443288   -1.1047488575
 H    2.0303433041    2.2911500498    0.4731288585
 H    1.4983581029    0.1509757857    1.6284858038
 H   -0.7444606868   -0.5099936435    0.7734129342
 H   -0.1291777942   -0.4762708073   -0.8928867308
 H    3.2173370433   -1.5121000561    1.9950363066
 H    4.7070179770   -3.1658354141    0.3519136083
 H    2.1448199594   -0.8799823161   -2.0212284347