18

 C    0.1729544733    1.4916570819    0.1165999305
 O    0.1133809076    0.0840744139    0.2622879507
 C    0.5440632284   -0.6264220445   -0.8827758795
 C    0.8160356679   -2.0712766991   -0.4373897588
 N    1.7903296030   -2.1063941110    0.6319668622
 C    2.9706721483   -2.7776021601    0.5397529452
 O    3.3185604438   -3.4572597035   -0.4015567360
 C   -0.5339140511   -0.6216309132   -1.9659148041
 O   -0.3192435505   -0.8114265643   -3.1328135045
 H    1.2010309415    1.8307912956   -0.0763401350
 H   -0.4682022059    1.8501895292   -0.7015420833
 H   -0.1787300004    1.9266637216    1.0543869650
 H    1.4671092314   -0.1958010654   -1.2980552375
 H   -0.1257561707   -2.5294543096   -0.1097928195
 H    1.2155992668   -2.6514477283   -1.2707161563
 H    1.6159141519   -1.5187183576    1.4317612004
 H    3.5900900914   -2.6369797449    1.4474485078
 H   -1.5611674468   -0.4562290105   -1.5650371575