16

 O   -0.0128843163    0.0208250598   -0.4042105737
 C   -0.0580924070    1.1416495030    0.0132081835
 C   -1.3534001906    1.9548289055    0.0884939171
 N   -1.4467866672    2.8469357952   -1.0652637237
 C   -0.9665051068    4.0090576204   -0.9876403162
 O   -0.3722042469    4.5938672628    0.1005892012
 C    0.9849392591    4.2377869912    0.3882764239
 C    1.1505861000    2.9415967595    1.1697961243
 O    1.1027570720    1.7528171780    0.3792753477
 H   -2.1654589446    1.2305728377    0.0257410636
 H   -1.4269277080    2.5010815546    1.0365856201
 H   -1.0684078340    4.6889838931   -1.8348698919
 H    1.5713412926    4.1889264364   -0.5373533228
 H    1.3709296418    5.0584739435    1.0006345920
 H    2.1564428440    2.9365860819    1.6013508796
 H    0.4325419917    2.8998336075    1.9956747452