21

 O   -0.0331076583    1.3582245226   -0.3421488632
 C    0.0265272833   -0.0230145791    0.0025550437
 C    0.7724966643   -0.2388883869    1.3396278235
 C   -0.0004411498   -0.0677221556    2.6294542154
 C   -1.2667724084   -0.4226212265    2.8600227204
 C   -2.2277946068   -0.9915237847    1.8487777561
 C   -1.5760353549   -1.9279682005    0.7845035881
 C   -1.3641779531   -0.6818266408   -0.1237225586
 C   -2.4983107556    0.0122795639    0.6846503138
 H   -0.5215450632    1.8099077418    0.3544088334
 H    0.6644328651   -0.4573360580   -0.7762342396
 H    1.2237120187   -1.2411505628    1.3312973363
 H    1.6182989822    0.4565732862    1.3278836486
 H    0.5689490665    0.3484878490    3.4578297525
 H   -1.6702850275   -0.2544973738    3.8561522485
 H   -3.1117903712   -1.3876352971    2.3538633289
 H   -0.7037853707   -2.5120899285    1.0852920523
 H   -2.3193689736   -2.6071991386    0.3583486869
 H   -1.5788051264   -0.8145189657   -1.1870551748
 H   -3.4707910648   -0.1585938779    0.2143586733
 H   -2.4115657457    1.0772788829    0.9164336543