21

 C   -0.0310878421    1.5979676399   -0.0293660620
 N   -0.0093065386    0.1579593767    0.0840365882
 C   -1.2505350234   -0.5646734306    0.3602321106
 C   -0.4361524726   -1.6067152071    1.1826663114
 C   -0.1669811915   -2.8562206817    0.4940521666
 N    0.0454801085   -3.8558179706   -0.0473851509
 C    0.7294149728   -0.5383514132    1.1744959260
 C    2.1171581429   -1.0028894998    0.7531613915
 C    0.7747137174    0.2090461278    2.5141007900
 H    0.9878792500    1.9780024121   -0.1552345737
 H   -0.5985675777    1.8795178469   -0.9230587068
 H   -0.4879036857    2.1127425982    0.8348920022
 H   -1.9655644712   -0.0217736158    1.0001084026
 H   -1.7786014054   -0.9350354847   -0.5236903631
 H   -0.8335923340   -1.8258687168    2.1753842056
 H    2.0740414667   -1.5568744852   -0.1864457262
 H    2.7728984525   -0.1368142169    0.6108969196
 H    2.5694339551   -1.6427351806    1.5182697506
 H    1.1753125127   -0.4420833016    3.2976337252
 H    1.4248144907    1.0870974050    2.4478057065
 H   -0.2174281372    0.5462826881    2.8309024361