18

 C   -0.5809355356    1.7557605902   -0.1695416245
 C   -0.1464748488    0.3348490630    0.2305128158
 C   -1.2544707730   -0.6762930725    0.0216392214
 N   -1.5268404329   -1.2572987512   -1.0959267340
 O   -0.6609283788   -0.8394901295   -2.1110856099
 C   -2.0886521798   -1.0026071733    1.1288573375
 C   -2.7468821010   -1.2199649803    2.1160001437
 C   -3.5753999709   -1.5164904297    3.2761136004
 O   -3.0110193309   -0.9143430124    4.4335511014
 H    0.2348466544    2.4647360076    0.0001214805
 H   -0.8524009433    1.7901226130   -1.2274028539
 H   -1.4429642164    2.0835274391    0.4191943342
 H    0.7144925514    0.0305305681   -0.3705325382
 H    0.1478443561    0.3158380408    1.2830942837
 H   -0.9614202452   -1.3652451954   -2.8599729083
 H   -4.5970330657   -1.1461613543    3.0887656535
 H   -3.6511525289   -2.6107248007    3.3883580367
 H   -3.5834615506   -1.1300152726    5.1768472900