19

 O    0.3541503985   -1.1831473066    1.5863249113
 C    0.1016376266   -0.4319195605    0.4095552717
 C   -1.3628442381   -0.5040432062    0.0075660005
 C   -2.3110090976    0.2479698728    0.9394188914
 C   -2.1896928045    1.6990288698    0.8311708979
 C   -2.0728503003    2.8909283450    0.7268714327
 C   -1.6943739060   -0.6161795662   -1.4672349352
 C   -1.8331017147   -1.8131190228   -0.5576716881
 O   -0.8859698608   -2.8479186157   -0.5892524723
 H    0.2065748428   -2.1056120191    1.3457948073
 H    0.3688714795    0.6047718722    0.6383768218
 H    0.7360616979   -0.7680596920   -0.4201238085
 H   -3.3486788311   -0.0446253483    0.7360254203
 H   -2.0928731031   -0.0648332429    1.9684764005
 H   -1.9767942210    3.9450384640    0.6449794135
 H   -2.5977559424   -0.1437437386   -1.8388939983
 H   -0.8606954181   -0.6108651085   -2.1620453628
 H   -2.8424168695   -2.1385957634   -0.3047596612
 H   -0.9990724084   -3.3475036630   -1.4041923825