21

 C   -0.0723420883    1.4989335218    0.1974794581
 C    0.0319180161   -0.0295123297   -0.0015964139
 C    0.7591477733   -0.3883419861   -1.2986650604
 C    0.7353116075   -0.6398469546    1.2090508686
 O    1.8896049339   -1.0153840510    1.1642236258
 C   -0.0384477723   -0.7405811047    2.4985363198
 O   -1.3725992305   -0.3110120952    2.4960238038
 C    0.3593164328   -1.8565837391    3.4506623965
 C    0.7317982038   -0.4413212788    3.7684523341
 H    0.9248472055    1.9466231868    0.2635034357
 H   -0.5888123078    1.9516002028   -0.6545932289
 H   -0.6285568276    1.7436252662    1.1047778951
 H   -0.9920830203   -0.4226842091   -0.0271002144
 H    1.7904794673   -0.0275963067   -1.2736954024
 H    0.7958700361   -1.4709259080   -1.4500681402
 H    0.2513986893    0.0627625619   -2.1567446427
 H   -1.9223606227   -1.0274561248    2.1609534352
 H   -0.4507402702   -2.3053591752    4.0147627180
 H    1.1411784315   -2.5247358070    3.1100502675
 H    1.7676786279   -0.1492416304    3.6465776676
 H    0.1692703247    0.0741618308    4.5377140272