15

 C   -0.0210614817    1.5270086187    0.0615785542
 C    1.5149641809    1.3734928208    0.0054161749
 C    1.8544932377    0.6158669100    1.3029756745
 O    2.8795627961   -0.3501596202    0.9519578341
 C    1.8482945081   -1.0103845039    0.2073939856
 C    1.2392615518    0.0412426326   -0.7766697608
 N   -0.1075924581    0.0281230558   -0.0487606937
 C    0.7160144664   -0.4693817231    1.1047660278
 H   -0.4749571886    1.9605365288    0.9598734829
 H   -0.4555034411    1.9899610832   -0.8285412789
 H    2.2013713318    2.1536926032   -0.3218210283
 H    2.0574266914    1.1638210701    2.2211299612
 H    2.0614006641   -2.0356684373   -0.0861497915
 H    1.2533748703   -0.0065945145   -1.8635027862
 H    0.2324237210   -0.9625399142    1.9449823739