15

 N    0.0119048736    1.4227884250    0.1453199178
 C   -0.0106732078    0.0096472255    0.0294196002
 C   -1.1435489707   -0.7770182405    0.0591578938
 N   -1.1162324580   -2.1186820678    0.0022007937
 C    0.0950121930   -2.6535728855   -0.1104767117
 O    0.1666635935   -3.9950383525   -0.1968158030
 N    1.2654783914   -2.0219215559   -0.1390125952
 C    1.2153157926   -0.6945156418   -0.0569790518
 N    2.3941849157    0.0047692689   -0.0985806095
 H    0.4101005876    1.8625330502   -0.6800698680
 H   -0.9173732250    1.8022474606    0.2860543745
 H   -2.1273703634   -0.3162531570    0.1405773673
 H   -0.7471761296   -4.3066555340   -0.1556732433
 H    3.2179725807   -0.5578465203    0.0557511011
 H    2.3799514265    0.8979688951    0.3734117841