17

 O    0.0996531549    1.4165748574   -0.1774464678
 C    0.0671872703    0.0199778685    0.0697155071
 C   -1.3289705455   -0.5255643332    0.0943879901
 C   -2.3462145255   -0.3556663589    1.2216500680
 O   -2.8981012951   -1.6795567304    0.9622684964
 C   -1.8996186321   -1.9070530711   -0.0285742386
 C   -2.0562261620   -0.9599351356   -1.1999088783
 C   -3.3708559640   -0.4408344063   -1.6481468049
 O   -3.5871846039   -0.0721256717   -2.7790457192
 H   -0.2996351174    1.5717450110   -1.0406006453
 H    0.6711068171   -0.5401878120   -0.6612586243
 H    0.5368014835   -0.1146881588    1.0507288912
 H   -1.8705006580   -0.3304665998    2.2082213321
 H   -3.0949135520    0.4383074913    1.1503865594
 H   -1.4594626020   -2.8949999124   -0.1025350678
 H   -1.3593149521   -1.1392805195   -2.0151779070
 H   -4.1644490962   -0.4240683484   -0.8750281212