13

 O   -0.1180871084    1.4434996762    0.0443712705
 C   -0.0336196311    0.0654426632    0.0441641019
 C   -0.3835638391   -0.7994949538    1.2583352050
 C   -1.5831073730   -0.1800379166    1.9302085390
 O   -1.9104795541    0.1250305616    3.0278695074
 O   -2.3266964306   -0.0714674351    0.7659958454
 C   -1.2831757693   -0.7499850498    0.0078641384
 C   -1.6522456436   -1.7364356438   -0.9391604947
 C   -1.9508398220   -2.5661276667   -1.7559310582
 H    0.5770320390    1.7961950762    0.6112355080
 H    0.7777661581   -0.3643789571   -0.5463175188
 H    0.2547042380   -1.5786046536    1.6496063927
 H   -2.2229721438   -3.2986393906   -2.4757306666