15

 O    0.0044139308   -0.0200265066    0.0590745548
 C   -0.0136371193    1.1671933360   -0.0022989317
 C   -1.0530076046    2.3122865929    0.0288166940
 N   -0.0269090203    2.9382392555    0.9452452872
 C    0.9925010912    2.3419973664    0.0019351748
 C    0.7032119455    3.0079665558   -1.3655239088
 C   -0.0604995765    2.2196349156   -2.4052118740
 C   -0.8192089552    2.9858498764   -1.3455185019
 H   -2.0698418651    2.2007627523    0.4000286490
 H   -0.0425549187    3.9575503293    0.8812785551
 H    2.0215469348    2.2601899115    0.3462603763
 H    1.2804986233    3.8769709070   -1.6596553448
 H   -0.0797261134    2.6366012202   -3.4074634614
 H   -0.0444897692    1.1347343249   -2.3862884706
 H   -1.4290180532    3.8376085127   -1.6240534881