16

 C    0.0575192726   -1.1185638395    0.0045795798
 C    0.0073188386    0.0851444889   -0.0125883681
 C   -0.0678849166    1.4969777510   -0.0397108528
 C    0.1306999543    2.5186708456    1.0902074428
 C    1.1542994347    2.4553745831    0.0061281035
 N    0.6789324477    3.6619115675   -0.7248765370
 C   -0.1271801682    3.1160078132   -1.8826317919
 C   -1.0248709723    2.4243996784   -0.8427606671
 C   -0.5754419076    3.5326646119    0.1659775583
 H    0.1007495268   -2.1789929395    0.0216016886
 H    0.1947161395    2.3827787045    2.1605809697
 H    2.1782484014    2.1066675275    0.0018957729
 H   -0.6210174396    3.9449192222   -2.3982028770
 H    0.4327823568    2.5047693419   -2.5959576835
 H   -2.0488888874    2.0950966269   -1.0109006380
 H   -1.1266304906    4.4311734963    0.4328844898