22

 C   -0.0304408280    1.4698134668    0.1448186847
 C    0.0708003273   -0.0252796656   -0.0317574897
 C   -0.0122674822   -0.5938956157   -1.2407588974
 C    0.1069478530   -2.0691027467   -1.5531889040
 C   -0.9254403025   -3.0121422092   -0.8727004871
 C   -1.5823673387   -2.5138097732    0.4282308601
 C   -0.6380494251   -2.0028289731    1.5037573138
 N    0.8067016015   -2.1319463022    1.2739494453
 C    0.1928175876   -0.7841197022    1.2490231389
 H    0.8750575747    1.8765553369    0.6144774741
 H   -0.1728500955    1.9779247331   -0.8120590531
 H   -0.8679575763    1.7414409351    0.8010163745
 H   -0.1403010768    0.0715522562   -2.0922262080
 H    0.0336023617   -2.2029164049   -2.6373996969
 H    1.1085762305   -2.3979184830   -1.2666837055
 H   -1.7403168390   -3.2253295554   -1.5746932757
 H   -0.4321317716   -3.9696413995   -0.6770693697
 H   -2.2865156200   -1.7061224453    0.1900407586
 H   -2.1864028621   -3.3310887689    0.8399881885
 H   -0.9916520782   -2.1302544829    2.5254786010
 H    1.2985445828   -2.2619576696    2.1533000810
 H    0.3876251070   -0.1561917706    2.1163259664