19

 C   -0.1215487347    1.5592649418    0.1316250376
 C    0.0842070680    0.0432956387    0.0078321694
 C    0.7593232965   -0.3750312901   -1.2647678453
 N    1.4873243574   -1.6636749699   -1.3937538615
 C    2.1765338176   -0.3740130009   -1.6839229962
 C    1.7899327680    0.0866569077   -3.1183837464
 C    0.8220395871   -0.8556710526   -3.7826632594
 C    0.3252982307    0.0709635745   -2.7035666921
 H    0.8342204955    2.0906642594    0.0841311544
 H   -0.7576406067    1.9442800010   -0.6711730968
 H   -0.6018021164    1.8088188973    1.0824863082
 H    0.6858920578   -0.3126525963    0.8548312254
 H   -0.8864891967   -0.4661010161    0.0866688556
 H    1.7669593854   -1.9390821023   -0.4522307999
 H    3.0722409006   -0.0901983342   -1.1453829117
 H    2.3259426751    0.8593595759   -3.6537108842
 H    0.5321172118   -0.5630415082   -4.7875127263
 H    0.8838218587   -1.9219987691   -3.6094679927
 H   -0.4269126358    0.8279346232   -2.8835433082