19

 C   -0.0925381350    1.5647984657    0.0314206136
 C    0.0103500422    0.0334803583   -0.0067166597
 C   -1.3954585254   -0.5969626294    0.0003365356
 C    0.8546790813   -0.4824482047   -1.2000443439
 C    1.9102635071   -1.4100077506   -0.6100758382
 O    2.7160675316   -2.0963772271   -1.1870240756
 N    1.7919560039   -1.3118096552    0.7698950381
 C    0.7749954367   -0.4769568667    1.2230521024
 N    0.4676836448   -0.1694079985    2.4146808224
 H    0.8985024406    2.0297896566    0.0172713233
 H   -0.6529019669    1.9308628597   -0.8351360216
 H   -0.6018446287    1.8865097352    0.9426011182
 H   -1.9677061748   -0.2557909767   -0.8686102505
 H   -1.3423514089   -1.6902243708   -0.0369972551
 H   -1.9318759502   -0.3141227749    0.9091841630
 H    0.2692251590   -1.0247906087   -1.9465621126
 H    1.3712019269    0.3264575675   -1.7267017326
 H    2.4156031726   -1.8198355036    1.3808366780
 H    1.0773831931   -0.6148901861    3.1019506052