17

 C    0.3240117233    1.4804701544   -0.2070264376
 C    0.0720429786   -0.0084827582   -0.0596332539
 O    0.9410878493   -0.8355800139   -0.8999959539
 C    1.3835319788   -1.6082435641    0.2333189057
 C    2.6243680362   -1.0192447570    0.9176459019
 O    1.7953771709   -0.1578558639    1.7461435221
 C    0.5891764920   -0.7232708339    1.2124193278
 C   -1.3695721340   -0.3587073232   -0.3945877276
 O   -2.2582019442   -0.4084506818    0.4158512253
 H    1.3347345758    1.7160906733    0.1324727666
 H    0.2145668707    1.7830401153   -1.2529569937
 H   -0.3920946807    2.0450344439    0.3981495450
 H    1.2992937434   -2.6845091075    0.0795393666
 H    3.1920684819   -1.7254978082    1.5353302074
 H    3.2990691113   -0.4604873543    0.2614564643
 H   -0.1371680937   -1.0151637643    1.9702832154
 H   -1.5291961495   -0.5819166466   -1.4732628414