16

 C   -0.0180282438    1.5554776309   -0.0197517655
 C   -0.0063444232    0.0590131157    0.0233323190
 C   -0.0285014686   -0.7988776781   -1.0636768520
 N   -0.0082732986   -2.1237605207   -0.6544348921
 C    0.0273713345   -2.1274215385    0.7154172320
 C    0.0292541197   -0.8120432445    1.1501899810
 N    0.0660757479   -0.9254830104    2.5288620496
 C    0.0829059414   -2.2754456875    2.8069613717
 N    0.0603200659   -3.0387851423    1.7288534574
 H    0.8741926055    1.9877262967    0.4504211120
 H   -0.0494383469    1.9143516232   -1.0525149799
 H   -0.8885790829    1.9752900028    0.4997029057
 H   -0.0576963565   -0.5537079414   -2.1140555360
 H   -0.0184145551   -2.9257176445   -1.2580629316
 H    0.0783583935   -0.1874587849    3.2103984757
 H    0.1119725769   -2.6394206465    3.8230637528