17

 C   -0.1453104700    1.5102398111   -0.4214392466
 C   -0.0218184341    0.0398487672   -0.1055625992
 C    0.9622762740   -0.8063517448   -0.7904399038
 O    1.1758438243   -0.3632856974    0.5561585488
 C   -1.2862372274   -0.6566086414    0.4489523772
 C   -1.7701784582   -0.0070948995    1.6723584596
 C   -2.1495793051    0.5257839596    2.6791150483
 C   -2.3331286513   -0.7353140503   -0.5755932552
 C   -3.1698116237   -0.8013036252   -1.4344845211
 H    0.8018118930    1.8932565207   -0.8074691940
 H   -0.9278456658    1.6768678640   -1.1675308786
 H   -0.4076687410    2.0710091775    0.4801342979
 H    0.7780080007   -1.8733535908   -0.9088829280
 H    1.6195204880   -0.3646477059   -1.5375257074
 H   -0.9769007737   -1.6776003273    0.7101337955
 H   -2.4898966463    0.9913931352    3.5709801135
 H   -3.9181919633   -0.8616300027   -2.1857287468