18

 O   -0.2042893763    1.4388384533    0.1044886780
 C   -0.0310203182    0.0461672329    0.0254100784
 C    0.3502855831   -0.6729057182    1.3708806453
 C   -1.1008938536   -1.1264311783    1.4830357837
 N   -1.7079936218   -2.1963013880    2.2513235883
 C   -2.9986463829   -1.4447446526    2.3534534193
 C   -2.2908910672   -0.1831319526    1.7930993115
 O   -2.5507158935    0.0880564486    0.4009695189
 C   -1.4158190568   -0.7000510947    0.0181896307
 H    0.6598127534    1.8333209489    0.2600459598
 H    0.6096598221   -0.2379676540   -0.8203086673
 H    1.0404363005   -1.5070029078    1.2049013000
 H    0.7437505051   -0.0397925942    2.1718708249
 H   -1.7487420668   -3.1086832916    1.8077587185
 H   -3.8022378990   -1.7850518828    1.6912090201
 H   -3.3729088345   -1.3841337811    3.3809051432
 H   -2.2497995291    0.7185077852    2.4054303863
 H   -1.6108035148   -1.3585152629   -0.8324614095