23

 C   -0.0342684913    1.5549798632   -0.1346905966
 C    0.0467441788    0.0227854640   -0.0827194163
 C    0.8500890033   -0.5156127353   -1.2753259183
 C    0.6658331909   -0.4914661266    1.2318177674
 C   -0.0928502694   -0.1288726018    2.5313547328
 C   -1.5112807828   -0.7456731546    2.5922773288
 O   -2.1892399669   -0.4295717700    3.7878043665
 C    0.6613154651   -0.5641999098    3.7068891804
 C    1.2430325796   -0.9607056665    4.6831578624
 H    0.9607671501    2.0018079782   -0.0195709115
 H   -0.4382747247    1.8897218769   -1.0955833421
 H   -0.6769276386    1.9660699312    0.6497493280
 H   -0.9732783564   -0.3748495920   -0.1690345141
 H    1.8837909450   -0.1503904251   -1.2484874208
 H    0.8842341067   -1.6101069014   -1.2735652235
 H    0.4094296570   -0.1943368700   -2.2246400692
 H    0.7581798133   -1.5837766854    1.1844511437
 H    1.6890460279   -0.1044670646    1.3140550567
 H   -0.2108820327    0.9601152085    2.5949531798
 H   -2.1226233863   -0.3412423321    1.7810642143
 H   -1.4295816066   -1.8345959860    2.4422038523
 H   -1.6214150164   -0.7109576402    4.5157883886
 H    1.7800017245   -1.2906404505    5.5380679707