21

 C   -0.0379530970    1.5551638457   -0.2047640239
 C   -0.0024924059    0.0560932692   -0.0258254930
 C   -1.1188460585   -0.6872520812   -0.0986715692
 C   -1.1851569227   -2.1924610773   -0.0714865055
 O   -1.3590166050   -2.7506749952    1.2339947879
 C   -0.1709406258   -3.0925295467    1.9048159203
 C    0.7389916115   -1.8942364824    2.2697612137
 C    1.6433324600   -1.3943790975    1.1744973339
 C    1.3249630502   -0.5294753778    0.2019076484
 H    0.6169333307    1.8617768001   -1.0304195106
 H   -1.0480101903    1.9121487693   -0.4211903895
 H    0.3277716615    2.0720491067    0.6904673819
 H   -2.0689094937   -0.1738338152   -0.2341946990
 H   -2.0599951471   -2.5215484122   -0.6423986747
 H   -0.2904556861   -2.6217455967   -0.5421630309
 H   -0.5013166961   -3.5753267440    2.8300706715
 H    0.4056562328   -3.8324877822    1.3252146214
 H    0.0800013232   -1.0922664068    2.6199799760
 H    1.3594815601   -2.2019269632    3.1192359654
 H    2.6703262082   -1.7539626241    1.2085953697
 H    2.1204545302   -0.1799084983   -0.4563284240