18

 C    0.1351852719    1.4506011391    0.0167137703
 C   -0.0529055524   -0.0232537765   -0.0066408597
 C   -1.1587664430   -0.8222901707   -0.0305234442
 N   -2.5278098456   -0.4915618427   -0.0001777062
 C   -0.6845077317   -2.1801171948   -0.0082638309
 N   -1.5104457576   -3.3128306876   -0.0931455006
 C    0.6736123905   -2.1169926166    0.0280634454
 N    1.6166606222   -3.1480688990    0.0430717045
 O    1.0785367159   -0.7983959801    0.0265130156
 H    0.8934261271    1.7637169547   -0.7098782793
 H   -0.8001490310    1.9582699781   -0.2393833910
 H    0.4519308715    1.8223788867    1.0001345331
 H   -2.6918092156    0.4972049136   -0.1446852657
 H   -3.0429759198   -1.0118080989   -0.7035581312
 H   -2.2546389363   -3.2816453397    0.5964685561
 H   -0.9661881381   -4.1577150784    0.0430723636
 H    2.1867495295   -3.1721076619   -0.7981074379
 H    2.2467705925   -3.0826227354    0.8371525981