20

 C   -0.1469848428    1.5964290609    0.0559863862
 C   -0.0046127048    0.0908765959   -0.0302649307
 C    0.6147226093   -0.6903066894   -1.1559674558
 C    1.3583827310   -0.1093984966   -2.3233025840
 O    1.4117953564    1.3033192483   -2.5474075643
 C    2.6092690187    0.6467299267   -2.1124681166
 C    3.0602524518    0.9518886232   -0.6969785999
 C    2.5393320300   -0.0681657930    0.3555597367
 N    1.2216482061   -0.6723763585    0.1861535547
 H    0.5535758565    2.1375039321   -0.5732251896
 H   -1.1567129870    1.8764081980   -0.2634480774
 H   -0.0353546892    1.9228435983    1.0967072070
 H   -0.8489486144   -0.4155087926    0.4410597416
 H    0.1563521228   -1.6464334762   -1.4071685060
 H    1.2504163589   -0.6856148939   -3.2414831096
 H    3.3813305778    0.5973461140   -2.8788168473
 H    4.1542946637    0.9456888263   -0.6534573590
 H    2.7475373850    1.9690033384   -0.4456105030
 H    3.2411808433   -0.9106020377    0.3800681549
 H    2.5732540669    0.3905496857    1.3492332820