20

 C   -0.0935692506    1.5300040003    0.0862315781
 C    0.0084904150    0.0245141266    0.0492028460
 C   -1.2210559362   -0.6983968064   -0.4900179709
 O   -1.0167446108   -2.1044344308   -0.5849832140
 C   -0.8029283758   -2.7114054868    0.6604582212
 C    0.5224345848   -3.3883764140    0.8593655333
 C    0.2378209570   -2.0614860836    1.5328121302
 C    0.7970194589   -0.7470110674    1.0522399701
 N    1.3164199186   -0.5411397041   -0.3150624640
 H    0.8292106809    1.9629827376    0.4797167322
 H   -0.2535176929    1.9386652914   -0.9186345065
 H   -0.9273513119    1.8555938531    0.7189940921
 H   -2.0956168467   -0.4704453293    0.1401348844
 H   -1.4451973462   -0.3647093587   -1.5091029026
 H   -1.6995109271   -3.1418410219    1.1036821032
 H    0.5585479802   -4.2746638778    1.4830053018
 H    1.1989142961   -3.4056443422    0.0118068348
 H    0.0734620148   -2.0939027960    2.6054272298
 H    1.3611344196   -0.1985441983    1.8034269858
 H    1.1683653825   -1.3807341618   -0.8724977149