21

 C   -0.0084920109    1.5784163673   -0.0532466389
 C    0.0346651437    0.0507260314   -0.0120287188
 C   -1.3580917091   -0.5310015903   -0.2707696425
 C    1.1191643081   -0.7171365110   -0.8535764683
 C    2.4943712629   -0.1135122206   -0.4567258456
 C    2.2242459419   -0.7033167553    0.9246664057
 C    1.2686167407   -1.7368510730    0.3499215365
 C    0.7028223681   -0.6342858404    1.1874495355
 O    0.1797050860   -0.7785640181    2.4586906073
 H    0.9459174067    2.0340762201    0.2224977397
 H   -0.2796855030    1.9401776551   -1.0519787974
 H   -0.7664727312    1.9553875516    0.6434592647
 H   -1.7573296883   -0.1730306533   -1.2265128002
 H   -1.3353806254   -1.6246720623   -0.2989552253
 H   -2.0571920716   -0.2337514382    0.5179647198
 H    0.8959134784   -0.9836654814   -1.8854850969
 H    3.3127125299   -0.6437305522   -0.9535384069
 H    2.6440288462    0.9649272689   -0.5730084402
 H    2.9057839790   -0.8428753187    1.7552254892
 H    1.2338792543   -2.8126609417    0.4327351906
 H    0.4182918436   -0.0012530281    2.9755912120