14

 N    0.0505733501   -1.1737471411    0.0469684682
 C    0.0255367990   -0.0191134609   -0.0025562381
 C   -0.0447110862    1.4207161611   -0.0627635919
 C   -1.1275446183    2.2100210139    0.7472139430
 C   -0.9317367443    3.3094621000   -0.2906779585
 C    0.5674184418    3.2556504300   -0.6786109398
 N    1.2299587527    2.1873664122    0.0731974132
 C   -0.4079261086    2.3242760541   -1.3170051443
 H   -2.1096740348    1.7414478287    0.6569501943
 H   -0.8968759519    2.4056157850    1.8006220287
 H   -1.5452307150    4.1830798612   -0.4642337124
 H    1.1034151319    4.0924277161   -1.1056636781
 H    1.4419031635    2.4192249579    1.0461384509
 H   -0.6578720097    2.0880963417   -2.3398025554