19

 C    0.0511310483    1.5411908482    0.4131636946
 C    0.0345864820    0.0696957177   -0.0192988676
 C   -1.3614516547   -0.4952799156   -0.1685204057
 C   -2.1031902335   -1.0276629463    1.0502243007
 C   -1.6645823055   -1.9647419187   -0.0376102880
 O   -2.6537000633   -2.3454642249   -0.9739668501
 C   -3.0512705355   -1.2712576911   -1.7232137516
 O   -3.9092860629   -1.3540226503   -2.5497114682
 C   -2.2440110762   -0.0337037205   -1.3137576610
 H    1.0767303208    1.9055549095    0.5234724207
 H   -0.4504536237    2.1785775049   -0.3225384444
 H   -0.4601333129    1.6751568875    1.3720768697
 H    0.5706465560   -0.0409941340   -0.9713717256
 H    0.5865335818   -0.5318531350    0.7136361415
 H   -1.5538023757   -1.0559595709    1.9854140129
 H   -3.1678955351   -0.8415750644    1.1530593308
 H   -0.9191257966   -2.7353050841    0.1147027721
 H   -2.9363020771    0.7766019921   -1.0690811894
 H   -1.6549947064    0.2947577259   -2.1774331213