17

 N   -0.0433393299    1.3004265513   -0.2545207769
 C    0.0434738798    0.0066190862    0.1582365049
 O    1.0627359316   -0.4827258151    0.6036867894
 C   -1.2654504493   -0.7871901932    0.0658772308
 C   -1.9336666723   -0.8219616658   -1.3375912173
 C   -2.5606156741   -2.2238455013   -1.4004049572
 C   -1.6776660543   -3.0668990686   -0.4677392131
 O   -1.5764416986   -4.2718619611   -0.4452790024
 N   -1.0334155672   -2.1810923879    0.3553720698
 H    0.7821347454    1.8751903188   -0.2109083591
 H   -0.8794466835    1.6829709221   -0.6599293270
 H   -1.9596958253   -0.3394785976    0.7967368579
 H   -2.6560967002   -0.0132259957   -1.4736070867
 H   -1.1638555133   -0.7202733917   -2.1091019576
 H   -3.5853709147   -2.2325021925   -1.0117958539
 H   -2.5813651904   -2.6616656851   -2.3991619466
 H   -0.2684648636   -2.4559552928    0.9528316151