14

 N    0.1089600548   -1.1301385812    0.0035391711
 C    0.0723761082    0.0247157436    0.0071008940
 C    0.0224376722    1.4658469213    0.0373633044
 C   -1.0669120027    2.0711045657   -0.6872533666
 N   -1.9242986986    2.5909467405   -1.2627051931
 C    0.4470615118    2.2580210468    1.2963560450
 C    1.6139391967    1.5465565571    1.9887836699
 N    2.3606876004    1.4993100085    0.6842540447
 C    1.3143548308    2.3091097088    0.0721390854
 H   -0.2494217606    2.9618952805    1.7303667431
 H    2.0839709948    2.2035354484    2.7253049139
 H    1.4249859765    0.5646620675    2.4302382870
 H    3.2509570801    1.9808797575    0.7241331571
 H    1.4845264257    3.0673614649   -0.6818934361