19

 O   -0.0249462336    1.4389155667    0.3943002537
 C   -0.0265697794    0.0789361407    0.0762049768
 C    0.4567095295   -0.9718636684    1.1377097317
 C   -0.8526659573   -1.7864176519    0.9380572519
 C   -2.0588362828   -1.5240904802    1.9055294470
 C   -1.8901180300   -0.4681919635    3.0032520597
 O   -2.0928330165    0.6112971416    2.0477473932
 C   -2.4831933729   -0.3367243599    1.0051119505
 C   -1.3866006219   -0.6759715075   -0.0374708148
 H   -0.6319599194    1.5375080025    1.1428617190
 H    0.5436928153   -0.0211623815   -0.8523744443
 H    1.3645342056   -1.5099116873    0.8538865871
 H    0.6158064534   -0.5529296141    2.1339291998
 H   -0.7321831425   -2.8228834487    0.6244514301
 H   -2.6982104450   -2.3810172165    2.1137536013
 H   -2.6958779864   -0.4754244703    3.7475953110
 H   -0.9282493307   -0.3934522088    3.5200785793
 H   -3.4985761296   -0.1404112643    0.6510273536
 H   -1.7695066959   -0.8876916286   -1.0376668265