17

 O   -0.0944466006   -0.0135568517    0.0910936533
 C    0.0088890818    1.1853885335    0.0164770395
 C    1.3054591928    1.9370474768   -0.0051339775
 C    1.5859702929    2.8959021824    1.2092737069
 C    2.9475518961    3.3465726366    0.5997283517
 C    3.5822450069    1.9518402198    0.4062184549
 C    2.6075307215    1.1180693064    0.0495112548
 C    2.4320626300    3.8184892230   -0.7729187019
 C    1.4493349539    2.9945601089   -1.1319149700
 H   -0.8964403843    1.8341366308   -0.0396472182
 H    0.8569205084    3.7059400619    1.2959717580
 H    1.6886036233    2.3564640659    2.1540715544
 H    3.5363764537    4.0680993233    1.1653372692
 H    4.6390659900    1.7433756958    0.5037210296
 H    2.6551305932    0.0689603557   -0.2028353684
 H    2.8552133047    4.6361928294   -1.3407802937
 H    0.8849800058    2.9763433017   -2.0545651925