19

 C    0.6701844442   -0.1898225975    1.2385602297
 O   -0.1283267500    0.0772265746    0.0963383825
 C   -1.3187055719   -0.6813735739    0.0084427925
 C   -2.4012146955   -0.0669546379    0.8864225943
 O   -2.5839182375    1.2976816522    0.5530500076
 C   -1.7128391795   -1.0935877354   -1.4394069376
 C   -0.5071747781   -2.0605723803   -1.4981999619
 C   -1.2255529995   -2.2377136392   -0.1375406454
 O   -2.5204236183   -2.1880262712   -0.8513854934
 H    1.5299776951    0.4815743514    1.1864783417
 H    0.1340009202   -0.0040556721    2.1782323349
 H    1.0308489256   -1.2277178980    1.2413844812
 H   -3.3472495037   -0.5818725885    0.7208377062
 H   -2.1332887030   -0.1866823934    1.9496992139
 H   -1.6980582217    1.6702609359    0.4654561714
 H   -2.1726215606   -0.4892618470   -2.2202502820
 H   -0.6349502879   -2.9000271978   -2.1816055798
 H    0.4939325756   -1.6311099546   -1.5120642894
 H   -1.1063344034   -3.0105719871    0.6226903034