17

 O    0.1047228737    1.2517948898    0.4188226686
 C   -0.0250374183    0.0299995176   -0.2916611119
 C   -1.3856164054   -0.5871884999   -0.1763349056
 O   -2.4132541413   -0.3228038292   -1.1446914842
 C   -2.9133197322   -1.6888878131   -1.0480861616
 C   -1.9541101696   -1.9814087464    0.0833338354
 O   -1.3976055393   -3.2152989185    0.3200229407
 C   -2.0644190660   -0.8980468999    1.1375783049
 O   -1.1370950433   -1.0689106402    2.1887534767
 H   -0.0372826124    1.0441852825    1.3491462295
 H    0.1693312259    0.2559155427   -1.3441443380
 H    0.7249597708   -0.7050861264    0.0362020917
 H   -3.9874620679   -1.7263190586   -0.8335778753
 H   -2.6918559008   -2.2517613170   -1.9618916711
 H   -0.8879527969   -3.1337179960    1.1373880706
 H   -3.0020712569   -0.4064603104    1.4027412273
 H   -1.5895867999   -1.5015133169    2.9208951426