17

 O   -0.0329509656    0.0320222170    0.2103482962
 C    0.0014135692    1.2059359831   -0.0071028073
 O   -1.1365039130    1.9545988264   -0.1726105661
 C   -0.7955051833    3.2787438846   -0.5418190461
 C   -0.0394250447    4.1466343470    0.4385706667
 C    0.3788134305    3.5413423364    1.7814312291
 C    1.5125036417    2.5455764051    1.4283678171
 C    1.2170479571    2.1421904796   -0.0415202645
 C    0.6862242216    3.4231208571   -0.6891133424
 H   -1.5189682456    3.7062790207   -1.2239020151
 H   -0.2234433610    5.2129961122    0.3701006953
 H    0.7203131740    4.3176668087    2.4699171315
 H   -0.4612933986    3.0290810350    2.2620081961
 H    2.4824175932    3.0520437489    1.4600525773
 H    1.5584399537    1.6816709545    2.0968697697
 H    2.0591648771    1.6636725843   -0.5398018129
 H    1.1725502134    3.9019074194   -1.5284050245