21

 C    0.0115824889    1.5914560143    0.0764507435
 C   -0.0211294774    0.0558430077    0.0362745747
 C    0.6597308710   -0.4984232766   -1.2453629474
 C    1.2372497502   -1.9317986084   -1.1442883165
 C    2.6466884969   -2.0199925088   -0.5168357556
 C    2.7103939338   -1.6501427724    0.9666119373
 O    2.0251528082   -0.4012712454    1.1726211633
 C    0.6597675164   -0.5548157600    1.2426435703
 O    0.1214734071   -1.1667870264    2.1225600172
 H    1.0430534701    1.9514149791    0.1320494270
 H   -0.4454110821    2.0019902253   -0.8295931410
 H   -0.5376499811    1.9801581756    0.9389991247
 H   -1.0605874079   -0.2836555961    0.0786995632
 H   -0.0838899456   -0.4675678603   -2.0493500150
 H    1.4654867365    0.1819718517   -1.5437966696
 H    0.5395039617   -2.5823362970   -0.5995751171
 H    1.3021825986   -2.3452603859   -2.1564535668
 H    3.0391523815   -3.0377212793   -0.6349341025
 H    3.3178133158   -1.3565906518   -1.0762871896
 H    2.2517197484   -2.4167601946    1.6009215922
 H    3.7403943890   -1.4981536107    1.2973074077