17

 O    0.0050346579   -0.0702345172    0.1494698125
 C   -0.0136174869    1.1287693727    0.0090071560
 C   -1.3294611203    1.9133428606   -0.0595427823
 C   -1.1775892116    3.1486405303   -0.9798913135
 O   -0.0591554632    3.8967343226   -0.4989720090
 C    1.0664131650    3.1800219386   -1.0100872131
 C    1.2774629606    1.9497873120   -0.0946347318
 C    0.5967380064    2.7425494699   -2.3888492051
 C   -0.7331246946    2.7239225864   -2.3709451297
 H   -2.1225554969    1.2323341954   -0.3801024004
 H   -1.5725845893    2.2637897714    0.9517026991
 H   -2.0640589931    3.7869418709   -0.9498878184
 H    1.9351771602    3.8428683118   -1.0036945634
 H    1.5378257199    2.3072639578    0.9098357858
 H    2.0803655154    1.2910916162   -0.4366838994
 H    1.2566001460    2.4269253618   -3.1859544088
 H   -1.4051055655    2.3896502589   -3.1501224384