16

 O    0.0907688591   -0.0213205885   -0.0054083703
 C   -0.0310492091    1.1701952142    0.0080710268
 C   -1.3634020742    1.9215262393    0.0307564346
 O   -1.3561179456    2.8903073625   -1.0188638398
 C   -1.1264043774    2.3408559168   -2.2656529444
 N   -0.0363376484    2.3422926175   -2.8938798316
 C    1.1745712953    2.9178835790   -2.3078008308
 C    1.8099999034    2.0188230514   -1.2413917193
 O    0.9997472408    2.0550491466   -0.0558149417
 H   -2.1807578404    1.2001583265   -0.0815695226
 H   -1.4876947163    2.4778625657    0.9629445061
 H   -2.0144971541    1.8937916991   -2.7190167994
 H    1.8999053708    3.0568929937   -3.1161497938
 H    0.9754459270    3.8938929075   -1.8498456655
 H    1.9193739985    0.9864917545   -1.5878048721
 H    2.7894417206    2.4098306944   -0.9574224263