18

 C    0.0284360298    1.6010426395    0.1345774730
 C    0.0243874799    0.0689007744    0.0514514319
 C    0.7373848625   -0.5636669605    1.2546991782
 C   -1.4080666359   -0.4661749021   -0.0657226944
 C   -2.1957421242   -0.2300351854   -1.3704707609
 O   -2.2829268127   -1.6751784785   -1.5932918735
 C   -1.5644213019   -1.9416719321   -0.4547557856
 O   -1.2282142939   -3.0056835257   -0.0421724104
 H    1.0528855252    1.9833165485    0.1835135908
 H   -0.4563688930    2.0593012428   -0.7340525730
 H   -0.4981406342    1.9447097426    1.0326840788
 H    0.5628879943   -0.2265386573   -0.8602880493
 H    0.2570370763   -0.2620708225    2.1931759336
 H    0.7128312623   -1.6548784404    1.2001431182
 H    1.7819916491   -0.2400983714    1.2978679101
 H   -1.9793182022   -0.2248054813    0.8370764871
 H   -3.1913865330    0.2075184061   -1.2775522379
 H   -1.6399960483    0.2474760931   -2.1810960666