20

 O   -0.5411591338    1.4871300847   -0.5540561870
 C   -0.0151634868    0.2836070587    0.0112232151
 C   -1.0789812592   -0.8139366126    0.2691913628
 C   -0.9183342478   -1.8541388718   -0.8656453894
 C    0.4518813237   -1.5317182892   -1.4227072858
 C    0.9516067795   -0.4008843702   -0.9286111922
 N   -0.9863074606   -3.2239712128   -0.3530945763
 C   -2.3185651516   -3.8176901416   -0.2822255541
 C   -1.3465408048   -4.2576888243   -1.3195355011
 H   -0.8135826358    1.2836839758   -1.4558002404
 H    0.4560303232    0.6152082333    0.9418069304
 H   -0.8688445935   -1.3226122393    1.2143740921
 H   -2.0787164261   -0.3778489063    0.3308980146
 H   -1.6835764224   -1.7086672151   -1.6544026377
 H    0.9348265581   -2.1732758786   -2.1521805124
 H    1.9016182571    0.0460181065   -1.2003677050
 H   -2.5156543038   -4.4345543555    0.5895169758
 H   -3.1639180337   -3.2181724648   -0.6171554783
 H   -1.5464746292   -3.9526594526   -2.3460312034
 H   -0.8197510529   -5.2022914242   -1.2206478679