15

 O    0.0626306482   -0.0330994153    0.0692340655
 C    0.0385246375    1.1649662883    0.0831229241
 O   -1.0941691138    1.9477090045    0.1499821448
 N   -0.7554960062    3.3408760668    0.1477634026
 C    0.5306767719    3.3361412527    0.0811542572
 C    1.6120908357    4.3697229946    0.0168939686
 C    2.8748725043    3.5210415697    0.3581031988
 C    2.5215517993    2.0568822035   -0.0291958799
 N    1.0701104371    2.0845026860    0.0465579234
 H    1.6666459581    4.7866428876   -0.9945453820
 H    1.4494647861    5.1979146425    0.7079470137
 H    3.7683659832    3.8757209589   -0.1574943620
 H    3.0675295373    3.5724814991    1.4330053951
 H    2.8487065079    1.8025261649   -1.0433654611
 H    2.9367852534    1.3185030262    0.6596454814