17

 C    0.1002141332    1.6308545202    0.1146576729
 C    0.0694165006    0.1762332988    0.0815679812
 C    0.0292988220   -1.0281392573    0.0631959442
 C    0.0168909159   -2.4744990641    0.0072380248
 C    0.1089729695   -3.2520338964    1.3693744863
 O   -1.0742622776   -3.9975530067    1.0707767070
 C   -1.3377022826   -3.2207017141   -0.1151764354
 C    1.0803318277   -2.9680463336   -0.9729703518
 O    0.8995877965   -3.8155734942   -1.8048362172
 H    1.1196012575    2.0012289789    0.2678204323
 H   -0.2706764713    2.0563312245   -0.8240691220
 H   -0.5216454592    2.0219195523    0.9271483999
 H    0.9897998575   -3.8927618109    1.5005413769
 H   -0.0056020870   -2.5986308830    2.2423480254
 H   -2.2139296136   -2.5738558963   -0.0024593361
 H   -1.4259541632   -3.8449651251   -1.0083205883
 H    2.0678241641   -2.4754786229   -0.8408496699