15

 O    0.2155379593    1.2297565008   -0.4352441780
 C    0.0081850004   -0.1169069776   -0.0762497085
 C    0.5243668451   -0.3770927774    1.3503932780
 O    1.5693016364    0.0059526166    1.7912186311
 O   -0.3924485189   -1.0671401401    2.0740909802
 C   -1.6029327870   -1.1690647262    1.3325289255
 C   -2.3058972877    0.1302885522    1.0379016858
 C   -1.4411483075   -0.5363453732   -0.0155839443
 O   -2.0208665588   -1.1406298033   -1.1236157921
 H    1.0761354255    1.4796069144   -0.0718342730
 H    0.5297635521   -0.8042182989   -0.7624418884
 H   -2.1308301548   -2.0966588135    1.5052084061
 H   -3.3754466735    0.0695095741    0.8721154636
 H   -1.9518454160    1.0362915325    1.5178352442
 H   -2.2623145947   -0.4465813004   -1.7477254401