13

 O    0.0819998935    1.3856093379   -0.1365413919
 C    0.1005837680    0.0042914350    0.0089912720
 C    0.3063951941   -0.6155090150    1.4486429427
 C   -1.0727631232   -1.2573584031    1.3233984791
 O   -2.0107044316   -0.2008437192    1.0851335786
 C   -1.2756878098   -0.7120038114   -0.0394589970
 C   -1.9958203418   -1.2136059856   -1.1659829627
 N   -2.5300329823   -1.6177564157   -2.1087220510
 H   -0.6211677192    1.7216808029    0.4341861295
 H    0.8077880900   -0.3972692523   -0.7190077033
 H    1.1269313318   -1.3352527276    1.4787015455
 H    0.4103271301    0.1032758300    2.2639968756
 H   -1.4622224296   -2.1748128459    1.7467050229