16

 C   -0.0749127017    1.5838479013    0.0118431949
 C    0.0458887414    0.0660821578    0.0159732508
 O   -1.2287580098   -0.5391288274   -0.1437151417
 C    1.1356164408   -0.6211866713   -0.8663819267
 N    1.6885717652   -1.3905814409    0.3067838067
 C    2.1734925126   -0.3659026239    1.2463843306
 C    0.7228364856   -0.6275554706    1.1981822103
 H    0.8852721635    2.0719337572    0.1991034373
 H   -0.4374862966    1.9367642018   -0.9623146211
 H   -0.7873934427    1.9072106681    0.7768534362
 H   -1.6230464275   -0.1911968467   -0.9509955680
 H    0.6952967704   -1.3067017801   -1.5928288764
 H    1.8755965806    0.0207420100   -1.3580999376
 H    2.7265294121   -0.7843365449    2.0819891761
 H    2.5850766367    0.5628021317    0.8557826724
 H    0.1731092595   -1.1126040721    1.9981005261