15

 O   -0.1528320482    0.0066692451    0.2238085295
 C   -0.0358513980    1.2069164629    0.1440966781
 N    1.1477746120    1.8818562323    0.0150719751
 C    1.2601298832    3.3489477131   -0.1026885103
 C    2.7758702361    3.6314563369    0.0685489152
 C    3.3920928217    2.2614662793   -0.0505317587
 C    2.4386815527    1.3174058229   -0.0517323503
 C    2.6763164034   -0.0855787556   -0.1161564441
 N    2.9905202074   -1.1971589726   -0.1814795746
 H   -0.8925533401    1.9080605314    0.1711599568
 H    0.9098785710    3.6702255785   -1.0898032559
 H    0.6464631292    3.8403466018    0.6551819093
 H    3.1443249486    4.3287305469   -0.6895529909
 H    3.0046428652    4.0785834495    1.0445823255
 H    4.4519802959    2.0602370477   -0.0901144547