25

 C    0.0142810537    1.5113216391    0.6024462983
 C   -0.0078787311    0.0075260450    0.3195718396
 O    0.5277866807   -0.7076470388    1.4351407974
 C   -1.4058069813   -0.5290936890   -0.0727535247
 C   -1.9887402829    0.2221351057   -1.2823871799
 C   -1.4006059369   -2.0712130915   -0.2575969481
 C   -2.7988680997   -2.6840000876   -0.1038597191
 C   -0.7556288201   -2.5257154735   -1.5771039381
 O   -0.5761561015   -3.9351576521   -1.6367803139
 H    1.0013588509    1.7974416810    0.9752922684
 H   -0.1993194543    2.1032642251   -0.2912235609
 H   -0.7300065923    1.7757608563    1.3651259930
 H    0.6972715157   -0.2042146017   -0.4938139007
 H   -0.0164570175   -0.4966599052    2.2024769146
 H   -2.0605592469   -0.3244208569    0.7899003750
 H   -1.2958552177    0.2188992479   -2.1313342991
 H   -2.9239533914   -0.2345982938   -1.6184417667
 H   -2.2082455703    1.2651185925   -1.0406403947
 H   -0.7693761416   -2.4660210531    0.5489436313
 H   -2.7534616780   -3.7641543713   -0.2637346051
 H   -3.2073147726   -2.4986475077    0.8952017134
 H   -3.5057636383   -2.2739759128   -0.8344128092
 H   -1.4028996659   -2.2834352553   -2.4269192647
 H    0.2013169771   -2.0070140037   -1.7403192149
 H    0.0197474021   -4.1800820286   -0.9211777311