16

 C    0.1053080543    1.5752467025    0.0336112023
 C    0.0052266176    0.0490671794    0.0200731210
 C    0.6576050064   -0.6278285011   -1.2127920809
 C    1.2154724293   -1.9649501104   -0.7095778474
 O    1.3773290511   -2.9708557474   -1.3504498597
 C    1.4414797395   -1.8157578096    0.7746135820
 O    2.1312414805   -0.5846581157    1.0775680052
 C    0.7122205053   -0.6069652727    1.2022918014
 H    1.1544195331    1.8871685041    0.0460462973
 H   -0.3694467108    2.0083979744   -0.8520828778
 H   -0.3850987622    1.9979246652    0.9168597459
 H   -1.0513525744   -0.2457257129    0.0676847771
 H   -0.0317662935   -0.7940715994   -2.0422970408
 H    1.4924593215   -0.0272164345   -1.5914204400
 H    1.6641103797   -2.6700035018    1.4053046661
 H    0.3279923626   -0.5001801203    2.2142602682