17

 C   -0.3713088389    1.4227919075   -0.1021453692
 C    0.1185870686   -0.0104421998   -0.0591935587
 O    1.3747168090   -0.2250267936   -0.7845548739
 C    2.0649537334   -0.6124394963    0.4107829708
 C    3.2689296277   -1.5123156699    0.3940666503
 C    3.4509370730   -0.0333699136    0.6239599015
 O    3.9219732662    0.7815459840   -0.3937879533
 C    0.8239307910   -0.4877031712    1.2287482424
 O    0.5107395108   -0.6602612294    2.3692347152
 H    0.3971070232    2.1107231968    0.2619235651
 H   -0.6379864470    1.7055448358   -1.1245798943
 H   -1.2595403716    1.5267200756    0.5287302891
 H   -0.6435974403   -0.7125643989   -0.4176815289
 H    3.3899358465   -2.1905026004    1.2327211881
 H    3.5497971161   -1.9002761872   -0.5796173024
 H    3.7192528516    0.3080094161    1.6201206161
 H    3.1844165408    0.9154803744   -1.0078939978