23

 C   -0.3998116004    1.4470384176   -0.1577672109
 C   -0.0322657087   -0.0159347363   -0.0412979731
 C    1.3381252256   -0.5850386351   -0.3278134507
 C    2.5762682257    0.2373996339   -0.6696305737
 C    3.0447632641    1.2066459231    0.4330106523
 C    2.9168334423    0.5918716627    1.8291353054
 O    3.3803654025    1.4749001687    2.8438648360
 C    1.4536843667    0.2817912775    2.1502962986
 C    0.7946630104   -0.5984980158    1.0915512049
 H   -0.6043998316    1.7130618017   -1.2010173639
 H   -1.3057030969    1.6651663945    0.4196197213
 H    0.3820595535    2.1190029255    0.2009528639
 H   -0.8428333647   -0.6661690420   -0.3638566481
 H    1.3231659213   -1.5421225934   -0.8426145435
 H    3.3896327636   -0.4742041551   -0.8598330828
 H    2.4339194421    0.7845514405   -1.6099358756
 H    4.0908424575    1.4826298584    0.2442977669
 H    2.4754706097    2.1427983622    0.4204049664
 H    3.4907634980   -0.3511577397    1.8541872431
 H    4.2909951937    1.7103419013    2.6394921146
 H    1.4036508910   -0.2102818475    3.1257729570
 H    0.9325315385    1.2395927580    2.2663404726
 H    0.4585155262   -1.5623098508    1.4611438792