16

 N   -0.3634988619    1.4488782633   -0.1049652784
 C   -0.0781222763    0.0352828822   -0.0995053354
 C    1.0540439265   -0.4673218975   -0.9936959533
 C    2.3460518446    0.1051652964   -0.6076928874
 N    3.3420877215    0.5902048658   -0.2785386359
 C   -0.3294330565   -0.6633589631    1.2240951360
 C   -1.3128847481   -0.8230201905    0.0873525776
 O   -2.5519555383   -0.2038385369    0.1262301426
 H    0.3424510092    1.9748715815    0.4011456965
 H   -0.3994358379    1.8148841965   -1.0521746931
 H    1.1235464711   -1.5597105396   -0.9495948686
 H    0.8567788248   -0.2069193820   -2.0416512918
 H    0.3101817968   -1.4976154720    1.4919615171
 H   -0.6384382936   -0.0379085524    2.0542470759
 H   -1.3596429894   -1.7826392374   -0.4192198348
 H   -2.3594764024    0.7432085757    0.2198814829