17

 N   -0.0414561255    1.2769327136    0.1549425489
 C   -0.0072613835    0.0264558729   -0.0184618830
 O    1.1383007453   -0.6885734282   -0.2505962579
 C    0.8469723734   -2.0622917274   -0.5631147293
 C   -0.5738013606   -2.3097991798   -0.0681941275
 C   -0.7807536896   -2.4801034170    1.4674407272
 C   -1.6904301868   -1.2187823787    1.4734600912
 C   -1.2072595286   -0.8941480929    0.0312731515
 H    0.8953522885    1.6763480430    0.0746537884
 H    0.9358035931   -2.2014525439   -1.6480530018
 H    1.5997733928   -2.6835989103   -0.0684784800
 H   -1.1107998869   -3.0406400328   -0.6736451613
 H   -1.2415147765   -3.4158391655    1.7899503041
 H    0.1470543054   -2.3420004987    2.0302471053
 H   -2.7530503945   -1.4714771501    1.4931070974
 H   -1.4957381431   -0.4541734833    2.2272668027
 H   -1.9639978029   -0.5806176109   -0.6887161958