22

 C   -0.3453220692    1.6539424914   -0.1929546770
 C   -0.1584087040    0.2131410114   -0.0933128692
 C    0.0020578269   -0.9770542673   -0.0011945002
 C    0.1773478591   -2.4284103493    0.0813423927
 C   -1.1820779682   -3.1457343950    0.2211029619
 C    0.9373055751   -2.9258823450   -1.1495826114
 C    2.4218455262   -2.8514108272   -1.2214505883
 N    1.7470763200   -4.1445788444   -1.1722793915
 C    1.9201468339   -4.9519364696    0.0248218551
 H    0.6153249355    2.1787073584   -0.2423268229
 H   -0.9136645725    1.9215209231   -1.0907378461
 H   -0.8917329605    2.0463232748    0.6720560121
 H    0.7737122627   -2.6470354399    0.9757139254
 H   -1.7260343573   -2.7780279897    1.0950389123
 H   -1.8011444145   -2.9663360947   -0.6631646180
 H   -1.0394075520   -4.2250578815    0.3269757575
 H    0.3748881875   -2.7763188465   -2.0709152955
 H    2.9295945552   -2.6050703407   -2.1504607944
 H    2.9364272767   -2.5131550606   -0.3213664184
 H    2.0279600662   -4.3794072405    0.9598936634
 H    1.0710337449   -5.6344689176    0.1344434419
 H    2.8236986285   -5.5583976596   -0.0955603894