20

 C    0.0229911812    1.4876929523   -0.0248517666
 N   -0.0052414056    0.0315154098    0.0656798500
 C    0.8341836938   -0.4682426669    1.1497044689
 C   -1.3194635970   -0.5093442837    0.0727283266
 C   -1.8339832050   -1.3116641034   -0.9041351959
 C   -1.2599981124   -1.8354497836   -2.1682255048
 O   -3.1157531620   -1.6549143705   -0.5910798425
 C   -3.4186299131   -1.0633939776    0.5984943490
 C   -2.3645214022   -0.3484553677    1.0587959173
 H    1.0542937694    1.8222052895   -0.1817175582
 H   -0.5794475192    1.8135907533   -0.8763452518
 H   -0.3607230533    1.9917659511    0.8810950426
 H    0.5147905590   -0.1198780898    2.1490533794
 H    0.8202356644   -1.5609388897    1.1499653362
 H    1.8659923676   -0.1348632985    0.9937435122
 H   -1.2410613724   -2.9312620239   -2.1820400639
 H   -1.8346577957   -1.5066774141   -3.0417271357
 H   -0.2369886687   -1.4648657814   -2.2603946575
 H   -4.4121765152   -1.2506803153    0.9715866249
 H   -2.3252307936    0.2201097701    1.9747744198