15

 O    0.0873244608    1.3700418002   -0.0049631947
 C    0.0710839427    0.0190579895   -0.0559762370
 C    0.0365631382   -0.7744203168   -1.1717922562
 C    0.0009064861   -0.8498302772   -2.6700926691
 C   -0.0211099125   -2.3577839771   -2.8870510319
 C   -0.0011304891   -3.0041368528   -1.7152526337
 N    0.0337715342   -2.0714554093   -0.6646778743
 C    0.0656303085   -2.0002066563    0.6883480528
 N    0.0890190553   -0.7374590177    1.0864227763
 H    0.1114602574    1.5997670378    0.9319978398
 H   -0.8823801175   -0.3656501068   -3.1083835260
 H    0.8735708439   -0.3854545869   -3.1491988936
 H   -0.0489740515   -2.8279819627   -3.8592086104
 H   -0.0080898914   -4.0627526786   -1.5029087539
 H    0.0707401649   -2.8668686453    1.3301874920