20

 C    0.1717905260    1.0830826839   -0.3631164190
 O   -0.4145522688    0.1204730190    0.4890449963
 C    0.4962703874   -0.5154215309    1.3369116576
 C   -0.1627305427   -1.3937367248    2.4148214597
 C    0.9794378739   -2.4350802444    2.2014285372
 C    0.6400768025   -3.8460057878    2.2334325424
 N    0.3636526078   -4.9691194345    2.2429914676
 C    1.2873011113   -1.7657745391    0.8100471178
 C    0.6493662057   -2.4581191554   -0.3886077420
 H    0.9053832034    0.6375800637   -1.0502147935
 H   -0.6346765198    1.5272931196   -0.9506391038
 H    0.6735528231    1.8761812444    0.2120192915
 H    1.1860225866    0.2189352105    1.7810202936
 H   -0.2840698110   -0.9817278254    3.4173241404
 H   -1.1219252752   -1.7751622532    2.0603713827
 H    1.8012624687   -2.2591287197    2.9009526639
 H    2.3537694033   -1.6058089637    0.6316083051
 H   -0.4269806865   -2.5963071389   -0.2567606456
 H    0.7957106313   -1.8653671010   -1.2960517040
 H    1.0989236228   -3.4423976922   -0.5485997577