18

 C    0.0564464657    1.5138986421   -0.3502814393
 O   -0.2439892994    0.1748141107   -0.6703890443
 C    0.8123383054   -0.5483322841   -1.2886187542
 C    1.8878493553   -0.9769517736   -0.2862149793
 C    0.1958318457   -1.7510745224   -1.9832692492
 C   -0.9726329939   -2.4527245256   -1.4017052985
 N   -1.1152098138   -1.6434164961   -2.6304623879
 H    0.8200098313    1.5973111316    0.4357876779
 H    0.4053428757    2.0724984845   -1.2324249903
 H   -0.8664928523    1.9714408656    0.0144890885
 H    1.2746012197    0.0940935059   -2.0588911508
 H    1.4439520659   -1.5907012024    0.5028765734
 H    2.6610972508   -1.5660544952   -0.7897279361
 H    2.3782637169   -0.1150064510    0.1751647236
 H    0.9221516844   -2.3317688335   -2.5489790247
 H   -1.0881779171   -3.5239448406   -1.5402240213
 H   -1.3889384450   -2.0553150222   -0.4815281328
 H   -1.5137387153   -0.7455174436   -2.3603446548