17

 C    0.1339686121    1.5997061364   -0.2699991922
 C    0.0362595076    0.0996916493   -0.0459140965
 N    1.0408932971   -0.7113085647   -0.7705261536
 C    1.6914255103   -1.1635393829    0.3395131311
 O    2.7071767809   -1.7941143060    0.5170630887
 C    0.6507063012   -0.4969798203    1.2649330241
 C    1.1657713141    0.4305434527    2.3614437230
 N    2.3646905487    0.0409644338    2.8650684646
 O    0.5299148465    1.3881156579    2.7593587104
 H    1.1585838989    1.9543432223   -0.1256389556
 H   -0.1794623053    1.8534997439   -1.2882844600
 H   -0.5066516761    2.1249933723    0.4409001752
 H   -0.9841409013   -0.2503320560   -0.2327923358
 H    1.3072808270   -0.7317500709   -1.7445550390
 H   -0.0044567516   -1.2370793367    1.7339708676
 H    2.8856079666   -0.7107667395    2.4342560331
 H    2.7767710535    0.5868810385    3.6039153549