25

 C   -0.0472617748    1.6120359425    0.0594940617
 C   -0.0083287777    0.0820016297    0.0190187652
 C    0.6987135643   -0.4718350567   -1.2226949548
 C    0.7415515090   -2.0028114414   -1.2700277480
 C    1.4486666547   -2.5560689100   -2.5119126136
 C    1.4881499100   -4.0863180292   -2.5533152244
 C    2.2024820918   -4.6280048591   -3.8082544436
 C    2.2465491647   -6.0843129176   -3.8592594182
 C    2.2691985656   -7.2861599830   -3.8767943108
 H    0.9639907705    2.0341136072    0.0577160347
 H   -0.5744630580    2.0179501265   -0.8111827988
 H   -0.5577611980    1.9762490263    0.9565976263
 H    0.4939008479   -0.2959378100    0.9195175426
 H   -1.0326695145   -0.3119794753    0.0574308690
 H    0.1967421543   -0.0937900501   -2.1245445751
 H    1.7240685042   -0.0777218785   -1.2620413334
 H    1.2437012918   -2.3804690777   -0.3684707392
 H   -0.2836495382   -2.3965399288   -1.2309653663
 H    0.9466307590   -2.1797785459   -3.4143962181
 H    2.4746223006   -2.1636975877   -2.5515428712
 H    1.9961525864   -4.4721924217   -1.6615072828
 H    0.4684055802   -4.4882643300   -2.5241995767
 H    1.6995025571   -4.2468841345   -4.7070537351
 H    3.2257142113   -4.2308678841   -3.8452228986
 H    2.2950635379   -8.3470601609   -3.9027595906