23

 C   -0.1998564795    1.5592233771    0.0026631179
 C    0.0363010189    0.0506255569    0.0059620365
 C    0.8990325153   -0.4712418329   -1.1615455557
 C    1.3366684634   -1.8843902598   -0.7288279175
 C    2.7942810610   -2.3003422691   -1.0129808453
 O    3.2303283891   -3.0074232690    0.1389148270
 C    2.6870961591   -2.3146914451    1.2534373806
 C    1.2630236400   -1.8927933791    0.8379575596
 C    0.7880842394   -0.4834175385    1.2425650002
 H    0.7504302834    2.1044677430    0.0493922776
 H   -0.7227334723    1.8797428008   -0.9048289664
 H   -0.8044640404    1.8708211220    0.8611673142
 H   -0.9390232781   -0.4554683063   -0.0415944591
 H    0.3670381028   -0.4591105020   -2.1177839901
 H    1.7776984661    0.1789038727   -1.2770303693
 H    0.6559679027   -2.6350439676   -1.1391133031
 H    2.9128189216   -2.9638059948   -1.8736112073
 H    3.4222036861   -1.4071982091   -1.1772572469
 H    2.7232611668   -2.9895247772    2.1126278015
 H    3.2969288233   -1.4247979068    1.4882270882
 H    0.5457473248   -2.6460934765    1.1744608818
 H    1.6527334540    0.1644754714    1.4443525133
 H    0.1706986326   -0.4798415100    2.1461125123