21

 C    0.2320257438    1.5985549604   -0.1141331646
 C    0.0079271188    0.1090601581    0.0519823376
 C   -1.3949234369   -0.3594431228   -0.3128825323
 C   -1.8284886086   -1.6553130548    0.3178525776
 C   -1.1834499315   -2.2636711757    1.3150974398
 C    0.0785121230   -1.7437660760    1.9480076771
 C    0.7420075675   -0.6114412274    1.1840479371
 C    1.1627500854   -0.8183231232   -0.2541631329
 O    1.0165346901   -2.0386420657   -0.9187736366
 H    1.2729942197    1.8696394353    0.0894857741
 H   -0.0005295765    1.9226714684   -1.1359206590
 H   -0.4005764673    2.1762210738    0.5712583825
 H   -2.1147234905    0.4202715417   -0.0223688286
 H   -1.4839086331   -0.4361402663   -1.4065278664
 H   -2.7482283153   -2.0897587868   -0.0673085015
 H   -1.5855171746   -3.1859343039    1.7280062519
 H   -0.1584812286   -1.4040468430    2.9663306926
 H    0.7887933178   -2.5728009319    2.0794387218
 H    1.4042174158    0.0025429544    1.7894299149
 H    2.0924641484   -0.3551289997   -0.5716110846
 H    0.1978975126   -2.4550235950   -0.6222349005