13

 C    0.1359502989    1.4529463138    0.0829438147
 C   -0.0503250284   -0.0141295160   -0.0301618080
 C   -1.1127182209   -0.8332649877   -0.2529815723
 N   -0.6975134588   -2.1505174622   -0.2580719985
 C    0.5844788663   -2.0862467989   -0.0412571485
 O    1.0505777239   -0.8101371621    0.1080671411
 C    1.5143432519   -3.1415008699    0.0541457394
 C    2.3100694346   -4.0398165046    0.1358642119
 H    0.8295389463    1.8275655535   -0.6778142346
 H   -0.8238141053    1.9571812657   -0.0484800311
 H    0.5401414522    1.7301695695    1.0626905377
 H   -2.1453278610   -0.5633433124   -0.4093678053
 H    3.0077727003   -4.8375175387    0.2071293536