19

 C   -0.3110279050    1.5013833022   -0.1230315449
 C    0.1429659732    0.0489019719    0.0868207327
 C    0.8331700552   -0.5302444156   -1.1119790862
 N    0.1093703400   -0.9198487097   -2.3422029883
 C    0.9595376600   -1.9162950384   -1.6445496713
 C    2.3797669544   -1.6694819359   -2.1558036696
 C    2.2793377430   -0.2063487363   -1.5719777512
 C    2.4716648603    0.9185520143   -2.4749182321
 N    2.6343894616    1.8214436369   -3.1785831054
 H    0.5373278901    2.1531014100   -0.3528839594
 H   -1.0169054006    1.5764618632   -0.9555174571
 H   -0.7997663687    1.8880292390    0.7757432452
 H    0.8167760577   -0.0079661165    0.9514368218
 H   -0.7215015081   -0.5825610374    0.3310372203
 H   -0.8580233523   -1.0987007404   -2.0721043907
 H    0.5396981924   -2.8421800335   -1.2713471346
 H    3.1504174806   -2.2525737411   -1.6497119095
 H    2.5016689941   -1.7397723087   -3.2376828906
 H    2.9440956922   -0.0904578438   -0.7116880592