17

 C   -0.0166451087    1.5383326439    0.0513029142
 C    0.0250589346    0.0201843112   -0.0098549401
 C    0.7680983263   -0.5003151150   -1.2407428091
 N    0.9509686324   -1.9399523824   -1.1311751584
 C    0.9630720371   -2.6468853161    0.0342590212
 O    1.1863084314   -3.8415052231    0.0870988448
 C    0.6178135121   -1.8487210162    1.2912532518
 O    0.6918274539   -0.4431382215    1.1556136191
 H    0.9976439003    1.9458726438    0.0967847723
 H   -0.5211526102    1.9494360050   -0.8281783785
 H   -0.5556398259    1.8621304360    0.9447557575
 H   -1.0028386630   -0.3822608451   -0.0256776686
 H    0.1927197952   -0.2765606401   -2.1464681540
 H    1.7353272721    0.0167997979   -1.3209262072
 H    1.2228000638   -2.4679755852   -1.9480240884
 H   -0.3898027723   -2.1650849761    1.6090330067
 H    1.3191076610   -2.1405789167    2.0757382866