16

 O    0.0292320390   -0.0379620257    0.2537536885
 C   -0.0222599518    1.1536579753    0.0433002158
 C   -1.3265246152    1.8998631485   -0.1556967953
 C   -1.1408149788    3.3923065330   -0.2842785333
 C   -0.0794937166    4.1621563841    0.3992318430
 C    1.2576057481    3.4162681398    0.5251941352
 C    1.2221600544    3.2439883485   -0.9556083266
 C    1.1794666440    2.0073915574   -0.0689843665
 N   -0.0694823962    4.0177735621   -1.1065843445
 H   -1.8103227802    1.4995323299   -1.0553718968
 H   -1.9962730153    1.6706041452    0.6807530013
 H   -2.0676734153    3.9441275862   -0.4298962659
 H   -0.2479677966    5.1300487180    0.8598666062
 H    2.0657626324    3.7010875993    1.1840840889
 H    1.9777965221    3.3696877288   -1.7196747143
 H    2.1207630161    1.4688078998   -0.0224070756