13

 C   -0.3296517424    1.3827771985   -0.0017878598
 N   -0.0147258801   -0.0432156615   -0.0041148381
 N    0.0135400745   -0.6454545258   -1.1982978357
 N    0.2618600918   -1.8395619125   -1.3765184495
 O    0.5497800514   -2.6752598886   -0.1978686595
 C    0.5497341387   -2.1711113330    1.0540309660
 O    0.7871180558   -2.8657389359    2.0012560004
 C    0.2387871834   -0.7072979538    1.1910642308
 N    0.1992395064   -0.0826334369    2.2945868112
 H    0.4962477447    1.9424984300    0.4428533497
 H   -0.4874008000    1.6839183989   -1.0357300073
 H   -1.2270867518    1.5615420053    0.5946865202
 H    0.4113710076   -0.7390494248    3.0480052815