18

 C   -0.1217869155    1.5428292211   -0.0146335702
 C    0.0345631252    0.0134081272    0.0076985982
 C    0.8511371731   -0.5326230380   -1.2076925881
 C    1.3275135948   -1.9222625960   -0.7710229486
 C    1.5106960802   -1.8129032693    0.7465863951
 O    2.0913346789   -2.5930237006    1.4514359052
 C    0.8385994496   -0.5160958786    1.2228768683
 C   -1.2995077828   -0.6087483112   -0.0003398081
 N   -2.3474401946   -1.0969776210   -0.0138553713
 H    0.8659974147    2.0132794238   -0.0012409004
 H   -0.6478138245    1.8681111129   -0.9166123637
 H   -0.6850387059    1.8959958159    0.8532021279
 H    0.2621508112   -0.5352738983   -2.1267943510
 H    1.7062078214    0.1352733277   -1.3612218501
 H    0.5559685436   -2.6805988130   -0.9551959353
 H    2.2440625731   -2.2678386154   -1.2530891298
 H    1.6323628761    0.1988969411    1.4737016232
 H    0.2475328012   -0.6801269283    2.1254509085