18

 C   -0.0849562015    1.4217878150    0.1635021651
 C    1.4269555338    1.3059528655   -0.1221704264
 C    1.2888522036   -0.0278006288    0.5795110550
 O   -0.0697622277    0.1122317541    0.8132875954
 N    2.0568938038   -0.9669060680    0.8823608193
 C    1.5097934121   -2.1101901329    1.5798480783
 C    2.5271752361   -3.0342202355    2.2766378801
 O    1.7836793447   -2.9821860077    3.5137211124
 C    0.9332230264   -1.9345115803    3.0091272051
 H   -0.3875992868    2.2015341145    0.8660624347
 H   -0.7457200279    1.4168913401   -0.7062486713
 H    1.7128013069    1.2428172368   -1.1733356254
 H    2.0685536711    2.0273038729    0.3862618400
 H    0.8216056594   -2.6615808557    0.9298655292
 H    2.6265247805   -4.0582065369    1.8995271825
 H    3.5205578480   -2.5762115806    2.3684151949
 H    1.1670567873   -0.9587500226    3.4562034763
 H   -0.1301813199   -2.1543721499    3.1508902350