16

 O   -0.2158052887    0.2390330323    0.5060097589
 C   -0.1226657469    1.3538671849    0.0519639456
 C    1.1701226301    2.0792748119   -0.0496541577
 C    1.5841414052    2.9698296017   -1.2188191109
 C    0.4108161265    3.7969129927   -1.7771083748
 N    0.1990838396    4.3203478744   -0.4152526943
 C   -0.9488510363    4.7780440496    0.1530094565
 O   -1.9455089823    5.0729268873   -0.4693689124
 C    1.3231342001    3.5843012204    0.1369793328
 H   -1.0196566259    1.8979940384   -0.3097068019
 H    2.0018140512    1.5128524142    0.3601627737
 H    2.5279814303    2.8132190343   -1.7206623881
 H    0.7348979686    4.5791392839   -2.4691370779
 H   -0.4456426584    3.2688483447   -2.2030183057
 H   -0.8516734318    4.8824679307    1.2528470114
 H    1.9924570786    4.0181874288    0.8695716749