25

 C   -0.0556317590    1.5928299071    0.0765676606
 C   -0.0757730266    0.0635385922    0.0043680770
 C    0.7132625501   -0.4810589128   -1.1912501909
 C    0.7335584492   -2.0266593661   -1.2856762642
 C   -0.6338909211   -2.5451525660   -1.3647963569
 C   -1.7639913097   -2.9476476507   -1.4572051699
 C    1.5926541838   -2.5671620789   -2.4706752512
 C    3.0309777842   -2.0306622064   -2.4400209888
 C    1.6072985206   -4.1021073064   -2.4861474194
 H    0.9675171840    1.9757015347    0.1648439107
 H   -0.4969474116    2.0373821673   -0.8225317361
 H   -0.6220703991    1.9575259647    0.9391341661
 H    0.3420735993   -0.3525352185    0.9311263920
 H   -1.1102282511   -0.2920181222   -0.0505787323
 H    0.2978621200   -0.0761522511   -2.1234704172
 H    1.7450965696   -0.1216234438   -1.1233943968
 H    1.1863354657   -2.4099458402   -0.3575192139
 H   -2.7588299569   -3.3125725435   -1.5252498720
 H    1.1136480790   -2.2205603469   -3.3963671760
 H    3.5172349030   -2.2616402485   -1.4841457683
 H    3.6242639734   -2.5008083230   -3.2308522978
 H    3.0829664518   -0.9500390626   -2.5924859615
 H    2.0999971627   -4.4954388770   -1.5883275216
 H    0.5958483757   -4.5129439129   -2.5220987978
 H    2.1595660228   -4.4736504288   -3.3551715341