20

 C    0.0029848943    1.5348263926    0.0063542662
 C   -0.0000409254   -0.0079536578   -0.0067594171
 C    0.7309181116   -0.5758119762    1.2276278009
 C   -1.4659036870   -0.4712280851    0.0665578446
 N    0.6870927927   -0.4943794871   -1.2571276695
 C    2.0343704452   -0.1300048637   -1.4305362805
 O    2.7453460313   -0.4175893088   -2.3533521948
 C    0.0342589750   -1.2782821443   -2.2235482609
 O    0.5199459786   -1.6977781992   -3.2392488567
 H    1.0117750826    1.9534479096    0.0281382742
 H   -0.5072919464    1.9259594801   -0.8786539692
 H   -0.5228702661    1.8986711162    0.8940983912
 H    0.2198083144   -0.2555442005    2.1404186163
 H    0.7328860420   -1.6693884429    1.2015428793
 H    1.7671888394   -0.2369254308    1.2959277859
 H   -2.0729216967   -0.0834624682   -0.7559426847
 H   -1.5635924399   -1.5597175695    0.0978849776
 H   -1.8884196027   -0.0795433488    0.9957460215
 H    2.3937652985    0.4816624919   -0.5854121911
 H   -1.0104215615   -1.4812961774   -1.9509410235