19

 O    0.0324019806    1.4573774512   -0.1737340167
 C   -0.0074687168    0.0749619289    0.1505564982
 C   -1.3607184764   -0.4836333471    0.1513347309
 C   -2.4855872861   -0.9166011869    0.0965321335
 C   -3.8473488000   -1.4448264142    0.1010510224
 C   -3.8424726023   -2.9868733350   -0.0014520439
 O   -5.1493477598   -3.5287900495   -0.0493603393
 C   -4.6091558351   -0.9627297650    1.3565871862
 O   -4.7024007962    0.4430616770    1.4238082656
 H   -0.4260743581    1.5705032002   -1.0129812780
 H    0.6283608211   -0.5166584102   -0.5273898361
 H    0.4361304648   -0.0079355250    1.1488751251
 H   -4.3789754272   -1.0448351159   -0.7753749722
 H   -3.2388676504   -3.2940542998   -0.8667937565
 H   -3.3718298676   -3.4091664633    0.8923588318
 H   -5.5428835251   -3.2878135315   -0.8942607050
 H   -5.6299613985   -1.3489981598    1.3186498697
 H   -4.1207919009   -1.3854526804    2.2491644272
 H   -3.8016288160    0.7883246364    1.4299411572