20

 C   -0.3610868328    1.4699908922    0.1283053336
 C    0.0761573991    0.0215903473   -0.0226055291
 C   -1.0546800213   -1.0320308409    0.2233842186
 C   -0.3952575782   -1.4105379024    1.5781327426
 C    0.8747477780   -0.6231570275    1.1521305304
 C    1.9095983558   -1.4787723405    0.4579359202
 N    2.7174554410   -2.2596186640    1.0344591135
 O    1.8315043986   -1.3180377729   -0.9009833251
 C    0.9535714830   -0.2356977179   -1.2487337256
 H    0.5004163961    2.1458613567    0.1665429645
 H   -0.9944522848    1.7790119963   -0.7116367305
 H   -0.9412030075    1.6139215166    1.0455379457
 H   -2.0709592889   -0.6331291863    0.2670601475
 H   -1.0349776200   -1.8490055060   -0.5032401271
 H   -0.8920173920   -0.9440867897    2.4319704221
 H   -0.2505815574   -2.4704253654    1.7928374471
 H    1.3390546931    0.0195803115    1.9020493528
 H    3.3134789578   -2.7282176073    0.3495899149
 H    0.3865134062   -0.5354436199   -2.1355448842
 H    1.5622367640    0.6422921502   -1.5037504718