15

 C   -0.0559299741    1.4769791622    0.0198033944
 C   -0.0689905994   -0.0101154693   -0.0721192518
 C    0.7858517374   -0.9956805744   -0.7940040973
 C   -0.2997983158   -2.0924467073   -0.7075720654
 C   -0.2237562364   -1.9475877855    0.8036622225
 N    0.8745916552   -0.8924392110    0.7107303375
 C   -1.1974717127   -1.0983834925    0.0508474972
 O   -2.5552751535   -1.0394125673    0.1871660454
 H    0.9764230062    1.8407570159    0.0164002741
 H   -0.5838251942    1.9349753100   -0.8240751181
 H   -0.5319144977    1.8170326313    0.9458283107
 H    1.6496886046   -0.8581035626   -1.4357547550
 H   -0.5699832790   -2.9396559414   -1.3217288251
 H   -0.3374051336   -2.6588027254    1.6118257852
 H   -2.9499316171   -0.8888129826   -0.6797710944