17

 O    0.2144834974    1.4197441851   -0.1285355281
 C    0.0518977612    0.0099281317   -0.0799006206
 C    0.7611582284   -0.6300600094    1.1170674898
 C   -0.0815846988   -1.2191127485    1.9814059421
 C   -1.4603388694   -1.1678009727    1.4332859551
 C   -2.8136946178   -0.5273592260    1.7982941419
 C   -2.7251629387    0.2889296843    0.4527848931
 C   -1.3917603677   -0.4271638428    0.1609737148
 O   -1.6186922969   -1.8298477916    0.1584332778
 H    0.1149340826    1.7519177726    0.7705073776
 H    0.4441218855   -0.3656401000   -1.0307712500
 H    1.8424869982   -0.6101355270    1.2062107897
 H    0.2042069597   -1.7077698350    2.9054911297
 H   -3.6474314326   -1.2242839532    1.9038344214
 H   -2.7618787892    0.1130772862    2.6813760268
 H   -3.5137143581    0.1278900238   -0.2852626921
 H   -2.5989154139    1.3600733325    0.6202516709