16

 C    0.0024526137    1.3638924272    0.0176112536
 O   -0.0485899547   -0.0610617583   -0.0134083686
 C   -1.2604552118   -0.6324951019   -0.0081960661
 N   -2.3374755694    0.1500753451    0.0265794376
 C   -3.5076870193   -0.5065810219    0.0302742690
 C   -3.6127464134   -1.8791091823   -0.0013275604
 C   -2.3951514267   -2.5914950333   -0.0361155770
 N   -2.3595743442   -3.9554593335   -0.1106161587
 N   -1.2175075591   -1.9645423599   -0.0347251066
 H    1.0642912576    1.6146473392    0.0077051994
 H   -0.4979285139    1.7968372991   -0.8529052010
 H   -0.4722561963    1.7574715499    0.9206126619
 H   -4.4007736754    0.1139188183    0.0603859474
 H   -4.5720910853   -2.3812021125   -0.0042363024
 H   -3.1716253566   -4.4783964569    0.1695628777
 H   -1.4631895751   -4.3801608584    0.0675697942