22

 C    0.3780197057   -3.9726853464    3.5959489351
 C    0.1450884135   -3.1116972876    2.3624974439
 O    0.5612999104   -1.9693039995    2.2882731852
 N   -0.5529629688   -3.7183421210    1.3557981644
 C   -0.9019253559   -3.0460241650    0.1143859894
 C   -2.4033403796   -2.9280562393   -0.0950411073
 C   -3.1326132308   -2.0874735093    0.9347629574
 C   -2.8867211670   -2.8914892166   -1.5227378073
 C   -3.1172555479   -4.1266126319   -0.6835304971
 H    1.4548697231   -4.0646687912    3.7603795747
 H   -0.0406861106   -3.4596966468    4.4657217861
 H   -0.0577125144   -4.9730906273    3.5278355618
 H   -0.8993380000   -4.6526437623    1.4990309724
 H   -0.4361391394   -2.0585034498    0.1701745077
 H   -0.4540155106   -3.5808589344   -0.7334148533
 H   -2.7591200520   -1.0574346261    0.9372370814
 H   -4.2069383880   -2.0570553495    0.7294175769
 H   -2.9946892729   -2.4908277336    1.9433639783
 H   -3.7401520006   -2.2628261684   -1.7527173976
 H   -2.1519313535   -2.9472841616   -2.3194493539
 H   -2.5370428544   -5.0131787290   -0.9214843043
 H   -4.1273536963   -4.3370890336   -0.3485104339