19

 C   -0.2338621600    1.3482320776   -0.0444765649
 O   -0.2168577208   -0.0517881053   -0.1658665606
 C    0.8266002709   -0.5150098321   -1.0019002856
 C    0.7937303320   -2.0193093129   -1.0173077240
 C   -0.1336475693   -2.7600385953   -1.9507032180
 C    1.3587436163   -2.8398233528   -2.1575505875
 C    2.0200837313   -2.2358378289   -3.3789718932
 H    0.7039592114    1.7358112379    0.3863815650
 H   -0.3897557989    1.8443323572   -1.0166459951
 H   -1.0609597165    1.6109957623    0.6199296839
 H    0.7066939607   -0.1042827076   -2.0177544530
 H    1.7988732986   -0.1522010617   -0.6231891490
 H    0.9142347589   -2.4486075719   -0.0264375358
 H   -0.6661227174   -3.6282808649   -1.5786233849
 H   -0.7021994021   -2.1609162768   -2.6560085723
 H    1.8186988148   -3.7726692406   -1.8404404388
 H    1.5077020604   -1.3324009723   -3.7213380686
 H    3.0658008796   -1.9724460587   -3.1832446014
 H    2.0094931101   -2.9486843732   -4.2110201364