15

 N   -0.0644867029   -1.1458024133   -0.3510947612
 C   -0.0314348343   -0.0042401113   -0.1639956735
 C    0.0006527267    1.4128821600    0.0718146906
 C    0.4687505744    2.3137675434   -1.0724355081
 C    1.3591792655    2.0899628969    0.1065260653
 O    1.5824172803    3.1265624957    1.0212039185
 C    0.5207393204    3.5688631806    1.7496793798
 N   -0.6599301244    3.1317784484    1.7997907733
 C   -1.0529483762    1.9570188000    1.0439892759
 H    0.7368975345    1.8500602069   -2.0138968167
 H   -0.0288930330    3.2747999223   -1.1481957679
 H    2.2503245867    1.4847729914   -0.0022679564
 H    0.8270208263    4.4254372545    2.3448405192
 H   -1.9796630946    2.1868596660    0.5050038422
 H   -1.3042005495    1.1695369586    1.7631768589