16

 C    0.1246798112    1.4989838813   -0.0587807777
 O    1.2263768934    0.5840823568    0.0013696638
 C   -0.0779053899    0.0485802535   -0.0028599068
 C   -0.6813467280   -0.8200447440    1.1110513521
 C   -1.3845533994   -1.6860962355    0.0139649386
 C   -0.6219252029   -0.8992658613   -1.0640850528
 C   -0.8703091463   -0.7139999517   -2.4939885735
 O    0.2096019251   -1.5290879400   -2.0218983882
 H   -0.0370639700    2.0976888362    0.8371191951
 H    0.0102175921    2.0308234933   -1.0025191987
 H    0.0854779016   -1.3661022448    1.6654004066
 H   -1.3364414651   -0.3075997094    1.8184187874
 H   -1.1463884115   -2.7510807985    0.0320148466
 H   -2.4690570902   -1.5611615046   -0.0288315130
 H   -1.6900038418   -1.2504136482   -2.9713927823
 H   -0.5737378682    0.2130399670   -2.9837493671