19

 C   -0.1548856792    1.5232011751   -0.1165302417
 C    0.0218459950    0.0336765104    0.0779156364
 C    1.3394248792   -0.6771690627   -0.1043452562
 O    2.5247401732    0.0944374759   -0.1753883893
 C    2.7541627174    0.6433627873    1.0996089408
 C    3.0582617384   -0.2907733272    2.2573834431
 C    1.6656699371    0.2846768930    2.0575042459
 O    1.1648942046    1.2477799849    2.9341801176
 C    0.7287055004   -0.5978384087    1.2732120949
 H    0.7284450583    2.0862837145    0.1862172814
 H   -0.3485897470    1.7473998274   -1.1709377918
 H   -1.0013326623    1.8944219030    0.4696595442
 H   -0.8258717133   -0.5572968749   -0.2632734822
 H    1.4087586371   -1.5934287767   -0.6795984290
 H    3.2014736571    1.6298311500    1.0743505748
 H    3.2308671461   -1.3430295190    2.0584949577
 H    3.6461324416    0.1408814990    3.0606944307
 H    0.9013630172    0.8018489394    3.7467393609
 H    0.2915555692   -1.4670486008    1.7568434618