12

 O   -0.0700110045   -0.0042933581   -0.0008888803
 C   -0.0064558502    1.1961547533    0.0060923929
 C    1.2917292417    1.9741284756   -0.0013159977
 N    2.3711174657    1.2645560305   -0.0186520710
 O    3.5759587327    1.9312698553   -0.0259836269
 C    3.6167854172    3.2775841638   -0.0152392089
 C    2.5348152049    4.0747079968    0.0028039916
 C    1.2208105198    3.4633424637    0.0115852708
 O    0.1547804428    4.0570496461    0.0278727978
 H   -0.8957840368    1.8498130073    0.0188873212
 H    4.6465351782    3.6171000613   -0.0233099239
 H    2.6355435584    5.1523125243    0.0106769246