16

 N   -0.2001037270    1.4152628246    0.1889543318
 C   -0.0930053051   -0.0130640645    0.1441646701
 C   -0.7830869302   -0.7939114282    1.2156300756
 C   -1.3708135326   -0.8133781912   -0.1881415931
 C   -2.6662591893   -0.0462494185   -0.4509887738
 C   -3.8243413471   -0.6312675944    0.2235277632
 N   -4.7335047174   -1.0864232154    0.7720897385
 C   -1.1862971807   -2.0084208577   -0.9685438731
 N   -1.0240831885   -2.9567850113   -1.6111324668
 H    0.3123586825    1.7904294557    0.9799722839
 H    0.1751936098    1.8404785659   -0.6519905201
 H    0.8151211121   -0.4567045459   -0.2627361099
 H   -0.3214339892   -1.7012302040    1.5841373698
 H   -1.3538858522   -0.2346334010    1.9491799750
 H   -2.5223498611    0.9805663390   -0.0993732117
 H   -2.8664456439    0.0004759170   -1.5262998493