20

 C   -0.0097991301    1.4592832442   -0.0383731651
 N   -0.0137497063    0.0148343856    0.0688928387
 C   -1.3538203843   -0.5736182003   -0.0258666714
 C   -1.2710009843   -1.9743969381    0.5704507174
 O   -0.0715039769   -2.6030343177    0.0299107311
 C    0.6227223416   -2.1060904043    1.1746560791
 C   -0.6536132595   -1.9632296885    2.0204908407
 C   -0.2124296853   -0.5729062737    2.5074230997
 C    0.6906048419   -0.5149299640    1.2269417012
 H    1.0210970400    1.8282800229   -0.0433553496
 H   -0.4777510998    1.7544450511   -0.9840265173
 H   -0.5533778963    1.9740131546    0.7772633869
 H   -2.1201498440    0.0122887143    0.5160477288
 H   -1.6620006956   -0.6200668369   -1.0775595093
 H   -2.1679860950   -2.5729413907    0.3972905602
 H    1.5235244444   -2.6646192285    1.4337394069
 H   -1.0292249952   -2.7291405277    2.6991898937
 H   -0.9607323757    0.2148780744    2.6341841358
 H    0.3738086671   -0.6535277406    3.4278184199
 H    1.6723616033   -0.0448171659    1.3101919726