20

 C   -0.2418733430    1.5825031642    0.0284009694
 C   -0.0086921360    0.0732502939    0.0202503817
 C   -1.3263857495   -0.6660607683   -0.2378167084
 C    1.1340212325   -0.5015829503   -0.9010426890
 C    1.7223419736   -1.2325273485    0.3124002361
 C    2.1775864268   -0.2422475563    1.3625616414
 C    2.7995126602    1.0147829866    1.0378598226
 N    3.3284611965    2.0108317950    0.7776504186
 C    0.7015695740   -0.5748879884    1.2300163630
 H    0.6773872837    2.1486392297    0.1862025896
 H   -0.6719648734    1.9040091268   -0.9271517591
 H   -0.9508590527    1.8588776678    0.8173383922
 H   -1.7434750777   -0.3804182830   -1.2094519880
 H   -1.1858640158   -1.7521941881   -0.2346474714
 H   -2.0690179011   -0.4216778031    0.5303175611
 H    0.7546777074   -1.1726448444   -1.6738759391
 H    1.7976906465    0.2335292113   -1.3648383737
 H    2.1087079189   -2.2442345264    0.3237782830
 H    2.6286585434   -0.7109951617    2.2332594104
 H    0.1884514257   -0.9915834267    2.0905102797