20

 C    0.0083514256    1.5905562625    0.0263736111
 C    1.5331652580    1.7653414112   -0.0280456171
 C    1.7544316884    0.9033850832   -1.2967717293
 N    1.2964007980   -0.3865223649   -0.7120652324
 C    2.3490314730   -0.4874123837    0.3376261622
 C    2.0989926439    0.8183840566    1.1181095669
 O    1.0916440192    0.5160990146    2.0987163924
 C    0.0871998364   -0.3214066919    1.5108163991
 C    0.0057094356    0.0310425079    0.0214466422
 H   -0.4581118373    1.9907208992    0.9271743157
 H   -0.4756954770    2.0353010298   -0.8466462272
 H    1.9059431716    2.7902314505   -0.0204590648
 H    1.1284591886    1.2182815582   -2.1354646094
 H    2.7844128457    0.8169149022   -1.6483538845
 H    2.2480848712   -1.3716155202    0.9668247736
 H    3.3272120138   -0.5354375508   -0.1462671251
 H    2.9442252751    1.2376743422    1.6652138520
 H    0.2984347704   -1.3852120239    1.6827878261
 H   -0.8599820905   -0.0864100095    2.0072570514
 H   -0.8544532297   -0.4289712631   -0.4669187229