21

 C    0.0184597083    1.3497306178   -0.1708669278
 O   -0.0293548299   -0.0218594504    0.1853087579
 C   -1.2933646289   -0.5661746858    0.1060044902
 C   -2.3318125536   -0.4705145685    1.2364035019
 C   -2.7038206434   -1.9668365263    0.9721676986
 C   -1.6393573002   -2.0279848830   -0.1336414193
 C   -1.8928122730   -0.9795981822   -1.2126379813
 C   -3.2579286303   -0.6230119720   -1.7526138750
 O   -3.7376767537   -1.5906049049   -2.6783932296
 H    1.0603368685    1.6659759144   -0.0852468851
 H   -0.3234647035    1.5080870243   -1.2033223444
 H   -0.5963492091    1.9666164395    0.4998025014
 H   -1.8422280435   -0.3419104836    2.2043614017
 H   -3.1246295091    0.2770084320    1.1384927408
 H   -2.4649031197   -2.6085896295    1.8222825767
 H   -3.7363417521   -2.1678508270    0.6698191318
 H   -0.9692562417   -2.8594960766   -0.3149152051
 H   -1.1273334834   -1.0300094942   -1.9848843292
 H   -3.9780933280   -0.4694785558   -0.9355162176
 H   -3.2079093374    0.3179115442   -2.3115999365
 H   -3.6673610463   -2.4499917525   -2.2493295000