19

 O    0.0276189173    0.0165045587   -0.4707974987
 C    0.0816124277    1.2077694569   -0.4111331869
 O    1.0858745879    1.8580405521    0.2163375643
 C    1.0010957084    3.2686674354    0.2660631298
 C    1.1363221384    4.0642346784   -1.0059751870
 C    2.2408883759    4.0867611722    0.0356968453
 C    2.2495649349    5.2213158072    1.0497414977
 C    0.7891246569    5.3023077030    1.5604793412
 C    0.2322623422    3.8668343636    1.4327957538
 H   -0.6594952066    1.8960755962   -0.8577556335
 H    1.3505557237    3.5004547813   -1.9072055856
 H    0.5103216102    4.9368967209   -1.1631369700
 H    3.1695915404    3.5911245954   -0.2219543671
 H    2.9296595780    4.9618145899    1.8693315899
 H    2.5945308864    6.1726093241    0.6320818579
 H    0.7254245474    5.6812711294    2.5831413342
 H    0.2074030042    5.9874119461    0.9361152203
 H   -0.8545436760    3.8455412689    1.2982925504
 H    0.4656139625    3.2725198102    2.3238055739