23

 C   -0.0566109223    1.3821889032    0.0104510049
 O   -0.0221347880   -0.0237766645    0.0049796934
 C    0.6860669107   -0.5633655995    1.1013684409
 C    0.6449469162   -2.0841626423    1.0195335531
 C    1.4834063561   -2.7341812470    2.1318614129
 C    1.3274609491   -4.2605356589    2.0978232705
 C   -0.1555220261   -4.6397862830    2.0944171081
 O   -0.8523377102   -4.0243668513    1.0256661245
 C   -0.7959780840   -2.6101338365    1.0896568325
 H    0.9551171357    1.8162712061   -0.0360218614
 H   -0.6175694786    1.7004290730   -0.8716729731
 H   -0.5553745396    1.7764784506    0.9104435955
 H    1.7322522850   -0.2102875052    1.0944855781
 H    0.2385633912   -0.2191522875    2.0517812526
 H    1.0573526308   -2.3796704741    0.0458050701
 H    2.5376103211   -2.4493051074    2.0369001510
 H    1.1426122178   -2.3571700926    3.1074350730
 H    1.7962777097   -4.6613467048    1.1908945582
 H    1.8271151055   -4.7240522621    2.9562873963
 H   -0.2902195472   -5.7181584302    1.9674324800
 H   -0.6149056979   -4.3537600563    3.0580384307
 H   -1.2682496720   -2.2537849537    2.0244042144
 H   -1.3843325230   -2.2346341959    0.2505622238