21

 C   -0.1961234351    1.5066935652    0.0691082168
 C   -0.0011746798   -0.0061752350    0.0299825666
 C    1.1425531720   -0.4753422488   -0.9205501472
 C    2.0797491989   -0.6104570545    0.3105204679
 C    0.8251346756   -0.5984623861    1.2180033635
 N    0.9087297997    0.1870875545    2.4329891840
 C   -0.0470850816   -0.1444051403    3.4874102039
 C    1.3871609624   -0.5170685320    3.6200067358
 H    0.7496101677    2.0327929357    0.2288002538
 H   -0.6249930279    1.8571315133   -0.8763302029
 H   -0.8708107135    1.8007375866    0.8787678469
 H   -0.9672437769   -0.4943922114   -0.1325506045
 H    0.9286610652   -1.4399866345   -1.3886452298
 H    1.4456402706    0.2273762327   -1.7010090069
 H    2.7339952665   -1.4837992898    0.3642141038
 H    2.6793548595    0.2886886681    0.4731603246
 H    0.4940645455   -1.6320034615    1.4240910284
 H   -0.4527906898    0.6979173006    4.0404174452
 H   -0.7550638309   -0.9504134634    3.2996004621
 H    1.6380023340   -1.5722335764    3.5205922958
 H    2.0475266081    0.0477782071    4.2717900423