18

 C   -0.4835816047    1.3826940670   -0.0534885202
 C    0.0627455176   -0.0271839312    0.0247325828
 O    1.2146861082   -0.2532565974   -0.8991847237
 C    2.0843372258   -0.3337251937    0.2361035335
 C    2.7863739034    0.7975888974    1.0027496156
 C    2.1919188420   -0.1277725921    2.0936493302
 C    2.4928835811   -1.4519669369    1.2660091435
 N    1.1120744959   -1.9787123030    1.4476140694
 C    0.9319174722   -0.4965237157    1.2246894616
 H    0.2728119856    2.1326463515    0.1843393937
 H   -0.8548771435    1.5803243188   -1.0636999483
 H   -1.3163857731    1.4930675176    0.6488580414
 H   -0.7245482980   -0.7557074862   -0.1990919887
 H    3.8770778533    0.8476451694    0.9442975264
 H    2.3512354533    1.7962209404    0.9325826212
 H    2.2666533364   -0.0410931402    3.1790379806
 H    3.3895259509   -2.0765069878    1.3422790080
 H    0.8426578935   -2.4841326478    0.5979010330