17

 C    0.0695195679    1.4053985454   -0.0492425240
 C    0.2975812934   -0.0752087413    0.0210025490
 N    0.4592047543   -0.7434337761    1.1027549625
 O    0.3967026134    0.0732073492    2.2245173995
 C    0.3318605016   -0.8509529377   -1.2690669504
 O    0.1520479691   -0.2934369820   -2.3342314864
 N    0.6593430692   -2.1943883658   -1.1800936967
 C   -0.1163715683   -3.2353692478   -0.5408621538
 C    0.0678795813   -3.2009580337   -2.0300035271
 H    0.9029998600    1.9369649522    0.4207665487
 H   -0.0303630810    1.7131504717   -1.0887187144
 H   -0.8317706244    1.6783177918    0.5090893865
 H    0.5444524202   -0.5489529208    2.9460700401
 H    0.4454746485   -3.9381325736    0.0673671267
 H   -1.0914926776   -2.9656338332   -0.1450080296
 H   -0.7723495407   -2.8922398671   -2.6462249242
 H    0.7630440433   -3.8870444812   -2.5050238962