16

 C    0.0182051076    1.3208176134    0.0542166541
 O    0.0394558564   -0.0908502769   -0.1284455391
 C   -1.1469495917   -0.7125616947   -0.0060533713
 N   -1.2417843757   -1.9556184229   -0.1740598279
 C   -2.5489180424   -2.5748828526   -0.0447913186
 C   -2.7946271281   -3.4473306198   -1.2803085779
 O   -1.7627942625   -4.3941807792   -1.4484450231
 H    1.0516193747    1.6567355559   -0.0356307258
 H   -0.5881651298    1.8153012719   -0.7140676006
 H   -0.3621595521    1.5915253989    1.0464958934
 H   -1.9884776161   -0.0506794922    0.2521191464
 H   -2.5366103142   -3.2258616738    0.8386901039
 H   -3.3671182626   -1.8452028064    0.0785157893
 H   -3.7333166236   -4.0009601686   -1.1676782620
 H   -2.8943310977   -2.7948239873   -2.1645246590
 H   -0.9416422322   -3.9043821657   -1.3066800017