17

 O    0.0603703045    1.3557984277    0.2780919047
 C    0.0022021047   -0.0315450476    0.1237132278
 C   -0.7015959056   -0.8892088344    1.1710781131
 C   -1.3428473327   -0.6054463644   -0.1513603506
 C   -2.6188123824    0.1473385921   -0.4848467238
 C   -2.7599270550   -0.9201294377   -1.6090762887
 O   -1.5638133351   -1.6103381230   -1.1401272974
 C   -3.9467521589   -1.7551091439   -1.5987469540
 C   -4.9404478197   -2.4312451094   -1.5913038276
 H    0.6840539397    1.5533680541    0.9850571611
 H    0.8453471811   -0.4902271390   -0.3936917412
 H   -0.3120082229   -1.8871913922    1.3434976143
 H   -1.1160484927   -0.3905293446    2.0421138696
 H   -3.4016827595    0.0985957395    0.2723520153
 H   -2.4838882997    1.1744302276   -0.8234217956
 H   -2.5916681470   -0.5176888145   -2.6153388250
 H   -5.8146604687   -3.0343441402   -1.5862033218