19

 C   -0.5417068341    1.5135217897    0.0526193758
 C   -0.0234517542    0.0748617794   -0.0008329699
 C    0.5903366481   -0.2953969243   -1.3707865870
 C    2.0759382881    0.0268908935   -1.4360365622
 O    2.3777090848    1.3603757604   -0.9122019898
 C    3.0775929932    0.7807418821    0.1865058031
 C    2.2265843960   -0.2077293659    0.9440376315
 O    0.8473036351   -0.1670286913    1.1204273939
 C    2.8926486036   -0.6440614342   -0.3263638084
 H    0.2537651895    2.2207399004   -0.1871492153
 H   -1.3590463841    1.6461405764   -0.6653698978
 H   -0.9269085417    1.7288374275    1.0530884541
 H   -0.8713338835   -0.5968279420    0.1787678450
 H    0.4776436619   -1.3682262102   -1.5694188168
 H    0.0402425129    0.2370513683   -2.1534927802
 H    2.4906277608   -0.0799695163   -2.4419032706
 H    3.9290274338    1.3241639919    0.5816543562
 H    2.6923994433   -0.5760513784    1.8542772175
 H    3.5627664865   -1.4860849670   -0.4414376191