19

 C   -0.2718200186    0.2933161177   -0.6275106339
 C    0.5989494504   -0.0679010883    0.5770592978
 C    2.0225356636    0.4570631316    0.4413530526
 O    0.0703693246    0.5064232880    1.7818788731
 C   -0.9954260155   -0.1924875036    2.3595090061
 C   -0.5960807185   -1.4358718822    3.1652698909
 O   -1.4037102243   -2.2981960754    3.4313833047
 C    0.7778904638   -1.5015364909    3.6344730126
 C    1.9038727324   -1.5910721191    4.0514087859
 H   -0.3049658607    1.3797989136   -0.7553060889
 H    0.1364973135   -0.1522369931   -1.5400566247
 H   -1.2974733968   -0.0696563346   -0.5132684960
 H    0.6304122579   -1.1633490984    0.6872171474
 H    2.0164169815    1.5498855862    0.3783589702
 H    2.6200573701    0.1658634376    1.3082912307
 H    2.4945755267    0.0612650157   -0.4626770931
 H   -1.4807578645    0.4924236142    3.0672730746
 H   -1.7630465927   -0.5074239772    1.6397633594
 H    2.8961178871   -1.6718418219    4.4243971206