11

 O   -0.0003022147    1.4570627287    0.0099557961
 C    0.0048667211    0.0403137941    0.0023952818
 C   -1.3656573975   -0.4497988058    0.0127551399
 C   -2.4948112545   -0.8884615250    0.0210962924
 C   -3.7554203731   -1.3738002252    0.0304528065
 C   -4.8896221500   -1.8115079333    0.0389056087
 C   -6.1570090678   -2.3022247775    0.0484176536
 N   -7.2416157816   -2.7235836245    0.0566408190
 H    0.9167474425    1.7507471796    0.0029640199
 H    0.5108782223   -0.3644333006   -0.8898682548
 H    0.5276185332   -0.3738215104    0.8805881968