18

 C   -0.0275983826    1.5101564400    0.0219869443
 C    1.5021329367    1.6988878050    0.0293816849
 C    1.8169611084    0.9562707342    1.3522187125
 O    3.0867288688    0.2981574489    1.1939001995
 C    2.4220232288   -0.4533985151    0.1624848813
 C    1.0483763603   -0.3370183969    0.9098526422
 N   -0.0436124312    0.0195077838   -0.0679345987
 C    0.6783668265   -0.1346000776   -1.3661515705
 C    1.9991509870    0.5409385144   -0.9479035260
 H   -0.4987852120    1.8516368015    0.9493967868
 H   -0.5629369328    1.9522953037   -0.8215364701
 H    1.9282010503    2.6913913617   -0.1035251092
 H    1.6916067304    1.4751933731    2.3023188980
 H    2.9188618196   -1.3840614893   -0.1108330570
 H    0.7872222810   -1.0807932822    1.6583082236
 H    0.8075745757   -1.1919227995   -1.6193094282
 H    0.1249276429    0.3497274779   -2.1740733717
 H    2.7409123120    0.7979361965   -1.7015639315