20

 C   -0.2830504558    1.4761273126    0.0012396158
 C   -0.1699007331   -0.0062177734    0.3038633202
 O   -1.3311439085   -0.6485440413   -0.2456255185
 C   -1.3782456154   -1.9953369854   -0.0766683942
 O   -0.5293673427   -2.6434841819    0.4983312258
 N   -2.5030655018   -2.4927234380   -0.6560218084
 C   -2.8879643178   -3.8825657099   -0.5412666090
 C   -4.2293293444   -4.0333324752    0.1628759321
 O   -5.1861715951   -3.3187547348   -0.6111062635
 H    0.5854789384    2.0053437327    0.4045102804
 H   -0.3241202320    1.6522811415   -1.0774751504
 H   -1.1849493876    1.8996635022    0.4525841020
 H    0.7289770715   -0.4446697870   -0.1412710616
 H   -0.1264489980   -0.1989690908    1.3808109965
 H   -3.1798357087   -1.8442831195   -1.0238808522
 H   -2.9586037402   -4.3399883604   -1.5366992867
 H   -2.1013301860   -4.3945008586    0.0165154015
 H   -4.4870746527   -5.1011788285    0.2356301265
 H   -4.1576032640   -3.6265692491    1.1823917308
 H   -6.0134026761   -3.2868332752   -0.1227496971