17

 C   -0.1197796133   -1.2527408682   -0.1416305616
 C   -0.0621797801   -0.0546114295   -0.0504439880
 C    0.0381849927    1.3870996714    0.0534801113
 N   -0.2870667950    2.0106081162    1.4058254231
 C    0.7431620145    1.5310288900    2.3480442343
 C    1.1107364417    2.6188654741    1.4198525949
 C    1.4380133704    2.0467224118    0.0650343639
 C    2.7068443110    1.5854649718   -0.5311213923
 N    2.0256989962    2.8058170103   -1.0214256728
 H   -0.1857296167   -2.3100188400   -0.2199607238
 H   -0.6115069317    1.8687594594   -0.6851795011
 H    0.5153926905    1.7967855354    3.3755018412
 H    1.1599659785    0.5362393397    2.2129069291
 H    1.2856756812    3.6455585481    1.7214154083
 H    3.6499706604    1.7626700780   -0.0215969539
 H    2.6737791545    0.6851969372   -1.1395656919
 H    1.5426134851    2.6185022943   -1.8974150808