16

 N   -0.0645891926    1.2752999489   -0.2631295082
 C   -0.0201431839    0.0460301129    0.0218323069
 O    1.1387820522   -0.6220282254    0.3167873500
 C    0.9971011250   -1.9953729884    0.6230313259
 C   -0.0141700295   -2.8442669077   -0.1247921454
 C   -1.0190926832   -2.0216273896   -0.9127529612
 C   -1.2338510258   -0.8479692993    0.0684373441
 O   -1.2592119550   -1.4636581709    1.3698761484
 C   -0.2544273657   -2.4445782355    1.3221001670
 H    0.8720625227    1.6845242091   -0.2366307866
 H    1.9586787580   -2.4169949810    0.8864296456
 H    0.2406943585   -3.8524959793   -0.4263781180
 H   -0.6527225788   -1.6751628580   -1.8825434336
 H   -1.9468323532   -2.5813463993   -1.0625141479
 H   -2.1444238112   -0.2696687156   -0.0676132286
 H   -0.2606784775   -3.1068513107    2.1780875915