21

 C   -0.0753620551    1.6246202754   -0.0261473301
 C   -0.0264549566    0.1046025236    0.0558210932
 C   -1.4021928368   -0.5854590569    0.0404991828
 C   -1.1593919519   -1.9536743134    0.6984790477
 C   -0.1689984021   -1.6277687895    1.8349516290
 C    0.7127554376   -0.4714781856    1.3069937259
 O    1.9841485892   -0.8768037643    0.8105031336
 C    1.8018619237   -1.1991230745   -0.5444372563
 O    0.7754595345   -0.3735505511   -1.0422573632
 H    0.9352319192    2.0395880868    0.0274147060
 H   -0.5232246865    1.9406297829   -0.9731736961
 H   -0.6705573054    2.0439634520    0.7913842763
 H   -2.1081513713    0.0000689289    0.6427295640
 H   -1.7998514798   -0.6445779373   -0.9755950530
 H   -2.0789886128   -2.4228550784    1.0585534277
 H   -0.7082522835   -2.6423254032   -0.0238379454
 H   -0.7196202730   -1.2805499934    2.7170264488
 H    0.4466721989   -2.4748288080    2.1477301233
 H    0.9092201159    0.2788803322    2.0760767018
 H    2.7342881340   -0.9954538165   -1.0837141053
 H    1.5337178920   -2.2641358599   -0.6664813006