12

 C    0.0501111884    1.4040143191   -0.0189949673
 O   -0.3061832901    0.0382972850   -0.2633506274
 C    0.4543577674   -0.6277012710   -1.1289079785
 C    0.8644008563   -1.9186342978   -1.1856894491
 N    1.5676111769   -2.1076507858   -2.3734434779
 C    1.5555247795   -0.9549657633   -2.9479197220
 O    0.8885536944    0.0144524543   -2.2563575997
 H    1.0804023003    1.4761884815    0.3469374798
 H   -0.0592012265    2.0063363448   -0.9251043380
 H   -0.6399813560    1.7590356648    0.7466233779
 H    0.7023253933   -2.7086950524   -0.4727034799
 H    2.0055349960   -0.6551954593   -3.8805236278