23

 C    0.0813739715    1.6188545155   -0.1180831135
 C   -0.0874836229    0.0956709964   -0.0593968369
 C    0.7214108634   -0.5309158482    1.0727005605
 C    0.7806568798   -2.0865227394    1.3156844193
 C    0.4614892394   -2.9402048107    0.0917022614
 C    2.3153399160   -1.9557804738    1.6480852951
 C    3.3487744517   -2.9703595050    1.1815242858
 C    2.2526441551   -0.5845603240    0.9616963383
 O    3.0666997166    0.0861859556    0.3886382264
 H    1.1325850166    1.8824364268   -0.2606448865
 H   -0.4964332151    2.0466359278   -0.9430906386
 H   -0.2623803351    2.0904388636    0.8095672480
 H   -1.1471110855   -0.1593006331    0.0705019755
 H    0.2202933243   -0.3396616646   -1.0167807672
 H    0.4681168880   -0.0374177553    2.0212415114
 H    0.1760629262   -2.4195732547    2.1628610263
 H    1.0486211333   -2.6428932829   -0.7840212624
 H    0.6738105840   -3.9962344144    0.2864538414
 H   -0.5959046937   -2.8578381578   -0.1787394204
 H    2.4231532114   -1.7817072896    2.7268873653
 H    3.2592191540   -3.1758527891    0.1113819413
 H    4.3572129523   -2.5843924722    1.3580471131
 H    3.2500604386   -3.9185903910    1.7195553365