20

 C    0.0441472980    1.5958865126    0.2600741427
 C    0.0598376195    0.0952049071    0.0734987976
 C    1.2604597997   -0.7141803118   -0.3983486684
 C    2.5264870546   -0.2102945029    0.2789283217
 O    1.9023380521   -0.2732457043    1.5930889492
 C    0.7228870384   -0.8642139708    1.0190931201
 C    0.0909077740   -1.9572286702    1.7951309818
 C    0.9259803134   -2.8703346936    2.6142110707
 N    0.0735187149   -1.8596090424    3.2674299832
 H    0.9104896108    1.9283486887    0.8367298015
 H    0.0458673658    2.1180765107   -0.7026100652
 H   -0.8524071021    1.9047037071    0.8074632102
 H   -0.8610559212   -0.3209141900   -0.3328455011
 H    1.2241350926   -1.3958781433   -1.2377305868
 H    3.3622746994   -0.9157815820    0.2219626118
 H    2.8782349095    0.7995863904    0.0391758710
 H   -0.8359559252   -2.3308398272    1.3655899719
 H    0.6124963239   -3.8996053991    2.7639919139
 H    1.9988896984   -2.7050340651    2.6062526828
 H    0.6600431535   -1.0739210040    3.5440727614