15

 C   -0.0508321772    1.4841941377   -0.0033532542
 C    1.4365785262    1.8565497615   -0.0283832042
 O    2.1606525759    1.4294080723    1.1190249447
 C    2.2440100807    0.6207655703   -0.0833068483
 C    1.2696197552   -0.4890934328   -0.0755829825
 N    1.2807663548   -1.8007345260   -0.0769824676
 C   -0.0507830141   -2.1482221683    0.0143817846
 C   -0.8583073216   -1.0336268566    0.0770943137
 N    0.0074998516    0.0278190007    0.0035314736
 H   -0.5500955340    1.8729404356    0.8896789277
 H   -0.5698067452    1.8599469092   -0.8922467141
 H    1.7418817871    2.8007803258   -0.4695274543
 H    3.2233458789    0.5412335197   -0.5388906568
 H   -0.3588167241   -3.1828014592    0.0285849305
 H   -1.9262602142   -0.9137837597    0.1494550172