20

 C    0.0404155257    1.5263946923   -0.0503398328
 C    0.2297239207    0.0258504869   -0.0153661987
 C    1.5928788847   -0.5682327811    0.2934142494
 C    0.4586985096   -0.6889746037    1.2822836621
 O    0.4564389770    0.0863954884    2.4454064564
 C    1.1187896595   -0.5109720498    3.5209982720
 C    2.5857594474   -0.2502499387    3.7428639132
 C    1.5376519056    0.3983275254    4.6281107435
 H    0.6137760320    2.0104049342    0.7434031768
 H    0.3646843482    1.9389670068   -1.0117386502
 H   -1.0119130912    1.7945125675    0.0930125474
 H   -0.3695317921   -0.5212633924   -0.7386986930
 H    1.9244152427   -1.4533775256   -0.2389811587
 H    2.3818793704    0.1331535786    0.5417331841
 H    0.0034678046   -1.6714918835    1.4143513788
 H    0.7343389131   -1.4977177218    3.7813042146
 H    3.2008119581   -1.0447746517    4.1513130787
 H    3.0863346201    0.3906150040    3.0270784017
 H    1.3516951256    1.4556373447    4.4771879671
 H    1.4250417782    0.0579764095    5.6511711475