21

 C   -0.0823388549    1.5482423564    0.0767835972
 C    0.1462273073    0.0734091887    0.0196551289
 O   -0.7588858496   -0.7809189500    0.7403724634
 C    0.6484831075   -0.9039978022    1.0021956912
 C    1.2425800258   -1.8038205663   -0.1008254977
 C    0.5724762770   -3.1518332657   -0.4214258658
 C    0.1599653889   -3.0184014064   -1.9060159156
 C   -0.2742938722   -1.5422749238   -2.0646247697
 C    0.7000794284   -0.7707842561   -1.1578735811
 H    0.8109600960    2.0917768346   -0.2481475579
 H   -0.9091044776    1.8399169848   -0.5814814124
 H   -0.3328521388    1.8593143119    1.0946131586
 H    0.9652158601   -0.7796590041    2.0326376981
 H    2.3331254529   -1.8530525928   -0.0580144136
 H    1.2257261709   -4.0106942161   -0.2439741875
 H   -0.3214187424   -3.2753325878    0.1974949596
 H    1.0269979386   -3.2184144459   -2.5487276956
 H   -0.6237852329   -3.7254275767   -2.1958242419
 H   -0.2512964912   -1.2090924648   -3.1059785877
 H   -1.2970532464   -1.4208881528   -1.6943633238
 H    1.4914329625   -0.2518517949   -1.7044912167