14

 O    0.5669685694    1.5595633848   -0.1938783367
 C    0.1473212222    0.2247766323    0.0167472850
 C    0.3708002164   -0.6082583031   -1.1893683344
 N    0.5569380774   -1.2526653594   -2.1299080449
 C    0.7870228160   -0.4024948196    1.2294110523
 C    1.2992163494    0.2820870357    2.2890140372
 O    1.7767925784   -0.5791194416    3.2213701007
 C    1.5627230487   -1.8357557848    2.7500674373
 C    0.9609603307   -1.7950549903    1.5345514533
 H    1.5274628859    1.5519012381   -0.2889859355
 H   -0.9390264069    0.2938880542    0.1560723066
 H    1.3852860834    1.3309225105    2.5154897363
 H    1.8980666297   -2.6381029721    3.3858354216
 H    0.6857250393   -2.6356302547    0.9173493112