18

 C   -0.2204151011    1.5667806936    0.0011075732
 C    0.0535257062    0.0614224620    0.0642618084
 C    0.9064867672   -0.4705187032   -1.1436620861
 N    1.7381931978   -1.6052294700   -0.6343177131
 C    1.8404821066   -1.3512868752    0.7489094658
 C    0.9387534194   -0.4311009113    1.1608725531
 O    0.9191027186   -0.3282790810    2.5164645521
 C    1.8804174757   -1.1934210627    2.9558752480
 C    2.4785526922   -1.8609197021    1.9220834149
 H    0.7162888971    2.1329577627   -0.0224901973
 H   -0.8000668455    1.8224027921   -0.8923429254
 H   -0.7917363984    1.8946997117    0.8747683814
 H   -0.9134683789   -0.4656745600    0.0857445891
 H    0.2824516831   -0.8000982444   -1.9782191546
 H    1.5470580477    0.3509259779   -1.4969702538
 H    2.6261712357   -1.6704980281   -1.1183601663
 H    2.0405561561   -1.2056226638    4.0215666053
 H    3.2601231806   -2.5988391983    2.0118382151