14

 O   -0.0929055409    1.4107490398    0.0184310408
 C   -0.0189349287    0.0312991023    0.0211043243
 C   -0.2418760381   -0.8340432507   -1.1867907745
 C   -1.1670066536   -0.9513348330    0.0142903603
 C   -0.4966278481   -1.7099624643    1.1979175253
 N    0.8621194554   -2.1601401466    0.7884986824
 C    0.6266797649   -0.7565970700    1.2137490748
 H    0.6642577224    1.7506524676   -0.4722618803
 H   -0.6949499128   -0.2952572839   -2.0138192139
 H    0.4346526052   -1.6354449479   -1.4551285406
 H   -2.2296186018   -0.7609194763   -0.0516178594
 H   -1.0208994595   -2.1853108074    2.0164041555
 H    1.2668268354   -2.6512226701    1.5859602786
 H    1.1558955702   -0.3033590993    2.0423043967