21

 C    0.1380737132    1.5625262294   -0.1657401876
 C    0.0306672076    0.0524640332    0.0754897147
 O    0.6503693298   -0.3290057022    1.2936249153
 C   -1.4174595479   -0.4791748001    0.0139119539
 C   -2.0483161499   -0.5042110696   -1.4153286148
 C   -1.7059309350   -2.0112853898   -1.5387501307
 C   -1.4688412632   -2.0544287840   -0.0077340041
 C   -2.2909079680    0.0760314028    1.1060172756
 O   -1.9017228707    0.6114591753    2.1198637118
 H    1.1896428482    1.8587696454   -0.1289050954
 H   -0.2625202173    1.8469271324   -1.1441548672
 H   -0.4016378935    2.1218455434    0.6032312100
 H    0.6012961535   -0.4635585123   -0.7077076766
 H    0.1297804672    0.0875573838    1.9942463811
 H   -3.1278433381   -0.3234220392   -1.3852865966
 H   -1.6093951036    0.1772054866   -2.1475506031
 H   -2.4860777801   -2.6637836620   -1.9359495333
 H   -0.7904732134   -2.1880420954   -2.1083333653
 H   -0.5650173457   -2.5314864914    0.3734207594
 H   -2.3305221735   -2.4533298335    0.5361977555
 H   -3.3832153393   -0.0811667329    0.9449012275