23

 C   -0.2454887774    1.4408191312    0.1743442617
 C    0.2442262574    0.0020162320   -0.0259520303
 C    0.8633002401   -0.5917640644    1.2266233420
 C   -0.0739736661   -1.2373090939    2.2120333656
 C    0.8721817936   -2.0901252637    1.3485079683
 C    1.5933418912   -2.5928356239    2.6208313913
 C    2.8176742707   -1.8008330680    3.1748633983
 C    1.8536322520   -0.9335766924    4.0525376046
 C    0.6353292063   -1.7308365998    3.4938365307
 H    0.5779750813    2.0992793421    0.4720863774
 H   -0.6784093417    1.8450720385   -0.7460845843
 H   -1.0083747305    1.4916894549    0.9579678391
 H   -0.5924247654   -0.6301656421   -0.3505117974
 H    0.9796254446   -0.0250336705   -0.8406293276
 H    1.7135622051   -0.0215429684    1.5954326950
 H   -1.1467262917   -1.1045149252    2.1182851979
 H    0.6362450280   -2.7120677574    0.4915086148
 H    1.6167505741   -3.6785685236    2.7197272095
 H    3.4972187220   -2.4200105363    3.7657696819
 H    3.4118705504   -1.2616789038    2.4323285999
 H    2.0036783375   -1.0758542567    5.1256282312
 H    1.8529164565    0.1409959619    3.8509931829
 H   -0.0302610577   -2.1965449204    4.2213530078