19

 C   -0.0123931112    1.5874631774   -0.0009915452
 C    0.0964160291    0.0645176130    0.0076618744
 C    0.7619943644   -0.5106337082   -1.2695030984
 O    2.0305343566    0.0762609290   -1.5089968592
 C    0.9102280659   -2.0258708418   -1.1430371533
 O    1.7793314024   -2.3136831682   -0.0534061142
 C    1.2122332474   -1.9453144635    1.1963430392
 C    0.8020247004   -0.4690911460    1.2550307687
 O    1.0000308472    0.1924400462    2.2456235059
 H    0.9746566268    2.0330686203   -0.1414345521
 H   -0.6571631509    1.9203269948   -0.8201662355
 H   -0.4233030203    1.9515480923    0.9422837215
 H   -0.9134853028   -0.3771853839    0.0518010647
 H    0.1392662975   -0.2645482743   -2.1376215205
 H    2.6639025609   -0.4059444681   -0.9613309602
 H   -0.0668715733   -2.5156728795   -1.0046034673
 H    1.3907919150   -2.4382536843   -2.0337851208
 H    0.3205171556   -2.5618471260    1.4096775877
 H    1.9591396994   -2.1380754491    1.9683508245