19

 C   -0.6529772123    2.4403728038    1.3069759065
 C   -0.6330511284    1.3558702234    0.2205112724
 C    0.4145019506    0.2734381499    0.5135796571
 C   -2.0148907285    0.7418409950    0.0866129144
 N   -3.0115164109    1.4526145145   -0.6995744410
 C   -2.5617053971    0.1244120386   -1.1734685157
 C   -1.7979142242    0.1168554449   -2.4513870268
 O   -1.6672247451   -0.8617892568   -3.1443459714
 H    0.3256139008    2.9220381732    1.3974692819
 H   -1.3933032255    3.2114174325    1.0740130632
 H   -0.9036316921    2.0121751228    2.2852639640
 H   -0.3852985825    1.8386287006   -0.7313898326
 H    0.1948185706   -0.2422288371    1.4560966864
 H    0.4454414185   -0.4804649074   -0.2794397687
 H    1.4130475472    0.7122289625    0.6030195034
 H   -2.3596823813    0.2464797621    0.9967383072
 H   -3.9386562735    1.3798254964   -0.2906306214
 H   -3.2134400705   -0.7371904086   -1.0493799822
 H   -1.3570451159    1.0983772396   -2.7292765668