15

 O    0.2195132537    1.1289300930   -0.0253955593
 C   -0.1110962770   -0.2055785265    0.0401871689
 C   -0.6677100986   -0.7952476472    1.2799629704
 N   -1.2304094769    0.1945821091    2.1673324763
 C   -2.3608895478    0.7212445133    1.5348882826
 N   -2.6050936713    0.2996280156    0.3518590570
 C   -1.6015304365   -0.6631306380    0.0229092561
 C   -1.9477078241   -1.7938681380   -0.8550512574
 O   -1.2138990865   -2.7368580204   -1.0531078574
 H    0.1115767408    1.4981860552    0.8618607334
 H    0.5170160744   -0.8529270150   -0.5636525613
 H   -0.3332509500   -1.7416563252    1.6883775482
 H   -1.2628321413    0.0046983067    3.1583175384
 H   -2.9506085667    1.4748210056    2.0456312425
 H   -2.9444811222   -1.7057621781   -1.3362469584