13

 N   -0.1626198253    1.4110894722    0.0177717370
 C   -0.0110631016    0.0156562156   -0.0127633949
 C   -1.0303787014   -0.9109538433   -0.0005859926
 N   -2.3719795618   -0.6285762686    0.0435867445
 C   -3.4357045667   -1.5166879290    0.0577506508
 O   -3.3485443313   -2.7142300412    0.0327613666
 O   -0.5526617967   -2.1287612662   -0.0371695492
 N    0.9456514813   -1.9405906298   -0.0773393115
 N    1.1499583035   -0.7131349212   -0.0600272056
 H    0.2751786035    1.8285723874    0.8328614992
 H    0.2277908363    1.8592729367   -0.8050531777
 H   -2.5682555433    0.3643805296    0.0678297370
 H   -4.3929806563   -0.9631017323    0.0958056865