17

 C    0.0278194942    1.4093432662   -0.0323383354
 N    0.0175135423   -0.0337650990    0.0421234307
 N   -0.0036820413   -0.7581322617   -1.0942091211
 C    0.0028432740   -2.0260215421   -0.6870970745
 C    0.0143866808   -2.1235424191    0.7203240504
 N   -0.0281268851   -3.2747489793    1.5452889468
 C    0.0140487317   -0.8098054516    1.1651833757
 C    0.0008865539   -0.2716195312    2.5554758008
 H    0.9188422918    1.8248263680    0.4505529149
 H    0.0326245358    1.6755124122   -1.0887285035
 H   -0.8604962713    1.8393294334    0.4432126144
 H   -0.0098703941   -2.8259179774   -1.4143955544
 H   -0.1991377402   -4.1080578843    0.9953793553
 H    0.8414864805   -3.4176782780    2.0481166483
 H    0.9706247291    0.1409551977    2.8629538697
 H   -0.7439923959    0.5222675182    2.6813479450
 H   -0.2520810763   -1.0813706919    3.2450919669