17

 O    0.2149610537    1.1381026841    0.7922715771
 C    0.0397890652   -0.1630269747    0.2528852363
 C   -1.4340802284   -0.4773788832   -0.0252399007
 C   -1.6965730585   -1.9842834440   -0.3235114913
 N   -2.2308278779   -2.5592607155    0.9241799249
 C   -2.4830510802   -1.5547505877    1.6840337948
 N   -2.2540719739   -0.2924553223    1.1785779787
 C   -3.0129203353   -1.7316529396    3.0612824698
 O   -3.1810878245   -0.8098257723    3.8222439484
 H    0.0172184659    1.7789888819    0.1010629354
 H    0.6293762441   -0.3112979208   -0.6649896643
 H    0.4245804737   -0.8546745608    1.0105324117
 H   -1.7943235039    0.1687808644   -0.8347667208
 H   -2.4380803925   -2.1153483711   -1.1209825767
 H   -0.7926904214   -2.5194946165   -0.6353860010
 H   -1.9974437345    0.4437315696    1.8231115292
 H   -3.2179726315   -2.7859846814    3.3272586885