17

 C   -0.0390498832    1.4406390611   -0.1375790216
 C   -0.0230748115   -0.0135370671   -0.0709767636
 C    0.0108536171   -1.2179621144   -0.0254907952
 C    0.0094018145   -2.6684146392    0.0470018519
 N    0.1012666036   -3.2362415877    1.4145852114
 C   -1.2690079816   -3.5000115978    1.5115860003
 N   -2.0935402285   -3.7525468068    2.4333450991
 C   -1.4519570129   -3.3029219939   -0.0030535322
 O   -2.5120968849   -2.5543140450   -0.4821337034
 H    0.9721793146    1.8422070375   -0.2638032146
 H   -0.6433785960    1.7900004439   -0.9816783727
 H   -0.4594239091    1.8761827331    0.7752894316
 H    0.7356002637   -3.1032494638   -0.6462505067
 H    0.6602904078   -2.8245484498    2.1504884111
 H   -1.6484943999   -3.7513244319    3.3535885109
 H   -1.4493151468   -4.2481885116   -0.5504022242
 H   -2.5342493370   -1.7195615665    0.0011464078