17

 C   -0.1536974027    0.7825829569   -0.6913854060
 O   -0.0134466153    0.9604152130    0.7110305853
 C    0.7708788226    0.0464832761    1.3115639983
 C    1.4930253528   -1.0447578660    0.8958661220
 N    2.1427422298   -1.6066922432    1.9809668072
 C    1.8127550033   -0.8816159373    3.0208226646
 C    2.2345805947   -1.0891326412    4.4390949887
 O    2.5806419227    0.1347791059    5.0842325603
 N    0.9699886218    0.1456622316    2.6645847039
 H   -0.6066050334   -0.1902694742   -0.9188539137
 H   -0.8063146402    1.5829273780   -1.0413803288
 H    0.8191248235    0.8512332246   -1.1937447163
 H    1.5908723322   -1.4500483517   -0.0976279505
 H    1.4140525946   -1.4988595443    5.0404942630
 H    3.0494862259   -1.8236206845    4.4465797087
 H    3.3424371062    0.4981298041    4.6195424720
 H    0.6204931317    0.8722806323    3.2673036814