21

 C    0.0711153648    1.4929561126   -0.3191426587
 C   -0.1707923965    0.0491175786    0.0667152575
 C    0.9866377231   -0.8410509264    0.2382372921
 O    0.3131388842   -0.3018521186    1.3860034280
 C   -1.5473218166   -0.4898249778   -0.2755885989
 C   -1.9031910249   -1.9238710569    0.2201940412
 C   -2.7298785373   -1.3108030821    1.3880955520
 O   -2.0937942775   -1.3472965786    2.6393906684
 C   -2.6772168552    0.0647616254    0.6555901932
 H    1.0395026154    1.8347381154    0.0536707552
 H    0.0559046827    1.6047770485   -1.4085090730
 H   -0.7047169229    2.1437060008    0.0955191253
 H    0.8831360419   -1.9142844604    0.0969157722
 H    1.9903111214   -0.4509629301    0.0765105654
 H   -1.7161723788   -0.3226636373   -1.3439801603
 H   -2.5200725507   -2.4598480990   -0.5059215382
 H   -1.0896068302   -2.5810691453    0.5352538288
 H   -3.7282070967   -1.7283803849    1.5408101699
 H   -1.1780898729   -1.0593454374    2.5021256094
 H   -2.4230251298    0.9125595448    1.2971848822
 H   -3.5953327733    0.2964292288    0.1094250484