17

 C    0.7417291504    0.2599317277    0.8823914523
 C   -0.2707666876    0.4474962182   -0.2282939630
 O   -0.1348510060    1.2570225949   -1.1208248453
 C   -1.4366579818   -0.4152064434   -0.1599098082
 C   -2.4017755780   -1.1389173046   -0.0972820761
 C   -3.5845094759   -1.9638224230   -0.0593056391
 C   -4.8463210320   -1.3439306001   -0.6220990208
 C   -3.4111661191   -3.4345812946   -0.0412850685
 O   -3.7561490339   -2.7356166160    1.1463026734
 H    1.5731845468    0.9513461518    0.7385175260
 H    0.2695881553    0.4357078203    1.8549811312
 H    1.1074480270   -0.7725338170    0.8877896522
 H   -4.7043479101   -1.0723679311   -1.6720291485
 H   -5.6756534515   -2.0505862896   -0.5422773331
 H   -5.1046901308   -0.4372792343   -0.0678269083
 H   -4.1969401864   -4.0519401853   -0.4755057759
 H   -2.4091717966   -3.8584334039   -0.0660258783