15

 C   -0.6268445980   -0.8978351410   -0.7538812236
 C   -0.2393198404    0.1486517652   -0.3057120621
 C    0.2438369377    1.3918451798    0.2548032859
 C    0.0935583471    1.6281270128    1.7917102094
 C    1.5267682896    2.2552719741    1.8104894907
 C    1.7847056997    1.5905665782    0.4178733169
 C    1.5294834765    3.7100921042    1.7740967145
 N    1.5236165179    4.8659762380    1.7355015361
 H   -0.9752783965   -1.8164242651   -1.1570218018
 H   -0.1803528359    2.2410881673   -0.2906999154
 H   -0.7324378374    2.2580379431    2.1217575002
 H    0.0793473546    0.6854690673    2.3410958060
 H    2.1779891274    1.9223084921    2.6212230964
 H    2.3000476423    0.6361855553    0.5370518404
 H    2.2933570355    2.1908976887   -0.3363633536