13

 O   -0.0406129344   -0.0647303884    0.0001535011
 C    0.0034908998    1.1459193695    0.0096760243
 C    1.2467320653    1.9147688327    0.0021069918
 C    1.3600807013    3.2908069382    0.0123227433
 O    2.6745362182    3.6416471063    0.0004804647
 C    3.3987091378    2.4863674824   -0.0173259937
 C    2.5848096142    1.4036099818   -0.0172471000
 C    0.3982081813    4.3132685545    0.0316738270
 C   -0.4385085921    5.1796304297    0.0485787512
 H   -0.9211342036    1.7598947603    0.0253170019
 H    4.4682559293    2.6160755718   -0.0282732311
 H    2.8674988712    0.3637362744   -0.0291432858
 H   -1.1767473782    5.9435200369    0.0641573053