23

 C   -0.0194230984    1.5497027857   -0.0735349813
 C   -0.0198928217    0.0284866200    0.1168040282
 C   -1.3880465066   -0.5875581249   -0.0215853119
 C   -2.2677797261   -0.5461152603   -1.3027697906
 C   -3.0721654046   -1.6252770674   -0.5049243297
 C   -4.0918681631   -2.5419806896   -1.1359250623
 C   -1.6825424108   -2.1102693829    0.0269188731
 C   -3.5085443768   -0.7679186445    0.6942218266
 O   -2.2853758686   -0.0674088323    0.9886864761
 H    0.9847140517    1.9611193972    0.0653556652
 H   -0.3561670806    1.8227368299   -1.0792634250
 H   -0.6905350818    2.0258895884    0.6454227999
 H    0.6478707869   -0.4461152234   -0.6119063098
 H    0.3688139795   -0.2227844636    1.1115294914
 H   -2.7648815842    0.3975042083   -1.5436154985
 H   -1.7697131625   -0.9605667096   -2.1823246324
 H   -3.6622661212   -3.0947337173   -1.9775484158
 H   -4.4671622245   -3.2749667495   -0.4122552129
 H   -4.9527132036   -1.9772637448   -1.5125665394
 H   -1.1258272053   -2.6835834238   -0.7177765714
 H   -1.6402859011   -2.5955360778    1.0062319522
 H   -4.3070643372   -0.0562983447    0.4468097630
 H   -3.8234510995   -1.3653240231    1.5595825253