17

 O   -0.1492496696    0.9999797573   -0.8531399575
 C   -0.1107243088   -0.1728646866   -0.0677217091
 C    0.4104270906   -0.0006749832    1.3405943723
 C   -0.3310927573   -0.6534101858    2.2322957280
 C   -1.4897670695   -1.3828988633    1.5925424896
 C   -1.5211168054   -0.8185452380    0.1601064729
 O   -2.5168938458    0.2151978867    0.1202628750
 C   -3.0899893377    0.4849633844   -1.0728330787
 O   -3.8495092901    1.3932235065   -1.2251854151
 H   -0.6632304544    1.6554917608   -0.3661527207
 H    0.5220533428   -0.8672262841   -0.6350851764
 H    1.3066756402    0.5730881387    1.5450647340
 H   -0.1353995524   -0.7043404426    3.2973191084
 H   -1.3188217034   -2.4669032615    1.5809109798
 H   -2.4458349747   -1.2160465105    2.0985303268
 H   -1.7585989158   -1.5719441804   -0.5969607995
 H   -2.7969231187   -0.2296074883   -1.8638798298