19

 O    0.1252210923    1.1759758836   -0.6997237652
 C    0.0260664745   -0.0613168742   -0.0030694358
 C    0.6136575591    0.0379371395    1.4287925825
 C   -0.2205238104   -0.6596146835    2.5116633583
 O    0.2485308066   -0.9880854754    3.5746835074
 C   -1.6626125152   -0.8922535552    2.1191743827
 C   -1.6372749662   -1.7609754005    0.8172844032
 C   -1.4564819613   -0.4339487802    0.0372926643
 C   -2.1726230133    0.2752071184    1.2182444444
 H    1.0537827886    1.4268756962   -0.7368394301
 H    0.5597018152   -0.8472897648   -0.5606917061
 H    1.6464348863   -0.3132972793    1.4968909612
 H    0.6221287592    1.1015214544    1.7010720330
 H   -2.2481998870   -1.2279953144    2.9747562529
 H   -0.8653397172   -2.5317089914    0.7259613260
 H   -2.6154055714   -2.2109498165    0.6336474629
 H   -1.8862932491   -0.3500383988   -0.9622514185
 H   -3.2592164758    0.2325141927    1.1137270001
 H   -1.8754422751    1.2971123693    1.4641293570