22

 C    0.0527519158    1.4177774983   -0.1294125174
 N   -0.1075095816   -0.0224491794   -0.1562416062
 C   -1.2589730039   -0.6439625210    0.2357087483
 O   -2.2452969987   -0.0331877981    0.6116813488
 C   -1.2162946754   -2.1692667991    0.1907391765
 C   -2.5520459246   -2.7674447991   -0.2706312231
 C   -2.5952068956   -4.2749653186   -0.1489853811
 C   -2.9557778105   -4.9197491870    1.1674562467
 C   -3.9127041836   -4.9899269874    0.0015379430
 H    0.8593524131    1.7198311948    0.5484812786
 H    0.2683968223    1.8152171734   -1.1276720018
 H   -0.8881235018    1.8393752754    0.2261204418
 H    0.6671061265   -0.5903482481   -0.4551708556
 H   -0.3926178059   -2.5222877738   -0.4419734898
 H   -0.9994778480   -2.5178765789    1.2090190014
 H   -3.3491609029   -2.3150011252    0.3278049561
 H   -2.7435461024   -2.4699591854   -1.3099039216
 H   -1.8423242166   -4.7973379432   -0.7358641629
 H   -2.4379887182   -5.8250874026    1.4646686291
 H   -3.2168000011   -4.2661001682    1.9938824048
 H   -4.8120667188   -4.3845931274    0.0495446827
 H   -4.0459335380   -5.9426234993   -0.4992344284