16

 C    0.1415932284    1.3883429486    0.1238966352
 N   -0.1674154119   -0.0089540351   -0.1184422264
 C    0.5278202770   -0.7281195953   -1.0556762035
 C    0.6755106345   -2.1146060815   -1.1797216664
 C    1.4456472243   -2.2690678953   -2.3659257138
 N    1.7573472032   -1.1164864967   -2.9272425689
 N    1.1875163395   -0.1831743990   -2.1031019741
 C    0.1622124240   -3.0756490889   -0.2886602791
 C   -0.2855469387   -3.8717199783    0.5001989362
 H    1.1993589174    1.5663060452    0.3704548075
 H   -0.1151939320    1.9945478376   -0.7530021486
 H   -0.4730320711    1.7463634206    0.9516239672
 H   -0.3922891767   -0.5582832316    0.6981187151
 H    1.7756832639   -3.1963130888   -2.8104894369
 H    1.2765299509    0.7893675477   -2.3380279375
 H   -0.6811041426   -4.5865231293    1.1775471041