13

 C    0.0425492863    1.5422685423    0.0068857246
 C    0.0328638142    0.0443797531    0.0017952335
 C    0.0371505244   -0.7968612644   -1.0956806371
 O    0.0344020059   -0.5784820300   -2.4303968199
 N    0.0355729090   -2.0685113340   -0.6403600896
 N    0.0282180865   -2.1337295831    0.7164273018
 C    0.0287732866   -0.8615606474    1.0922338855
 H    1.0562680763    1.9625165132   -0.0015565900
 H   -0.4879192097    1.9576410928   -0.8597221525
 H   -0.4608393712    1.9329596919    0.8961752771
 H    0.0625647769    0.3713855037   -2.5843290223
 H    0.0274232157   -2.9105355206   -1.1897645851
 H    0.0215039692   -0.6174207776    2.1457548441