21

 C   -0.0447042311    1.4839445523    0.0501676950
 C    0.0008471500   -0.0084431135   -0.0070233616
 C    0.2803941531   -0.9895572194   -1.1890549792
 C   -0.6151470881   -2.0339471080   -0.5418056253
 C    0.8701121442   -2.0004462525   -0.2184500070
 C    0.5953756128   -1.0274584569    0.9714543757
 C    1.3053291672   -0.8289245712    2.2710526160
 C   -0.9020575013   -1.0614262569    0.6454663274
 C   -2.0953600891   -0.9074050037    1.5311854663
 H    0.9144037958    1.9279749558   -0.2437617641
 H   -0.8157483805    1.8899248713   -0.6162509038
 H   -0.2705885433    1.8329341699    1.0638859398
 H    0.5044751232   -0.8261676320   -2.2355460591
 H   -1.2034736844   -2.8181610022   -1.0010748969
 H    1.6294321064   -2.7540539918   -0.3844323944
 H    2.3500169712   -0.5311959973    2.1179529644
 H    0.8251176171   -0.0449552533    2.8670207773
 H    1.3068235468   -1.7453514662    2.8740070096
 H   -1.9400115857   -0.1106452608    2.2669729307
 H   -2.9941706072   -0.6526535598    0.9561458722
 H   -2.3073981770   -1.8298781537    2.0857505269