18

 O   -0.0926592873    0.0013451050    0.2284918711
 C   -0.0940257501    1.1900332217    0.0637339645
 C   -1.3053828119    2.1127483058   -0.1078743063
 C   -0.7977359205    3.4382001019    0.4923597610
 C   -0.7880546083    3.4096935437    2.0406620975
 C    0.4928156320    2.6298096211    2.4501734334
 C    1.4239664722    2.7598799540    1.2470005380
 C    0.7019543394    3.4049130329    0.1196392475
 N    1.0896039598    1.9930011640    0.0124229465
 H   -1.5192866744    2.2222965039   -1.1780406234
 H   -2.1890308850    1.6888643551    0.3728585792
 H   -1.3244702062    4.3080596663    0.0975358737
 H   -0.7181237979    4.4366167040    2.4139444603
 H   -1.7018032324    2.9745120335    2.4568253170
 H    0.9606420145    3.0615968570    3.3389623608
 H    0.2866176033    1.5792789848    2.6799033276
 H    2.4912897323    2.8765843233    1.4068209851
 H    1.1466642505    4.1017433218   -0.5828225535