12

 N   -0.0145936684    1.2714461138   -0.2025789981
 C    0.0163674654   -0.0125129307    0.2340264676
 O    0.9397700672   -0.5579402246    0.7970094917
 C   -1.3180739046   -0.7459689462    0.0105226369
 O   -2.3744631197   -0.1549139299    0.0234044879
 C   -1.2493204210   -2.2645036649   -0.2302135910
 N   -2.3510286849   -2.9146374360    0.2210974982
 O   -0.3125514683   -2.7599248552   -0.8168446962
 H    0.7534879332    1.8783783999    0.0352073486
 H   -0.8990178883    1.6786985715   -0.4600842386
 H   -3.1555477387   -2.3769023004    0.5003136340
 H   -2.4709848719   -3.8843174173   -0.0242436308