15

 O   -0.7679555697    0.8247628436    0.4180305388
 C    0.1945271421    0.9603457276   -0.2962343859
 C    1.3028372257    1.9584802183   -0.0990402897
 C    1.1336341093    3.4675984889   -0.4987497358
 C    0.1938173734    3.6979949038    0.7015263818
 C    1.4192681675    2.8600198698    1.1721753749
 O    2.2873479651    3.7772617875    0.3624182930
 C    1.8241361299    2.4903783511    2.4919445525
 C    2.1461233885    2.1681995003    3.6039116170
 H    0.3258333802    0.3215808991   -1.1993436190
 H    2.2638325480    1.5613897128   -0.4353606388
 H    1.1198355736    3.8983318847   -1.4982849874
 H    0.1878866306    4.7212753119    1.0760274258
 H   -0.7792306767    3.2107226429    0.7198386469
 H    2.4313424027    1.8847860975    4.5873155058