27

 C   -0.1387874118    0.9846861795   -1.4727834349
 C   -0.1012307562   -0.3376192932   -0.7005744811
 C   -1.5005353407   -0.8765552282   -0.3803414176
 C   -1.5336038265   -2.2687065324    0.2821436096
 C   -0.7780291435   -2.3442988812    1.6292586051
 C   -1.2902699334   -1.4121858679    2.7339716964
 C   -2.9676271394   -2.7585033392    0.4107315129
 C   -3.6565108069   -3.4234000900   -0.7541815390
 C   -3.2760181908   -4.2332207151    0.4623759430
 H    0.8694562497    1.3527495811   -1.6877912506
 H   -0.6629509220    0.8703141048   -2.4282590340
 H   -0.6615729417    1.7609169524   -0.9026007550
 H    0.4506080391   -1.0866516936   -1.2848168780
 H    0.4687540760   -0.1967408251    0.2258083551
 H   -2.0312834540   -0.1528836672    0.2535463638
 H   -2.0798946644   -0.9327396225   -1.3113079033
 H   -1.0197806843   -2.9636167932   -0.3998449037
 H   -0.8310871342   -3.3803228541    1.9856148583
 H    0.2851950749   -2.1409808984    1.4553081877
 H   -1.2027532004   -0.3571891595    2.4545846280
 H   -2.3405158717   -1.6056783382    2.9743459935
 H   -0.7137753186   -1.5541277042    3.6535786199
 H   -3.6058226918   -2.1251840669    1.0223454852
 H   -4.7063944382   -3.2147089772   -0.9285094985
 H   -3.0799804758   -3.5777168744   -1.6610716999
 H   -2.4464728688   -4.9266770199    0.3644723285
 H   -4.0650503149   -4.5798382559    1.1208504286