22

 C   -0.0828526250    1.5632802217    0.4385082322
 C   -0.0033648501    0.0886894149    0.0044875585
 C    0.9399542615   -0.6987069647    0.9238791931
 C   -1.3990684357   -0.5074560958   -0.1091178732
 N   -2.2357250815   -0.7593991972    1.1051838968
 C   -1.8225463727   -1.8940118390    0.2464160720
 C   -2.8992064865   -2.3467805669   -0.7335136859
 C   -3.0952843124   -1.1229033813   -1.6057921446
 C   -2.2683977427   -0.1306590352   -1.2742042062
 H    0.9100863195    2.0242178863    0.4386965558
 H   -0.7243338208    2.1471667180   -0.2282480011
 H   -0.4950374958    1.6491151790    1.4499150019
 H    0.4260263995    0.0600054441   -1.0066415109
 H    1.0772020331   -1.7270265342    0.5781048118
 H    1.9243206320   -0.2215673672    0.9539745402
 H    0.5708046119   -0.7331412359    1.9559865123
 H   -1.6293764668   -0.7557410991    1.9253327872
 H   -1.1303598972   -2.6202297069    0.6578249614
 H   -2.5746741588   -3.2177639659   -1.3184984599
 H   -3.8221033041   -2.6344534926   -0.2153016489
 H   -3.8506249966   -1.0771476343   -2.3824404447
 H   -2.2244804307    0.8410530321   -1.7523335080