19

 C   -0.1256250819    1.4911564718    0.0082071474
 C   -0.0021499634   -0.0157530914    0.0457323016
 C    1.3406018617   -0.6827407551   -0.1803652051
 C    0.7001559131   -0.7023850642    1.1778382125
 C    1.2957333063   -0.1083737787    2.4825333848
 C    0.8316335081   -1.3871351618    3.1981394987
 N   -0.6408322805   -1.4618818556    3.0212264332
 C    0.2641126604   -1.9384854279    1.9379147677
 H    0.7642577444    1.9713550741    0.4287254494
 H   -0.2431132952    1.8549755611   -1.0187723919
 H   -0.9907280051    1.8321754132    0.5871695705
 H   -0.8625363398   -0.5475020955   -0.3546393515
 H    1.3747388042   -1.6067935707   -0.7498389769
 H    2.2071383573   -0.0426394972   -0.3225479912
 H    2.3837612053   -0.0096691759    2.4423664016
 H    0.8515769059    0.8185219268    2.8554074710
 H    1.3178451726   -1.8936559017    4.0224504276
 H   -0.9522592352   -2.2922140253    3.5269659191
 H    0.2125777618   -2.9587883660    1.5758082717