18

 C   -0.1447223528    1.4219555916   -0.1114281443
 C    0.0090476338   -0.0716407830    0.0454398803
 C   -1.2510493115   -0.9330145261    0.3634259613
 C   -0.5005256704   -1.6080793291    1.5549726029
 C    0.7677597008   -0.8132004905    1.1916720355
 O    1.6091125755   -1.5106847231    0.2379538076
 C    1.0409005555   -0.7903565587   -0.8719616741
 C    0.5343547942   -1.6593743003   -1.9365694378
 N    0.1126488911   -2.3291280761   -2.7790715457
 H    0.8266511444    1.9264011160   -0.1541319830
 H   -0.6904274735    1.6625734123   -1.0314635025
 H   -0.7086682623    1.8462788827    0.7254676979
 H   -2.1036357121   -0.3234959009    0.6710804875
 H   -1.5770620290   -1.5971712734   -0.4398238208
 H   -0.9112019931   -1.3450830503    2.5331789333
 H   -0.3714913148   -2.6906129730    1.5020140154
 H    1.3578645175   -0.3337322718    1.9765046882
 H    1.7747981868   -0.0996752063   -1.3097889918