17

 O    0.0280124228    1.1099316289   -0.7705757707
 C    0.0797375138    0.0000179884    0.1118945393
 C   -1.2940496314   -0.5849850972    0.3266411238
 O   -1.8407771820   -1.3555078686   -0.7673175019
 C   -1.5836297220   -2.0213125326    0.4731877503
 C   -0.5421692959   -3.1031480464    0.4493733340
 C   -0.7220125705   -4.2596504358   -0.4638303491
 N    0.3300724285   -3.2589683991   -0.7201145899
 H   -0.3290416271    0.7895433264   -1.6062154772
 H    0.7789644298   -0.7702830446   -0.2364681217
 H    0.4580068091    0.3871239275    1.0646307671
 H   -2.0145317789    0.1186470841    0.7463883659
 H   -2.4862660713   -2.2799934992    1.0310283151
 H   -0.0491575093   -3.2693060621    1.4055562727
 H   -0.3651234212   -5.2433960036   -0.1736932738
 H   -1.5958156476   -4.2588134427   -1.1103108398
 H   -0.0111987268   -2.6245611835   -1.4409102942