17

 O   -0.2600402682    0.3053504872   -0.5599124877
 C    0.1017121909    1.1605439776    0.2079944648
 C    1.3735594523    1.9360549597    0.0354517256
 C    2.7172550177    1.1536539369    0.0526485006
 C    3.5980007554    2.3933183337    0.0100492917
 C    2.8448134011    3.4463604554   -0.8084758548
 C    1.5298124571    2.8138148471   -1.2385617960
 C    2.7740249649    3.4557331070    0.7018581610
 O    1.5410281456    2.8840882269    1.1003921114
 H   -0.4867982726    1.4392861194    1.1088159259
 H    2.8372277634    0.5743349378    0.9722201817
 H    2.8137933589    0.4947869115   -0.8125412669
 H    4.6769833194    2.3581216732    0.0704115818
 H    3.3464736525    4.2183508244   -1.3754449302
 H    1.5894790818    2.2069636525   -2.1441885900
 H    0.7166685242    3.5386469628   -1.3336195056
 H    3.1473140256    4.2306525671    1.3553403667