21

 C   -0.1154704530    1.5529542142    0.0022100858
 C    0.0499010834    0.0520372913    0.0722757817
 C    1.3527405677   -0.6707908383   -0.1732432546
 C    2.6731380054    0.0970804132   -0.0677859416
 C    2.7223070831    0.5410515425    1.3783712705
 C    1.6744346514    0.0934714628    2.0775342862
 C    1.3896635303    0.3256191132    3.5258568347
 O    2.4480314676    1.0584462257    4.1158213959
 C    0.7318704206   -0.6863747416    1.2195164642
 H    0.7119949680    2.0786368123    0.4843262570
 H   -0.1670756994    1.8897106999   -1.0395958170
 H   -1.0426709469    1.8657643263    0.4954991462
 H   -0.8089967759   -0.4898941837   -0.3191292303
 H    1.3244217824   -1.5556757562   -0.7989110332
 H    3.5263047772   -0.5464456851   -0.3211342521
 H    2.7204679525    0.9484270230   -0.7609737043
 H    3.5049025137    1.1709770543    1.7816679309
 H    0.4269670862    0.8586832639    3.6243356146
 H    1.2490106218   -0.6501295239    4.0256927428
 H    2.2330104411    1.1998058537    5.0418182979
 H    0.2408256228   -1.5644945575    1.6293036550