12

 C   -0.0072918960    1.3579936912   -0.0284225016
 O    0.0283818054   -0.0783971739   -0.0483662870
 C    0.6504843641   -0.6270175057   -1.0950728698
 O    1.1672890165   -0.0072747965   -1.9953400536
 C    0.6450212265   -2.1440919010   -1.0426412154
 O    1.3051394853   -2.6796590163   -2.1535703924
 H    1.0063716627    1.7651596796   -0.0122490568
 H   -0.5291639955    1.7394590313   -0.9091716807
 H   -0.5431726969    1.6269122756    0.8812176115
 H    1.1213061263   -2.4575549931   -0.1015327865
 H   -0.4007789700   -2.4828165323   -0.9936294813
 H    1.5975562216   -1.9175139789   -2.6753104365