17

 C   -0.0094624315    1.5442620586   -0.0146232987
 C    0.0540893770    0.0365864229   -0.1002428693
 C    0.6692582878   -0.7596755964   -1.2299266677
 N   -0.0561840504   -1.7926093006   -1.8573852507
 C    1.9754056774   -0.0994005665   -1.6848274065
 O    2.4654771433   -0.0185004081   -0.3195255870
 C    1.3279121578   -0.7341217629    0.1671643926
 C    1.5064122892   -1.7323342670    1.1664065817
 N    1.6365299793   -2.5525592320    1.9730726483
 H    0.9628134616    1.9920020371   -0.2311172185
 H   -0.7462033238    1.9480232424   -0.7167982401
 H   -0.3006958186    1.8544538516    0.9932850459
 H   -0.8129532788   -0.4946659494    0.2863655213
 H   -0.7933295666   -1.4395530628   -2.4572544862
 H    0.5350505727   -2.4182147068   -2.3928570744
 H    2.6085584238   -0.7717208347   -2.2766058620
 H    1.9186581999    0.8820175946   -2.1683827688