16

 C   -0.1526291796    1.4843695924   -0.0498833122
 C    0.0252719727   -0.0398921387    0.0213495274
 O    0.6755901550   -0.5601002954   -1.1375185215
 C   -0.1316315675   -0.6409591105   -2.2853300995
 C    0.6043444100   -1.4863076433   -3.3133015420
 O    0.2348583248   -1.6202009301   -4.4488429625
 C    0.8198439743   -0.4275689171    1.1859297684
 C    1.4559315340   -0.7186076697    2.1619152523
 H    0.8211391862    1.9674525252   -0.1608339955
 H   -0.7871365336    1.7620644750   -0.8960476926
 H   -0.6242981220    1.8502953786    0.8657942674
 H   -0.9694118340   -0.5099529672    0.1071490139
 H   -1.0991169847   -1.1283333496   -2.0704426365
 H   -0.3547495412    0.3399228285   -2.7311207988
 H    1.5156591313   -1.9802107995   -2.9115541068
 H    2.0209300442   -0.9867655085    3.0204465086