20

 C   -0.0294179454    1.4638424007   -0.0232803822
 C    1.2768747968    0.6927047414    0.0071801968
 C   -0.0330242658   -0.0333800394    0.0018414268
 C   -0.5346720389   -0.9274432078    1.1328272915
 C    0.2431172086   -2.2134786284    0.7910011905
 N   -0.6165348208   -2.3134118080   -0.4403434120
 C   -1.7302068009   -1.6173482440    0.3507236286
 C   -2.0952266847   -0.8152126442   -0.8975516947
 C   -0.5701456560   -0.9190819370   -1.1226223778
 H   -0.3250526974    1.9980659778    0.8741255509
 H   -0.3037334798    1.9660821729   -0.9464448314
 H    1.8799052893    0.6809708103   -0.8954824642
 H    1.8555678175    0.7064610043    0.9259904474
 H   -0.6158244508   -0.5081191853    2.1372730862
 H    1.3231202030   -2.1438184554    0.6303171863
 H    0.0128334418   -3.0670233391    1.4356047314
 H   -2.4283779374   -2.2407280588    0.9112145458
 H   -2.6646678143   -1.4327826600   -1.5953196446
 H   -2.5332928357    0.1798007733   -0.8019598382
 H   -0.1063833592   -0.8652863934   -2.1074016972