14

 C    0.0248368938    1.5020571144    0.0703953277
 C    0.0186446488    0.0046804079    0.0208196389
 C   -0.0668237585   -0.8048971366   -1.0931773601
 N   -0.0380777960   -2.1087098130   -0.6847977779
 C    0.0656318850   -2.1712902429    0.6895903193
 C    0.1019586622   -0.8742135686    1.1427094630
 O    0.2018967444   -0.5189164749    2.4596627631
 H    0.9452928894    1.9000672370    0.5187780023
 H   -0.0504400704    1.9272918844   -0.9342158905
 H   -0.8164104778    1.9029066043    0.6520349880
 H   -0.1452478595   -0.5450960201   -2.1370399540
 H   -0.0854963523   -2.9061555539   -1.2918139760
 H    0.1042804061   -3.1065138005    1.2210201447
 H    0.2086924546    0.4411035623    2.5121996114