18

 C   -0.0224896085    1.4373549059   -0.0215072491
 C   -0.0908988799   -0.0561454118   -0.0058120738
 C    0.4465014769   -1.0744714635   -0.9448306996
 N    1.1408510149   -0.8433802159    0.3650946719
 C    0.4881042089   -2.0600341295    1.0114927987
 C   -0.6589892949   -1.5291865671    1.8855959216
 C   -1.2088697123   -0.9672835042    0.5510414124
 C   -0.4491138326   -2.1189541579   -0.2492979738
 O   -1.0060910443   -3.2004743421   -0.8872482461
 H    0.9421009054    1.7677658334   -0.4175533226
 H   -0.8171859669    1.8629533311   -0.6435817494
 H   -0.1282854210    1.8440985799    0.9908585809
 H    0.9465478292   -1.0166851012   -1.9044139655
 H    1.2071680677   -2.8145650361    1.3290168599
 H   -1.2790383308   -2.3412606817    2.2802371680
 H   -0.4126690360   -0.8271685326    2.6868509817
 H   -2.2494100158   -0.6922160853    0.3838476588
 H   -1.5900848101   -3.6633627016   -0.2756804139