15

 C   -0.0304354873    1.5428937620   -0.0020606339
 C   -0.0228380776    0.0286167576    0.1041319013
 O   -0.0338042033   -0.5582298875    1.1528400055
 N   -0.0013019381   -0.6660839143   -1.1303523501
 C    0.0144905950   -0.1051017664   -2.4202676484
 N    0.0328194969   -0.9151445360   -3.4010999922
 C    0.0317970962   -2.2570963489   -2.8248298161
 C    0.0088746499   -2.0922732884   -1.3033639162
 O    0.0010937195   -2.9260280630   -0.4476199063
 H    0.8610087088    1.9113102911   -0.5197229961
 H   -0.9090806598    1.9009839577   -0.5479932310
 H   -0.0488213598    1.9430107908    1.0107921745
 H    0.0103634535    0.9719548828   -2.5336849976
 H   -0.8405405354   -2.8283179502   -3.1601380784
 H    0.9195528715   -2.8188167872   -3.1347570750