18

 O   -0.0657086981    0.1274424981   -0.9915061578
 C    0.4195564177    0.6616690014   -0.0277213983
 C    1.1945219260    1.9667063462   -0.0711816870
 C    0.9236715059    2.8693861229   -1.2582031174
 C    0.7898618975    4.1315411508   -0.8569030002
 C    0.9358315828    4.2391519463    0.6409650802
 C   -0.3583635083    4.4778670432    1.4607783889
 C   -0.4456678795    2.9388487828    1.5792161935
 N    0.9720127718    2.8149315045    1.1139349631
 H    0.3722783713    0.1941322194    0.9815117084
 H    2.2521934684    1.6366826077   -0.0828913960
 H    0.8795584299    2.4988443188   -2.2738283795
 H    0.6242605295    4.9897033228   -1.4981721243
 H    1.8064643053    4.8426163550    0.9290074948
 H   -0.1713461460    4.9767721289    2.4133866256
 H   -1.1795443053    4.9777571171    0.9451794411
 H   -0.6176956487    2.5228683343    2.5759791955
 H   -1.1774465700    2.5051942098    0.8846893397