17

 O   -0.6885720073    0.7620263863    1.0154715418
 C   -0.2412540584   -0.2630660270    0.2070783739
 C   -0.0278682686   -1.7071222198    0.6113242560
 C   -0.9091886391   -1.3662502456   -0.5731955149
 C   -2.3403398864   -1.7813164528   -0.7927125241
 C   -3.1402659147   -1.5903303058    0.4141891838
 C   -3.7686049363   -1.4119254047    1.4243036747
 O   -0.0967953951   -1.1298539161   -1.7294072788
 C    0.5226567393    0.0199684030   -1.0766393745
 H   -1.4903964785    0.4644808474    1.4615329453
 H    0.9188542939   -2.2195149125    0.4546714166
 H   -0.5726456527   -1.9960922017    1.5057205267
 H   -2.7529774504   -1.1809208880   -1.6131410478
 H   -2.3908081632   -2.8301781052   -1.1151399132
 H   -4.3520585623   -1.2776338732    2.3018244837
 H    0.2092664477    0.9528305583   -1.5567821858
 H    1.6152564222   -0.0520441327   -1.0563332633