20

 C    0.3823817857   -0.6677472887   -1.2840428904
 C   -0.0933100124    0.0807505774   -0.0552911555
 C   -1.4427137395   -0.3930585046    0.4694379291
 C   -2.0594900532    0.4610268830    1.5863053208
 O   -2.3887006193    1.7673252244    1.1792158590
 C   -3.3398766322   -0.1743672132    2.1139344500
 O   -3.4908035599   -1.3547989552    2.2957997854
 C    0.9373522697    0.6649790963    0.8430290089
 N    0.1212719317    1.5473060943   -0.0173676904
 H    1.3571171997   -0.3009792210   -1.6224564466
 H    0.4809363411   -1.7382513199   -1.0749183038
 H   -0.3309239014   -0.5562556775   -2.1084007015
 H   -2.1515727840   -0.4085958691   -0.3686697846
 H   -1.3578349103   -1.4234684013    0.8317309313
 H   -1.3696641026    0.4726468428    2.4536114184
 H   -1.5869161234    2.1084626006    0.7427303444
 H   -4.1359977796    0.5706943016    2.3322448860
 H    0.7602942927    0.7740930660    1.9082782559
 H    1.9808394031    0.5179686297    0.5782216605
 H    0.6543040640    1.8601823244   -0.8239810469