12

 N   -0.0301902797    1.3896129996    0.0102626285
 C    1.3053193909    1.7397824332   -0.0010859289
 N    2.1245747416    0.7011461270   -0.0145694240
 C    1.2644711342   -0.3431151771   -0.0117112629
 C   -0.0630461459    0.0116886788    0.0032352331
 C   -0.8188155771   -1.1991322403    0.0041341004
 C    0.1339734597   -2.1811812832   -0.0105652787
 O    1.4179336143   -1.6876728189   -0.0204367125
 H   -0.8051209272    2.0296015282    0.0213876549
 H    1.6149888214    2.7736325063    0.0013632852
 H   -1.8853504865   -1.3555091127    0.0137892128
 H    0.0593608743   -3.2557201309   -0.0156326279