17

 C   -0.0470240935    1.5576869416    0.1407232657
 N   -0.0097463170    0.1153792825    0.1042455859
 C   -1.2293104639   -0.6349306599    0.4388682422
 C   -0.3625819837   -1.6799670443    1.2164880673
 O   -0.1019586003   -2.8549435117    0.5170260539
 C    0.7671390473   -0.6007936969    1.1268953786
 C   -0.8370793781   -1.9947800051    2.6118271352
 O   -0.9513330650   -3.1303398298    3.0069329642
 H    0.9510817406    1.9602352008   -0.0608617073
 H   -0.7207520137    1.9315834188   -0.6372197092
 H   -0.3894545748    1.9629103056    1.1138173699
 H   -1.9285252299   -0.0842085975    1.0915135013
 H   -1.7746475736   -1.0490172073   -0.4145818546
 H   -0.2991656611   -3.5768488422    1.1355111405
 H    1.7346507151   -0.9892277844    0.7947998642
 H    0.8989189622   -0.0358436854    2.0658250275
 H   -1.0754644706   -1.1249543146    3.2570644948