21

 C   -0.0052179050    1.4699470001   -0.1211429554
 C   -0.0056293275    0.0140261992   -0.0848566280
 C    0.0070440790   -1.1898718942   -0.0579406853
 C   -0.0132000413   -2.6477170130   -0.0209425663
 C   -1.4255044218   -3.2270837223    0.1994381130
 C   -1.4204520557   -4.7447636461    0.2010966331
 C   -2.7761115502   -5.4785478295    0.0890675339
 C   -2.1794698825   -6.0858617578   -1.1960169091
 O   -0.9785151900   -5.2973740275   -1.0662328499
 H    1.0120795269    1.8659365846   -0.2171077387
 H   -0.5868996297    1.8492455977   -0.9688817464
 H   -0.4385898090    1.8940818698    0.7916794907
 H    0.3832305867   -3.0556627699   -0.9584925220
 H    0.6541746746   -3.0077686617    0.7741867633
 H   -1.8310772569   -2.8685691142    1.1536227412
 H   -2.0920410940   -2.8669621325   -0.5923043721
 H   -0.7843089319   -5.1181750772    1.0179133932
 H   -3.0097234937   -6.1809633194    0.8901847381
 H   -3.6299239914   -4.8164189442   -0.0697735266
 H   -1.9674537379   -7.1616654264   -1.1485955571
 H   -2.7112356389   -5.8727547755   -2.1307321396