20

 C    0.2406212207    1.6145966621   -0.6263241710
 C    0.2041831998    0.1735772202   -1.1429008147
 C    1.4317051423   -0.6304512816   -0.7083224291
 O    1.5504942691   -0.6705822037    0.7178802642
 C    1.5016870956   -2.0611479283   -1.2290010992
 N    0.2663960991   -2.7506378130   -1.6139518755
 C    1.3096465508   -2.5250302123   -2.6422764406
 C    1.0123750739   -1.6809075322   -3.7676165760
 C    0.8170400018   -1.0229353817   -4.7551993911
 H    0.3346247224    1.6389135541    0.4625454338
 H    1.0935397883    2.1619565547   -1.0434507485
 H   -0.6694090900    2.1536282268   -0.9062556331
 H   -0.6932024405   -0.3446886767   -0.7825805392
 H    0.1362996036    0.1644931259   -2.2340552461
 H    2.3419197395   -0.1121524906   -1.0373554220
 H    0.7284786850   -1.0422515919    1.0587236179
 H    2.2402433843   -2.6369851960   -0.6718299241
 H    0.2813606109   -3.7241014597   -1.3219545606
 H    1.9182865145   -3.3869494148   -2.9124960204
 H    0.6303053588   -0.4293951114   -5.6157676644