11

 O   -0.0794012282    1.3040854059    0.0098541384
 C   -0.0235663540   -0.0155532962    0.0024084036
 N    1.0606070581   -0.7404083930   -0.0065037143
 O    0.6206469069   -2.1084648101   -0.0119362645
 C   -0.7125804365   -2.0797097679   -0.0056734659
 N   -1.7014107099   -2.9343398659   -0.0057786680
 C   -2.7705468448   -2.0657200692    0.0038448527
 N   -2.5128342271   -0.7609442614    0.0097910854
 N   -1.1443244884   -0.7963602635    0.0032890710
 H    0.8256978609    1.6475127875    0.0075781364
 H   -3.7908038169   -2.4205499162    0.0066072752