15

 O   -0.0498479645    0.1659778416    0.9300103848
 C   -0.0172536984    1.2779307394    0.4555065886
 N   -1.1533610409    1.9341254441    0.0167823701
 C   -1.1383688000    3.1882213183   -0.5993073913
 N   -0.1584328783    3.9892464158   -0.6403302936
 C    1.0551405720    3.5808640272    0.0591118683
 C    1.2423250186    2.0826549716    0.2127952355
 C    2.5190580212    1.4904568213    0.6237771984
 O    2.1054193265    1.4343917344   -0.7407327123
 H   -2.0126798520    1.4033655313    0.0547109718
 H   -2.0846764074    3.4576279566   -1.0661747536
 H    1.9246241840    3.9856785044   -0.4677219313
 H    1.0383686040    4.0516398566    1.0537821350
 H    3.3586194301    2.1529069035    0.8307911375
 H    2.5053178651    0.5417469439    1.1540972921