15

 N    0.0133664372    1.3684530290   -0.0173497637
 C    0.0521617409    0.0204368161   -0.0023720207
 N    1.1667607102   -0.6203505967   -0.0281765019
 C    1.1241269552   -2.0108652988   -0.0288650230
 N   -0.0315578217   -2.6904182460   -0.0294006199
 C    0.0510763343   -4.0204685112   -0.0298865584
 C    1.2689758007   -4.6906348780   -0.0309693674
 N    2.4307730352   -4.0255439263   -0.0312862995
 C    2.3521728323   -2.7015744191   -0.0303214922
 H    0.8771985548    1.8861652912   -0.0083934270
 H   -0.8540679916    1.8659057642    0.0618581898
 H   -0.9228108195   -0.4729346025    0.0242731172
 H   -0.8870145892   -4.5719130162   -0.0303629869
 H    1.3139933765   -5.7758758983   -0.0323285012
 H    3.2776666146   -2.1327154374   -0.0306134053