17

 C   -0.1813431494    1.5036963727    0.0265814390
 C    0.0700507483   -0.0143409339    0.0066230021
 C    0.7473399925   -0.4861378610   -1.2507582133
 C    2.0325908252   -0.8833421637   -1.2672046794
 O    2.7231916350   -1.3124300361   -2.3505304102
 N    2.0944090441   -1.3732067735   -3.5846584989
 C    0.8616550552   -1.0147532257   -3.6243646421
 C    0.0257242706   -0.5386168847   -2.5146951614
 N   -1.2121657642   -0.2040248830   -2.6170980920
 H    0.7600177563    2.0586942562   -0.0385131606
 H   -0.8165211729    1.7964269276   -0.8118895874
 H   -0.6823856214    1.7928567420    0.9552973757
 H    0.6750856452   -0.3035217886    0.8734976860
 H   -0.8913379733   -0.5331170189    0.0907140859
 H    2.6738822582   -0.9056603634   -0.3927610379
 H    0.4219136965   -1.0874128306   -4.6179758223
 H   -1.5397092657   -0.3185698155   -3.5786561431