16

 O   -0.4026133441    1.4596764277    0.2836969201
 C   -0.1831900126    0.1015890729    0.0777434517
 C   -0.5102080976   -0.9086345490    1.1654758384
 O   -1.1952020380   -0.4091384532    2.2900770257
 C   -2.4614950755    0.0164224590    1.9359620917
 N   -3.2758967695    0.5439249882    2.7374815735
 C   -2.7061075228   -0.2541258160    0.4621315671
 C   -1.3870120394   -0.8093523775   -0.0505664754
 O   -1.3855726030   -1.8405677817   -0.9832287849
 H    0.0792610623    1.7314963652    1.0726831751
 H    0.6645121492   -0.1599016393   -0.5565546551
 H    0.1407861865   -1.7459342790    1.3831431346
 H   -2.8723161411    0.6104013759    3.6732117922
 H   -3.4875472235   -1.0099757083    0.3421859278
 H   -3.0296162724    0.6636504144   -0.0329391705
 H   -1.5020183087   -1.4548101793   -1.8589679820