16

 C   -0.0544121040    1.5142383841   -0.0129268815
 C    0.0291673063    0.0089989593    0.0167793074
 C   -0.7967627939   -0.8087333786    0.9612584089
 C    0.7184608677   -0.7824238261    1.1064413998
 C    1.4135505550   -1.9225670664    0.4371737128
 O    2.1581081168   -2.7327942565    0.9059666828
 O    1.0630847270   -1.9373681261   -0.8894919312
 C    0.4009467004   -0.7225970968   -1.2692703350
 H    0.8810188247    1.9578881889   -0.3710452904
 H   -0.8604671242    1.8508963998   -0.6750219971
 H   -0.2584539753    1.9158075900    0.9838195730
 H   -1.3520446119   -0.2760424465    1.7255524423
 H   -1.2665209756   -1.7241060751    0.6145607498
 H    1.1746586594   -0.3527023903    1.9878740310
 H   -0.4660453395   -0.9858894331   -1.8837465066
 H    1.0917208071   -0.1244986865   -1.8763562760