13

 O   -0.1180607186    0.0686139822    0.0824824292
 C   -0.0526993280    1.2500372909    0.0615433453
 N   -1.1169877890    2.2774553020   -0.0939171434
 C   -0.9857849104    2.9870081325    1.2534619583
 C    0.3667316091    3.5138717084    0.7829170629
 C   -0.0190524841    3.2158840039   -0.6095529660
 C    1.0287997304    2.2982088584    0.0377954989
 C    2.4294876533    2.2061107766   -0.1854049835
 N    3.5681507947    2.1163019776   -0.3697511749
 H   -1.7367870372    3.7757417308    1.3276076172
 H   -1.0398766602    2.3219238123    2.1199753977
 H    1.0004065646    4.3049139358    1.1654485194
 H    0.0064659153    3.7051941487   -1.5709127312