20

 O   -0.0642518050    0.1417459250   -0.7049224156
 C   -0.0224907362    1.2051343947   -0.1356318377
 C    1.2007444332    2.0222879618    0.0193817205
 C    1.0622322787    3.5414529838    0.0715423108
 C    1.4813899462    2.8100001283    1.3007548371
 C    0.6012806559    2.7188500748    2.5307109532
 N    0.9658763128    3.7698242246    3.4748617431
 C    0.2383624362    5.0303299169    3.3677667086
 C   -0.0229861908    4.0942459596    4.4959240562
 H   -0.9439519175    1.6525910870    0.3043863964
 H    2.0631027978    1.6087470237   -0.4920177560
 H    1.7878332860    4.1250597489   -0.4828279951
 H    0.0498270112    3.9336934496    0.0370409295
 H    2.5368886192    2.8623826126    1.5509657373
 H   -0.4667601974    2.7657047659    2.2532469116
 H    0.7607610873    1.7558636760    3.0310540583
 H    0.8251804843    5.9314855510    3.5194838987
 H   -0.5338948840    5.1134355293    2.6044934567
 H   -0.9682728602    3.5533772750    4.4820316209
 H    0.3703272123    4.2968480114    5.4878252255