17

 O   -0.0322710152    1.4189582352    0.0514189727
 C    0.0064272823    0.0215952212   -0.1008801688
 C   -1.3749641449   -0.5901754473   -0.1002693015
 O   -2.1061066573   -0.0849481517    1.0707750189
 C   -3.4821698459   -0.2144055081    0.7039705131
 C   -3.3692521231   -0.8842492503   -0.7062790950
 O   -2.2009440328   -0.1894366799   -1.1696849384
 C   -2.8323628031   -2.2874997500   -0.4591618800
 C   -1.5676975544   -2.1050838712   -0.0772855454
 H   -0.7095691345    1.5900428089    0.7179768807
 H    0.4928414985   -0.2025165616   -1.0552391198
 H    0.5880860669   -0.4668691993    0.6984431243
 H   -4.0200666643   -0.8253182111    1.4353312311
 H   -3.9426632169    0.7759004200    0.6298008342
 H   -4.2127310740   -0.7486319453   -1.3794552941
 H   -3.4192892838   -3.1953776924   -0.4630499558
 H   -0.8543112873   -2.8219254173    0.3040760039