17

 C   -0.2169654482    1.5103287471   -0.0065407837
 C    0.0574576646   -0.0007286941   -0.0294120504
 C    0.8465256377   -0.4104319221   -1.2953241401
 O    0.1846638067   -0.0412349936   -2.4897136079
 C    0.7829818731   -0.4653671277    1.1977794349
 N    0.3655778173   -1.4727642532    1.9204735971
 O    1.2759275891   -1.6241454284    2.9295372955
 N    2.2766336166   -0.7010186948    2.8372461565
 C    1.9928064540    0.0147548523    1.7857984268
 H    0.7144414087    2.0810224635    0.0793552814
 H   -0.7015435667    1.8064512210   -0.9391594629
 H   -0.8616295192    1.7845003300    0.8327022850
 H   -0.8985124199   -0.5384675553   -0.0495329161
 H    1.8107729187    0.1108172343   -1.3146576056
 H    1.0560305998   -1.4892314075   -1.2631186846
 H   -0.5898302808   -0.6045472882   -2.5887934688
 H    2.6326774187    0.8296839966    1.4852064430