17

 C   -0.1210239850    1.3347741564    0.0592035131
 O    0.0857197499   -0.0810674563    0.0103428911
 C    0.7561474257   -0.5871000842    1.0358184885
 N    1.2312579002    0.0540320631    2.0360512961
 C    1.7817171397   -0.9942868892    2.8737277699
 C    0.9240695131   -2.2436531297    3.2009716754
 C   -0.1616849254   -2.4073641467    2.1558870738
 N    0.8495406907   -2.0273923867    1.0549620131
 C    1.9401703830   -2.2458487458    2.0815204884
 H    0.8375263598    1.8607605253    0.0657519737
 H   -0.6897322725    1.5833706846   -0.8370007743
 H   -0.6763112752    1.6092964513    0.9604455441
 H    2.5082482612   -0.7045748174    3.6219844627
 H    0.9728361853   -2.7137707766    4.1750038015
 H   -0.4549529523   -3.4484813603    2.0106843624
 H   -1.0534980798   -1.7722166659    2.1918206286
 H    2.8203867717   -2.8366444321    1.8612042819