25

 C    0.2519637205    1.5124887524    0.0925935912
 C   -0.0417723192    0.0087620685    0.0506065938
 C   -1.5370054997   -0.4120194759   -0.0086366837
 C   -2.3005865387    0.1895098174    1.1859234458
 C   -2.1852892410    0.0622897169   -1.3263088347
 C   -1.5456649947   -1.9500042283   -0.0156374410
 C   -1.7869255050   -2.8237936258    1.2018433705
 C   -2.7661032592   -2.8240423260    0.0525655523
 O   -4.0212598340   -2.2155753537    0.1946178785
 H    1.3330243741    1.6854819052    0.1008396486
 H   -0.1542976584    2.0345103379   -0.7792631918
 H   -0.1601071228    1.9869938606    0.9879561653
 H    0.4702018634   -0.4238043922   -0.8194546586
 H    0.4084410503   -0.4660036878    0.9323781652
 H   -2.3635050360    1.2774600072    1.0899060913
 H   -3.3165448698   -0.2038503923    1.2372548754
 H   -1.7947216754   -0.0268419314    2.1333566936
 H   -1.6630267966   -0.3569452523   -2.1941588896
 H   -3.2284458764   -0.2609881919   -1.3720145824
 H   -2.1641806129    1.1527437528   -1.4187783025
 H   -0.7961227874   -2.3429900777   -0.7003225531
 H   -1.1602298580   -3.6939617528    1.3674828407
 H   -2.1191524815   -2.3288545268    2.1077169472
 H   -2.7757804978   -3.6989668513   -0.5981745437
 H   -4.5608310836   -2.7772927026    0.7607053516