13

 O   -0.0331037211   -0.0397739581    0.0034117007
 C   -0.0300285417    1.1582308833    0.0095551916
 C   -1.2324298284    2.1197207322    0.0322479474
 O   -0.7047792386    3.4576018693    0.0311026430
 C    0.6425441204    3.3449976189    0.0104931497
 C    1.7532249045    4.1256291791   -0.0020987996
 N    2.8735940767    3.2875225328   -0.0230180984
 C    2.4502546560    2.0574129396   -0.0230377570
 N    1.0611201688    2.0272357761   -0.0023880207
 H   -1.8609495350    1.9695677720   -0.8503999914
 H   -1.8343975843    1.9606140621    0.9316790514
 H    1.8431615330    5.1981146833    0.0019935392
 H    3.0454137996    1.1590146796   -0.0364794758