16

 N   -0.0234655743   -1.1720070337   -0.2838313987
 C   -0.0003392685   -0.0290443776   -0.1193035390
 C    0.0035315595    1.4372711034    0.0640027079
 O   -0.6323395456    1.8131999963    1.2784188115
 C    0.2401610976    1.9038888842    2.4138964951
 C    1.6126586175    2.3956395991    1.9774673013
 C    1.4875432028    3.3380265850    0.7602612613
 C    1.4408986229    1.9871580319    0.0191307044
 O    2.1682524988    1.3626470007    1.1044814780
 H   -0.5985905812    1.8808828727   -0.7381154419
 H   -0.2472616269    2.6008709005    3.1027479339
 H    0.3443858109    0.9263791572    2.9029596421
 H    2.2723035286    2.6446915865    2.8114636804
 H    0.6248951851    4.0023676303    0.6987173275
 H    2.4155157105    3.8725986669    0.5591241896
 H    1.9162987325    1.8535500366   -0.9547514435