11

 O   -0.0488833394   -0.0511128076    0.0038847880
 C    0.0313914099    1.1456804019    0.0088208982
 O   -1.1819929719    1.8770465123    0.0288743261
 C   -1.2121095817    3.2153403970    0.0362358208
 C   -0.1028051709    3.9830083532    0.0254286720
 C    1.1625643634    3.3182681632    0.0051451116
 C    1.2270379406    1.9642210001   -0.0027383396
 H   -2.2271467449    3.5963773634    0.0517497290
 H   -0.1857745057    5.0609227597    0.0321367417
 H    2.0754143484    3.9058452859   -0.0039237758
 H    2.1647856020    1.4237356409   -0.0179674820