19

 C   -0.3361626433    1.2950774788    0.1269972368
 O    0.1785680726    0.0043261244   -0.1171968622
 C    0.7644189897   -0.5891508953    1.0121390772
 C   -0.1349032397   -1.2688420272    2.0986866956
 C   -1.0314557274   -2.2485627661    1.2919744493
 C    0.2614073438   -3.0032977704    0.9934125012
 C    0.9675297497   -2.3957122483    2.1918551577
 C    1.3777382888   -1.9574839344    0.8107261443
 O    2.5710978134   -2.2552630217    0.1892872782
 H    0.4450068609    1.9797649003    0.4924782744
 H   -0.7246147053    1.6773279049   -0.8201025966
 H   -1.1536015006    1.2817994617    0.8632457395
 H    1.4882495951    0.0931518079    1.4839524299
 H   -0.5251568652   -0.6923172708    2.9339181686
 H   -1.6917468886   -2.8223605093    1.9482669409
 H   -1.5978335875   -1.8287462593    0.4549200499
 H    0.4008352471   -3.9985841572    0.5903558794
 H    1.5371870720   -2.8187597293    3.0047007129
 H    2.4065242545   -2.3156870088   -0.7583744171