29

 C   -0.0303933465    1.6616125702   -0.1139594292
 C    0.0063953713    0.1345363864   -0.0091536544
 C   -1.3867645858   -0.5036450693    0.0094188073
 C   -1.3598679863   -2.0334718780    0.1051540163
 C   -2.7608138766   -2.6573849984    0.1275121878
 C   -2.8019937738   -4.1974517409    0.0957661563
 C   -2.1657748185   -4.8143512800    1.3503274697
 C   -4.2508199203   -4.6821759825   -0.1089862540
 C   -4.4030071847   -6.1835788662   -0.3740043429
 H    0.9778841142    2.0876533623   -0.1233534412
 H   -0.5358804750    1.9832551174   -1.0314907482
 H   -0.5705400462    2.1036455705    0.7308727227
 H    0.5811121917   -0.2767507833   -0.8497815408
 H    0.5501964985   -0.1576826434    0.8991324452
 H   -1.9604433803   -0.0961209357    0.8539139065
 H   -1.9339071473   -0.2057398147   -0.8962305418
 H   -0.7957998537   -2.4389516412   -0.7469660132
 H   -0.8010843309   -2.3227767495    1.0039608298
 H   -3.3022946741   -2.3029208891    1.0169867215
 H   -3.3231224865   -2.2773452254   -0.7365245583
 H   -2.2173907550   -4.5266950029   -0.7774453118
 H   -2.1687456251   -5.9073090822    1.3107088705
 H   -1.1259274201   -4.4990755471    1.4739938970
 H   -2.7145731865   -4.5125493183    2.2513045020
 H   -4.8477599581   -4.4029593883    0.7707445681
 H   -4.6841385354   -4.1309269390   -0.9535315259
 H   -5.4466871028   -6.4384706250   -0.5841344025
 H   -3.8059873478   -6.4942658990   -1.2391748521
 H   -4.0864659486   -6.7886227273    0.4809897756