14

 C    0.0950132134    1.5451148816    0.0078880493
 C   -0.0341569844    0.0230882629    0.0033123674
 C   -1.4426520414   -0.4957007335    0.0130385093
 N   -2.4266439990    0.3437659228    0.0247534938
 O   -3.6950561801   -0.1455776983    0.0334089674
 N   -3.9739306378   -1.5620400937    0.0297892693
 N   -3.0417988583   -2.3604337933    0.0186714699
 C   -1.6639986144   -1.9417012944    0.0090611248
 O   -0.7939190719   -2.7751480176   -0.0018564415
 H    1.1510731982    1.8258552507    0.0001746347
 H   -0.3856280690    1.9888830860   -0.8677983100
 H   -0.3710228110    1.9823568168    0.8946788471
 H    0.4664840745   -0.4159621731   -0.8695373689
 H    0.4808136014   -0.4223496869    0.8645193373