23

 C   -0.2398959323    1.4639958564    0.1232504129
 C    0.1000736064   -0.0080193452   -0.0325468094
 O    0.6200064819   -0.4889406903    1.1941714299
 C    0.9667998759   -1.8685503137    1.1651637941
 C    1.5967920854   -2.2483995673    2.4833563083
 C    2.8506349736   -1.4654466675    2.8356651100
 O    2.5848489121   -0.1243720690    3.2015162676
 C    0.6883265266   -2.6645746445    3.6125308264
 C    1.5133526007   -3.7003200871    2.8916026283
 H    0.6540988370    2.0436678114    0.3713852168
 H   -0.6574540947    1.8573822952   -0.8082502700
 H   -0.9744453454    1.6063208310    0.9207706213
 H   -0.7974890133   -0.5866441308   -0.3060974596
 H    0.8374056630   -0.1555534349   -0.8389482044
 H    0.0683964537   -2.4771455873    0.9720330273
 H    1.6727103546   -2.0518193667    0.3367790661
 H    3.3487766377   -1.9304310534    3.6939641072
 H    3.5561750357   -1.5162392999    1.9870005418
 H    1.9506650733    0.2063866876    2.5519612676
 H    0.9790441307   -2.3791189195    4.6172452455
 H   -0.3823210899   -2.6522977676    3.4382801459
 H    1.0046707205   -4.3929061616    2.2286114346
 H    2.3675229166   -4.1294195855    3.4044191119