14

 O   -0.1158214469    1.5054826241    0.0116919769
 C   -0.0289315992    0.0912845268    0.0026560184
 C   -1.3671187002   -0.4810907350    0.0124724065
 C   -2.4607943371   -0.9908178572    0.0201503319
 C   -3.7819411614   -1.5717479417    0.0294730224
 O   -3.9854836191   -2.7611993085    0.0250306165
 C   -4.9113633357   -0.5262397171    0.0456222852
 C   -6.2444952170   -1.1150405409    0.0552464759
 N   -7.3115887482   -1.5550639354    0.0631219404
 H    0.7822787436    1.8524616917    0.0068706040
 H    0.4995005367   -0.2837045642   -0.8891521132
 H    0.5168650137   -0.2939481625    0.8794914428
 H   -4.7785872794    0.1183174523    0.9229217895
 H   -4.7952153598    0.1273334774   -0.8273592171