18

 C   -0.0638448490    1.6403395613   -0.1908888204
 C   -0.0416728174    0.1323353579    0.0339163378
 C    1.0717867979   -0.6041468388   -0.8120239547
 C    1.9793833002   -0.6114101361    0.4787073693
 C    0.6790514088   -0.4209627097    1.2275235522
 C   -0.1644767019   -1.0627158648    2.0254705434
 C   -1.5628806373   -0.8771369033    1.4530109031
 O   -1.3697296208   -0.3720073127    0.1186859195
 H    0.9481348269    2.0569915425   -0.2167302581
 H   -0.5482045552    1.8646657053   -1.1466934522
 H   -0.6247790468    2.1403833289    0.6039862124
 H    0.7517708817   -1.6117906185   -1.0810061921
 H    1.4602566468   -0.0790670415   -1.6887268144
 H    2.5554861291   -1.5113456444    0.6993767823
 H    2.6458998427    0.2556503034    0.5049313463
 H    0.0544707062   -1.7444469355    2.8378086011
 H   -2.0972759376   -1.8345698755    1.3930823540
 H   -2.1967528743   -0.1851912585    2.0310095505