22

 C    0.1902792546    1.3617007698   -0.6615472520
 C   -0.0159962476    0.0553500847    0.1084447255
 C   -1.3156540383   -0.6536941890   -0.2732215079
 C   -1.5527550503   -1.9478197821    0.4848649927
 O   -0.7938469621   -2.3270005816    1.3558538468
 C   -2.7626894282   -2.7792393100    0.1235568212
 C   -3.9361402155   -2.1314043193   -0.5792946910
 C   -2.4297283956   -4.2203892028   -0.1433395484
 N   -3.0971144891   -3.8353255034    1.0940932722
 H    1.1266528347    1.8468768519   -0.3700032286
 H    0.2295730389    1.1876217738   -1.7429043303
 H   -0.6237085226    2.0707069695   -0.4720618788
 H    0.8251354862   -0.6238617255   -0.0672739932
 H   -0.0193488281    0.2465612653    1.1864744764
 H   -2.1821432732    0.0015609695   -0.1032488816
 H   -1.3424452152   -0.8767313810   -1.3495059505
 H   -3.6546170913   -1.7256914194   -1.5559984418
 H   -4.7232542936   -2.8733223169   -0.7308131418
 H   -4.3603533062   -1.3177270240    0.0188630622
 H   -3.0407713742   -4.7675646685   -0.8569542020
 H   -1.3836057263   -4.5100475165   -0.1003142778
 H   -2.3930932869   -3.7898391945    1.8322039888