17

 C   -0.1178798955    1.3856973841    0.2574983387
 N   -0.0568608505   -0.0379067482   -0.0000587032
 C    0.4512715414   -0.5658990876   -1.0271823358
 C    0.4920876507   -2.0740028457   -1.2601200261
 N    1.1484221116   -2.2935213936   -2.5484369579
 C    1.4449884061   -1.1439110052   -2.9999332045
 N    1.0854743176   -0.0420843698   -2.1911053701
 C    1.3573044754    1.2715682624   -2.5616693778
 N    1.9435910782    1.5285104563   -3.6601037288
 H    0.8776427802    1.8467642256    0.3308929122
 H   -0.6904584769    1.9320261070   -0.5058918219
 H   -0.6199247930    1.5463261388    1.2153652424
 H    1.0413146971   -2.5789963889   -0.4583844648
 H   -0.5183458605   -2.4961663588   -1.2663843583
 H    1.9432927371   -0.9370933566   -3.9375106280
 H    1.0232577632    2.0058710440   -1.8328575520
 H    2.0620742778    2.5328854363   -3.7710315843