19

 N    0.1929237784   -1.3643370675   -0.3028253135
 C    0.1054534752   -0.2189665431   -0.1763323015
 C   -0.0009145086    1.2419357633   -0.0370615698
 C    1.3836168398    1.8736335193    0.0620522390
 C    1.5852052588    3.1294627489    0.8704803733
 C    2.1580342692    1.8191609576    1.3510975281
 C   -0.8190310917    1.8081032330   -1.1946194506
 C   -2.2968522152    1.8677019996   -1.1103975573
 N   -1.4919972581    3.1031187472   -1.0606866195
 H   -0.5438797392    1.4369544633    0.8985617000
 H    1.9615206116    1.7875894569   -0.8533450517
 H    2.2593812467    3.8833427889    0.4809798697
 H    0.7363743668    3.5361456422    1.4107955182
 H    1.6882053629    1.3431551866    2.2056097257
 H    3.2296663226    1.6679156077    1.2957406438
 H   -0.3594483756    1.6525102551   -2.1683538628
 H   -2.8988142667    1.7473392546   -2.0057042688
 H   -2.7678465943    1.5115009493   -0.1973635867
 H   -1.4263358324    3.4413044269   -0.1036576957