14

 C    0.1539052065    1.4031105781    0.0910085863
 O   -0.1632048861    0.0303975965   -0.0965347746
 C    0.5427726436   -0.5688555091   -1.1586232048
 C    1.9972607887   -0.6735215992   -0.8578903049
 N    3.1260107354   -0.7123423176   -0.6165021788
 C   -0.0185897898   -1.8876325925   -1.4331258072
 C   -0.4823627137   -2.9705384688   -1.6996170919
 C   -1.0043143504   -4.1928122087   -1.9885346956
 C   -1.4681709485   -5.2764796667   -2.2469652326
 H    1.2070278825    1.5422250319    0.3673015497
 H   -0.0594526731    1.9885145780   -0.8151621591
 H   -0.4818076390    1.7544875639    0.9046612759
 H    0.4572548470    0.0498437256   -2.0705035225
 H   -1.8745546730   -6.2319405914   -2.4711599100