23

 C    0.0492981304    1.5602708756    0.0034182310
 C    0.0672948203    0.0293829561    0.0231337020
 C    0.7685469400   -0.5465547937   -1.2249699796
 C    0.9278117458   -2.0670058519   -1.2024562266
 C    2.1514120463   -2.7133524432   -0.5918058024
 C    0.8245433088   -2.8148786032    0.1136799429
 C    0.5335116414   -2.0540171651    1.3974237877
 C    0.7012327240   -0.5242223245    1.3122081279
 O    2.0569914195   -0.1026442504    1.4810815701
 H    1.0634229122    1.9599635353    0.0991096205
 H   -0.3818317679    1.9404096177   -0.9287106561
 H   -0.5413836869    1.9591977386    0.8347247509
 H   -0.9694112037   -0.3354779643    0.0130071748
 H    0.1916755810   -0.2553138520   -2.1088663004
 H    1.7466311415   -0.0599533159   -1.3559598040
 H    0.5230604156   -2.5757990853   -2.0716602532
 H    2.5531459698   -3.6027331171   -1.0656869720
 H    2.9138052342   -2.0752368136   -0.1560701296
 H    0.3501473374   -3.7912275366    0.0688104776
 H   -0.5100578493   -2.2472704351    1.6792283491
 H    1.1541924719   -2.4257570170    2.2209258180
 H    0.1818045800   -0.0877546473    2.1735102602
 H    2.5157867777   -0.1931976570    0.6409815210