21

 C    0.0409689681    1.4362050199   -0.1011407453
 O    0.0005074179    0.0330403359    0.0089380561
 C    0.6067160519   -0.6131606354   -1.0665248749
 C    0.5314377665   -2.1297308151   -0.8907702823
 O    0.0033042099   -2.6412303053    0.0634554577
 C    1.1761245256   -2.9365462561   -2.0134412878
 C    1.0683057923   -4.4465313592   -1.8110801531
 C    1.7202895591   -5.2310508001   -2.9412379433
 O    1.5639176047   -6.6115636151   -2.6569287314
 H    1.0749505566    1.8153849801   -0.1356875004
 H   -0.4843537427    1.7923848668   -1.0018374303
 H   -0.4557192006    1.8435239494    0.7822003977
 H    0.1267990366   -0.3504424391   -2.0284131967
 H    1.6705064055   -0.3273044699   -1.1724129302
 H    0.7129729820   -2.6307684515   -2.9628963187
 H    2.2273254090   -2.6235579881   -2.0956614469
 H    1.5340340044   -4.7289113909   -0.8620018204
 H    0.0162979787   -4.7374100354   -1.7319984599
 H    1.2481407688   -4.9652226483   -3.9024460905
 H    2.7863355018   -4.9575942477   -3.0201752779
 H    1.9767708039   -7.1145699848   -3.3647675716