14

 O   -0.0611517972    1.4297027924    0.0442560978
 C    0.0244026844    0.0154686058    0.0033396432
 C    0.7455059694   -0.5252548503    1.2393483738
 O    0.7088828648   -1.9576377247    1.2777417896
 C   -0.4542046831   -2.5165773003    0.8543828219
 N   -1.4503581318   -1.9767326767    0.2965639859
 C   -1.3939589052   -0.5492959979   -0.0078439878
 H    0.8040914342    1.7969278149   -0.1629037977
 H    0.5566335888   -0.3272623972   -0.8968494946
 H    1.8033370760   -0.2472963543    1.2527769471
 H    0.2667333765   -0.1217077271    2.1404660858
 H   -0.4403271371   -3.5855294035    1.0584493112
 H   -1.9995978073    0.0042166760    0.7214223887
 H   -1.8604709922   -0.3853011971   -0.9843723549