23

 C   -0.0630866598    1.5437301323   -0.1807164194
 C    1.4578466561    1.6458287643    0.1128618627
 C    1.4410523235    0.1890679415    0.6662590498
 C    1.5588366003    0.0587687158    2.1836485370
 C    1.3471232713   -1.3709865475    2.7012263328
 O   -0.0034389928   -1.7841764927    2.7762632785
 C   -0.6727794103   -1.9778390835    1.5426920912
 C   -1.0932462158   -0.6661032067    0.8636115230
 C    0.0109335075    0.0068421126    0.0483802973
 H   -0.6702689709    2.0404624303    0.5825623999
 H   -0.4052826591    1.8856500647   -1.1606500421
 H    2.0598419098    1.7449043020   -0.7942347889
 H    1.7706017885    2.4236529478    0.8153047987
 H    2.1932122626   -0.4660134340    0.2124262913
 H    2.5650843993    0.3835968997    2.4826693340
 H    0.8533729445    0.7237667422    2.6977171645
 H    1.9286914847   -2.0770564500    2.0820571091
 H    1.7218063496   -1.4499525562    3.7271931077
 H   -0.0562948624   -2.5882142896    0.8604283939
 H   -1.5629989204   -2.5644721279    1.7929563941
 H   -1.9527507978   -0.8635605789    0.2094239581
 H   -1.4553123016    0.0032492168    1.6534554703
 H    0.1066374931   -0.5138128830   -0.9112907734