20

 C   -0.0707685357    1.6724860105    0.1277215686
 C   -0.0303855220    0.1533943380    0.0312097029
 C   -1.4129888346   -0.4478485281   -0.1809796045
 O   -1.9245794374    0.0424776839   -1.4225630177
 C   -3.0561918677   -0.5286914094   -1.8782517345
 N   -3.6001729439   -0.0978525531   -2.9319348451
 C    1.0221561652   -0.4820787333   -0.9123401915
 O    1.5055097226   -1.3419638422    0.1426276268
 C    0.7447461542   -0.6189886915    1.1283895660
 H    0.9342995371    2.0826270334    0.2643727061
 H   -0.5018466934    2.1066954980   -0.7782694428
 H   -0.6837282674    1.9946030238    0.9776781077
 H   -1.3469705783   -1.5438341141   -0.2086087320
 H   -2.0866152072   -0.1612576009    0.6394696924
 H   -3.4078170427   -1.3637525827   -1.2558676396
 H   -4.4317103342   -0.6457618796   -3.1425246124
 H    0.6409962341   -1.0455589044   -1.7703906251
 H    1.7951538100    0.2181707882   -1.2554812878
 H    1.3812573516    0.0214907594    1.7543127602
 H    0.1652972197   -1.2871454759    1.7785185921