22

 C   -0.1094684417    1.4124939354   -0.1060470584
 C   -0.0413088831   -0.1139607010   -0.0237617529
 C    0.8095686001   -0.6037127625    1.1538469767
 N    0.7798223543   -2.0514940107    1.2509369472
 C    1.8721699007   -2.6646291773    1.1542373977
 O    1.9107046651   -4.0136144245    1.2124272767
 C    3.2030358067   -4.6243801644    1.1415363546
 C    2.9606148382   -6.1051329977    0.8973142205
 O    2.2754624800   -6.3277218375   -0.3161219196
 H    0.8868737373    1.8519640635   -0.2298374608
 H   -0.7213582490    1.7360781349   -0.9533254960
 H   -0.5478050609    1.8401758383    0.8026610740
 H   -1.0472902746   -0.5362515809    0.0770887302
 H    0.3733055275   -0.5237195047   -0.9530503731
 H    1.8371923876   -0.2079413644    1.0584069332
 H    0.3955355621   -0.1923692768    2.0843723599
 H    2.8557139140   -2.1883391008    1.0176644381
 H    3.7769946354   -4.1945336513    0.3107563435
 H    3.7527765096   -4.4658576890    2.0792652736
 H    3.9232972998   -6.6215304974    0.8251965109
 H    2.4156093931   -6.5250756845    1.7569754413
 H    1.4660088178   -5.8054091966   -0.2704420271