11

 C   -0.0617799769    1.5931345465    0.0247177877
 C    1.4325361865    1.1910902528    0.0130621278
 C    1.1543471867    0.1375312004    1.1118725830
 C    0.0595896503    0.0504060565    0.0216100325
 O    1.1184261313    0.1648710123   -1.0095767324
 H   -0.4608100994    2.0801123766    0.9185500393
 H   -0.4307560641    2.0302805955   -0.9036791498
 H    2.3166213174    1.8086543446   -0.1490349403
 H    1.8511352368   -0.7009531395    1.1361979736
 H    0.8684873050    0.4890534998    2.1068713955
 H   -0.7106721536   -0.7065095755   -0.1301896968