23

 C   -0.0734254262    1.5452218650   -0.0933067514
 C   -0.0180483042    0.0157392016   -0.0391564712
 C   -1.4047474092   -0.5795839590   -0.2627083686
 C    1.1368597857   -0.5464349054   -0.9306243249
 C    2.0435160881   -0.6356302829    0.3238259799
 C    0.7691203625   -0.5425053130    1.2038527978
 C    0.8141432265    0.2450701724    2.5165627471
 C    1.6086678531   -0.4960946333    3.5673899138
 O    2.5995046979   -0.0805121791    4.1107491665
 H    0.9127992623    1.9998949613    0.0435673616
 H   -0.4541031768    1.8736378631   -1.0668964246
 H   -0.7393466399    1.9522353604    0.6758047842
 H   -1.8154103924   -0.2711698550   -1.2313689026
 H   -1.3759177064   -1.6743084481   -0.2460828648
 H   -2.1093240025   -0.2505808226    0.5109608230
 H    0.8940116198   -1.5344569770   -1.3327504749
 H    1.4762197396    0.0888110292   -1.7532573968
 H    2.6681865173   -1.5247089733    0.4357792200
 H    2.6823068173    0.2453265818    0.4371566177
 H    0.3993241908   -1.5544597637    1.4140770153
 H    1.2527816000    1.2376493992    2.3856138182
 H   -0.2097528957    0.3653909221    2.9013614710
 H    1.2071223623   -1.5095157337    3.8097250235