20

 C    0.3111904403    1.4091211517    0.2022521593
 C   -0.2536376298    0.0139558492   -0.0477536142
 N    0.4886281765   -0.6378031348   -1.1308139125
 C    1.7725217286   -1.3049841628   -0.9115582362
 C    1.7449935911   -2.1351258181    0.3531538043
 O    2.5218438327   -2.3029390088    1.2496344479
 C    0.4445154238   -2.8679258327   -0.0703855553
 C    0.5099596674   -2.0515703991   -1.3813684121
 C    0.1827934283   -2.5813444095   -2.7456656905
 H    1.3484034961    1.3523838350    0.5476674970
 H    0.2897514226    2.0041639052   -0.7148558671
 H   -0.2718914705    1.9262081065    0.9698903206
 H   -0.2545155470   -0.5559677705    0.8918326323
 H   -1.2955854382    0.0840050557   -0.3811275787
 H    2.6471498581   -0.9549745949   -1.4499518605
 H    0.6563140611   -3.9327113558   -0.2097783362
 H   -0.4474255965   -2.7622167205    0.5520327086
 H   -0.8958061085   -2.7493981624   -2.8475758021
 H    0.4858627991   -1.8650451745   -3.5131678998
 H    0.6867545148   -3.5359477990   -2.9283426148