18

 C   -0.1012213820    1.5151816677    0.0118079943
 C    0.0152492125    0.0021547020    0.0038513584
 O   -1.3178066129   -0.5269978696    0.0110573404
 C   -1.4580603578   -1.8663155904    0.0061921392
 N   -0.3797879572   -2.6384778745   -0.0051983730
 C   -0.5700522020   -3.9659688591   -0.0097454779
 C   -1.8178121512   -4.5666900576   -0.0032644321
 C   -2.9427075683   -3.7348034196    0.0087070318
 C   -2.7721556976   -2.3640631654    0.0135880946
 H    0.8961995872    1.9648588149    0.0065869526
 H   -0.6444294046    1.8692568568   -0.8690061953
 H   -0.6314093890    1.8609470565    0.9037851322
 H    0.5466019779   -0.3607639174   -0.8825657662
 H    0.5594164990   -0.3690695867    0.8789765449
 H    0.3340451715   -4.5703326595   -0.0190731670
 H   -1.9110591648   -5.6459678271   -0.0074031687
 H   -3.9419024833   -4.1583244793    0.0141470605
 H   -3.6055957174   -1.6726649518    0.0227905412