18

 C    0.2901473962    1.5376355330    0.2040125259
 C   -0.2149074573    0.1296484021   -0.1280510106
 C    0.5401616179   -0.5005609724   -1.2890330150
 N    1.8931106332   -1.0276621332   -0.9934535224
 C    0.8489567939   -1.9706574535   -1.4029722947
 C    0.3961028945   -3.0050629425   -0.4021001068
 C    0.3753078675    0.1874196045   -2.5543265586
 N    0.2497004440    0.7484227589   -3.5588282527
 H    1.3525601449    1.5108882399    0.4636908805
 H    0.1632272883    2.2168813028   -0.6447764098
 H   -0.2590316839    1.9540840307    1.0530195596
 H   -0.1007372205   -0.5177168110    0.7443218923
 H   -1.2826913777    0.1548150216   -0.3750662759
 H    2.5348901843   -0.8299590085   -1.7568351688
 H    0.8984805376   -2.3352556024   -2.4278853668
 H    0.4210132396   -2.6187912694    0.6180642061
 H   -0.6191748473   -3.3464167256   -0.6279540383
 H    1.0611350348   -3.8738807449   -0.4445108441