23

 C    0.0414705401    1.5658568814   -0.2589081573
 C    0.0310428754    0.0517998774   -0.0320026008
 C   -1.3818189503   -0.5372840201    0.0239299449
 C   -1.3945756430   -2.0573117833    0.2508099103
 C   -2.7791290232   -2.6230596573    0.3007413914
 C   -3.8523554697   -2.4587493960    1.3982801680
 C   -4.4470119980   -3.8440886738    0.9627998886
 C   -3.3530532915   -3.9188214998   -0.1098595357
 O   -3.4987978013   -2.7562615826   -0.9383679836
 H    1.0626420038    1.9581211340   -0.2952087628
 H   -0.4498367798    1.8273553949   -1.2026041567
 H   -0.4882358466    2.0902032628    0.5443246143
 H    0.5971714218   -0.4431489635   -0.8322577038
 H    0.5595983470   -0.1832630952    0.9017422038
 H   -1.9499166824   -0.0446486262    0.8247922929
 H   -1.9132957875   -0.3151523401   -0.9098755789
 H   -0.8428858856   -2.5572283422   -0.5542968911
 H   -0.8767532262   -2.2948915515    1.1898771004
 H   -3.4411961940   -2.4797087261    2.4108278168
 H   -4.5004462279   -1.5865762243    1.2856318742
 H   -4.3467567364   -4.6066437069    1.7390151205
 H   -5.4701715209   -3.8446636386    0.5797132729
 H   -2.8922123940   -4.7898768231   -0.5633976982