17

 C   -0.0371119486    1.3478854554    0.0570534944
 O   -0.0048721875   -0.0671499424    0.0152482173
 C    0.6131372482   -0.5938354968   -1.0683229362
 C    1.2133193546    0.0123399683   -2.1331129503
 O    1.7005351613   -0.9438762833   -2.9813720359
 C    1.4007482521   -2.1512330170   -2.4395545687
 C    0.7338614462   -2.0113834584   -1.2650956652
 C    0.2259995776   -3.0822109672   -0.3576409007
 O    0.5603365190   -4.3410596335   -0.9207483335
 H    0.9788800737    1.7650059150    0.0722607617
 H   -0.5752921888    1.7556432078   -0.8092936876
 H   -0.5588541255    1.6260437923    0.9739102245
 H    1.3722967954    1.0347648486   -2.4247001886
 H    1.7194808091   -3.0182588598   -2.9911874965
 H    0.6682309954   -2.9591241817    0.6449132331
 H   -0.8640635381   -2.9747020835   -0.2307849530
 H    0.2296489060   -5.0265986439   -0.3339981948