21

 C   -0.1686442648    1.4734833562   -0.1331769073
 C   -0.0092431840   -0.0321250997    0.1023744037
 C    0.9043192452   -0.4387194698    1.2803726416
 C    2.3191576494    0.1697770663    1.1938746534
 C    0.2999096315   -0.0248900567    2.6200594515
 O   -0.8310101835    0.3462803399    2.7922027575
 C    1.0591434663   -1.9636806730    1.2477233197
 C    0.9220274097   -2.8714568703    2.3984379180
 O   -0.1085587865   -2.7584233507    1.4153798552
 H    0.7786183298    1.9542712694   -0.3974249661
 H   -0.8622329327    1.6489457001   -0.9611423627
 H   -0.5749393516    1.9728345513    0.7498429825
 H   -0.9905314295   -0.4787752839    0.2848070321
 H    0.3861197380   -0.5033062305   -0.8067717353
 H    2.2918755491    1.2611583354    1.2436618859
 H    2.9525702639   -0.1887200417    2.0124607471
 H    2.7985800415   -0.1113296074    0.2508497096
 H    1.0140577637   -0.0859395496    3.4752249070
 H    1.7015268462   -2.2976529081    0.4287083213
 H    1.4652270602   -3.8154756099    2.4017137639
 H    0.6666523182   -2.4868954274    3.3835758115