18

 C   -0.0103117987    1.5141715303   -0.1366762864
 C    1.3047015881    0.7937452668    0.0043182084
 C    0.0101744671    0.0109616758    0.0277846779
 C   -0.4557351456   -0.6351391313    1.2745470422
 N   -0.2776303030   -2.0793821261    1.5614471012
 C   -1.6379262372   -1.4814195699    1.5668654089
 C   -1.8268976771   -0.7471417438    2.9414410688
 O   -0.6372076741   -0.8895206142    3.7160734889
 C   -0.6545221498    0.0827619696    2.6741330623
 H   -0.3533093725    2.1188561139    0.6955954076
 H   -0.2824630637    1.9103769742   -1.1084653628
 H    1.9432046242    0.7018198918   -0.8670137806
 H    1.8413986128    0.8974860665    0.9412184979
 H   -0.2151107063   -0.5630839907   -0.8681234610
 H   -0.1688263569   -2.5394583666    0.6561505553
 H   -2.4274661303   -1.8291974563    0.9135210132
 H   -2.7562008697   -0.5392797587    3.4571782093
 H   -0.4231536371    1.1098166388    2.9300585489