17

 C    0.2362693146    1.4502138075   -0.1327012412
 C    0.0163399764   -0.0212341154    0.1437528709
 O    1.1686941261   -0.8841496794    0.1615532245
 C    0.4571935885   -0.7054496945    1.3869021043
 C    1.1842269041    0.0011669724    2.4912023502
 C    2.4578411720   -0.5732172994    2.9960282855
 N    2.4572753804    0.6785852479    2.2201222203
 C   -1.1240188365   -0.6006369014   -0.5532507828
 N   -2.0443493040   -1.0337055812   -1.1018403106
 H    1.0231092063    1.8542340216    0.5040534820
 H    0.5086893188    1.5973835145   -1.1816824720
 H   -0.6879493634    2.0037333669    0.0573843576
 H   -0.1246243337   -1.5753389039    1.6950962058
 H    0.5324935433    0.5201748140    3.1912030624
 H    2.7181077836   -0.4694546919    4.0449052698
 H    2.8307289232   -1.4734955823    2.5148370548
 H    2.7319520703    0.4586806047    1.2637023986