19

 C   -0.1767071138    1.5751809974   -0.0015658192
 C    0.0436441904    0.0681184825   -0.0083414808
 C    1.1665273961   -0.5826501378   -0.8652173617
 O    1.3666355800   -0.6294122579   -2.0459598198
 C    1.7730856622   -1.2739878141    0.3226879444
 C    2.0810923016   -0.2249722675    1.3864278248
 C    0.6619236487   -0.6541469783    1.2110796584
 C   -0.1426237038   -1.3190906237    2.2886888438
 O   -0.8410072932   -0.3769120868    3.0931214729
 H    0.7239286959    2.1210011953    0.2958035017
 H   -0.4580353055    1.9203784256   -1.0010274145
 H   -0.9790086835    1.8422212416    0.6928891786
 H   -0.8877430865   -0.4389665448   -0.2947807737
 H    2.2329510352   -2.2544480005    0.3498950359
 H    2.6004964790   -0.6280598741    2.2515183107
 H    2.4178432234    0.7650718177    1.0949737571
 H   -0.9185668427   -1.9541582181    1.8474756323
 H    0.5076795154   -1.9683034526    2.8967354648
 H   -0.1857296090    0.2047784861    3.4929494442