19

 C   -0.1838361714    1.5747627766   -0.1134011719
 C    0.0116927747    0.0689063909   -0.0522672285
 O   -1.2172987121   -0.5932147287    0.1904110503
 C    0.6821756537   -0.6437621636   -1.2297462810
 C    2.1202662769   -0.2320666924   -1.3844686169
 C    1.7612055424   -1.2282487612   -0.3244257742
 C    1.1590197662   -0.5145540585    0.9035273267
 C    2.0024146116    0.3904670669    1.6586398216
 C    2.6889631581    1.1674399881    2.2701940552
 H    0.7478518108    2.0997861607   -0.3336507244
 H   -0.9198396368    1.8202364207   -0.8851069248
 H   -0.5474944096    1.9555053463    0.8490580801
 H   -1.6408687827   -0.1651183661    0.9428292162
 H    0.1188073047   -1.1234683465   -2.0202960383
 H    2.6188697368   -0.6436807307   -2.2560046468
 H    2.4583434050    0.7637216474   -1.1119621164
 H    2.1700553565   -2.2303493079   -0.3024567964
 H    0.6707736099   -1.2331371108    1.5670666656
 H    3.3013562653    1.8406120692    2.8172081039