17

 N   -0.0614960083    1.3887244771   -0.1444857239
 C    0.0504408121   -0.0240581266   -0.0530402538
 C    0.6696775883   -0.9692357442   -1.1202015707
 C    0.0839607792   -1.9169805177   -0.0334797056
 C    0.6993946384   -0.9740612432    1.0344351610
 C   -1.1777878247   -0.9839702581   -0.0205065988
 O   -1.9547556861   -0.8790571128    1.1479000270
 C   -2.0556401893   -1.0316004814   -1.1966378971
 N   -2.7931305993   -1.1081991183   -2.0837357200
 H   -0.5239715333    1.7677387576    0.6763720600
 H    0.8525668675    1.8244065744   -0.2132663984
 H    0.2058681365   -0.9775029201   -2.1083028359
 H    1.7592453761   -0.9549685742   -1.1854944610
 H    0.0769053616   -3.0049053895   -0.0399426154
 H    1.7908039297   -0.9594135637    1.0748732271
 H    0.2472933884   -0.9795271763    2.0243476137
 H   -2.6362041668   -1.5597729431    1.1318294018