18

 C    0.2151528339    1.4697325215    0.0321757944
 N   -0.1956769034    0.0792348216   -0.1182652819
 C    0.4383072892   -0.6780950147   -1.1006111323
 C    0.5256132305   -2.0529764789   -1.2016744399
 C    0.0357292099   -3.1806815524   -0.3726157899
 O    1.0542568841   -4.1844899325   -0.3315143551
 N    1.1712158272   -2.2709639872   -2.4115410003
 C    1.4613204750   -1.0619241497   -2.9432279894
 N    1.0229300489   -0.0749982848   -2.1876357060
 H    1.2752710017    1.5925734207    0.3022421520
 H    0.0526429808    1.9959494750   -0.9097804077
 H   -0.4026843311    1.9345788575    0.8051499440
 H   -0.2547620268   -0.4081390323    0.7650726103
 H   -0.2096679073   -2.8102119860    0.6357153760
 H   -0.8926084188   -3.6143906610   -0.7836771477
 H    0.6684335862   -4.9808924251    0.0472084390
 H    1.4930064124   -3.1723412805   -2.7222761314
 H    1.9970071076   -0.9481879312   -3.8736091440