15

 N    0.2146051761    1.4948903609    0.0085419663
 C   -0.0054873072    0.0730975991    0.0309716076
 C    0.1553227043   -0.6763583982    1.3791796752
 N   -1.1647988906   -1.3914089484    1.2286994400
 C   -2.1787344046   -0.3371171539    1.2249689062
 C   -1.4230548756   -0.5597424409   -0.0336589223
 C   -2.0223816920   -1.0887573775   -1.2195657827
 N   -2.4763704330   -1.4717047663   -2.2131830215
 H    0.1173364052    1.8692467865   -0.9297022051
 H   -0.4444885920    1.9875968176    0.6026221165
 H    0.6237985197   -0.3833974751   -0.7360803172
 H    0.9789567637   -1.3901874778    1.4007176668
 H    0.2003958588   -0.0431739395    2.2709897662
 H   -3.1960289509   -0.7129028063    1.2582653150
 H   -2.0074586421    0.5726132600    1.7989501490