15

 C    0.0350648360    1.5519869012   -0.0001718130
 C   -0.0020430475    0.0437927930   -0.0543795430
 C    1.0916891806   -0.7083914104   -0.6924916267
 O    0.9858481229   -0.6421006343    0.7312152952
 C   -1.3473347923   -0.6250877937    0.0012307820
 C   -2.5459752912   -0.0021247556    0.5774636647
 O   -2.3714655476   -0.0882492180   -0.8394608295
 H    1.0435705979    1.9198862687   -0.2003430169
 H   -0.6504779496    1.9697459796   -0.7429221939
 H   -0.2647616290    1.9124642684    0.9890086457
 H    0.8974706387   -1.6861754851   -1.1320549320
 H    1.9293689629   -0.1637494383   -1.1256451243
 H   -1.2880175309   -1.7141289916    0.0088661421
 H   -3.3269972370   -0.6378766087    0.9916260287
 H   -2.4970864639    1.0020474750    0.9925342208