13

 O   -0.0310555845    1.4445163832    0.0177385361
 C    0.0548585228    0.0229354590    0.0083681207
 C    0.6806358385   -0.4870469045   -1.2132138205
 C    1.2175951668   -0.8618213558   -2.2200087775
 C    0.7685733875   -0.4562095460    1.2491979402
 C    1.1980803523    0.2510518094    2.3252614572
 O    1.7500097495   -0.5866636476    3.1990232891
 N    1.6447986437   -1.8919294841    2.6203685707
 N    1.0767739091   -1.7730893038    1.5059737485
 H    0.7780707586    1.7848218389   -0.3805389846
 H   -0.9841361655   -0.3303931809    0.0448258902
 H    1.6839126283   -1.2088762358   -3.1094296872
 H    1.1652348328    1.2964237379    2.5792238672