18

 C   -0.0727769643    1.5837151566    0.1830575229
 C    0.2125347786    0.1021657999   -0.0565914897
 C    1.2892120039   -0.2591409910   -1.0978086155
 N    1.8413727758   -1.5714995917   -0.7040677412
 C    1.8827088404   -1.5547278996    0.7681679939
 C    3.1409895141   -1.0102726967    1.2738261153
 C    4.1533171463   -0.5210675421    1.6981193216
 C    0.7079982357   -0.6168599025    1.2050568857
 O    0.2733227349   -0.5009635659    2.3170595464
 H    0.8515733335    2.1258990106    0.4075981771
 H   -0.5323139198    2.0455964487   -0.6957144926
 H   -0.7487949767    1.7040751864    1.0337717450
 H   -0.7236560742   -0.4069731777   -0.3319773143
 H    0.9112619638   -0.3037578926   -2.1211893188
 H    2.0996758745    0.4795307739   -1.0738591515
 H    1.1975706333   -2.3017273735   -0.9935485478
 H    1.7216104295   -2.5566962211    1.1784599742
 H    5.0566180507   -0.1071434916    2.0731116994