23

 C   -0.2304744883    1.5518037463   -0.0033005658
 C    0.0451401573    0.0449651392    0.0079847244
 C    0.8065794482   -0.4755778853   -1.2284452388
 C    2.2689248657   -0.0030285582   -1.2305757982
 C    0.6857285747   -2.0148874591   -1.3127870024
 O   -0.6725435072   -2.4320769190   -1.3035271782
 C    1.4281482787   -2.6128559073   -2.5312417863
 C    1.2894831879   -4.0595209301   -2.6372758387
 C    1.1901594789   -5.2540119000   -2.7215637951
 H    0.6891414727    2.1456785021   -0.0093501773
 H   -0.8152916654    1.8393813391   -0.8846798836
 H   -0.8019407155    1.8477766486    0.8820106222
 H    0.6155904653   -0.2187580902    0.9095826329
 H   -0.9028581991   -0.4957687733    0.0752953304
 H    0.3110984856   -0.0685990655   -2.1258403817
 H    2.7742809525   -0.2056014685   -2.1787197840
 H    2.3322035201    1.0750068610   -1.0599485179
 H    2.8383562835   -0.4954021742   -0.4329004503
 H    1.1133001335   -2.4533638427   -0.4022867857
 H   -1.0778014326   -2.1464483663   -2.1303253434
 H    1.0467860606   -2.1348275753   -3.4463600184
 H    2.4914205927   -2.3561631886   -2.4768137165
 H    1.0949754404   -6.3088360427   -2.7938870877