18

 C    0.1158599680    1.5139548425    0.0920801488
 C   -0.0366365505    0.0192915398    0.1022247859
 C   -1.2837706262   -0.6370836808   -0.4653297830
 N   -1.1976701481   -2.0306801242   -0.0083166624
 C   -0.4012590175   -2.1094692970    1.2196385906
 C    0.3999583280   -3.4064465263    1.2327966913
 O    0.5271113664   -4.1143230184    2.1979486096
 C    0.5021430014   -0.8875514739    1.1246335458
 O    1.1497738170   -0.7538645380   -0.1472681245
 H    1.0492086766    1.8049262376    0.5794776695
 H    0.1376987098    1.8924340701   -0.9356088600
 H   -0.7190052403    1.9963751574    0.6105905173
 H   -2.1644605726   -0.0956137689   -0.0818498932
 H   -1.3145114141   -0.5935513604   -1.5608820352
 H   -2.1011137395   -2.4738500607    0.0849375139
 H   -0.9707515754   -2.0497542359    2.1605674881
 H    0.8615517052   -3.6406737883    0.2507155959
 H    1.0705983519   -0.5639278645    1.9918418017