18

 C   -0.1938219875    1.2677684256    0.0932914849
 C   -0.2690014040   -0.0978964735   -0.5959639580
 C    1.0868291989   -0.5062023022   -1.1886088694
 N    1.2094918958   -1.7754599027   -1.8831674050
 C    0.2236242557   -2.5434552499   -2.0061653105
 O    0.3641684315   -3.7209129323   -2.6581677193
 C   -0.8108683676   -4.5144809840   -2.7417118605
 H    0.5359444901    1.2588436018    0.9103459655
 H    0.1092344050    2.0502096528   -0.6110943238
 H   -1.1614839924    1.5560716010    0.5146448727
 H   -0.6029079951   -0.8541460564    0.1262676057
 H   -1.0277848381   -0.0661956220   -1.3885973905
 H    1.4186326022    0.2747715390   -1.8876147491
 H    1.8394455970   -0.5056051930   -0.3872417877
 H   -0.7923712239   -2.3666170937   -1.6293539622
 H   -1.1797133747   -4.7980295475   -1.7478049874
 H   -1.6107847347   -3.9976946494   -3.2870221922
 H   -0.5350524581   -5.4172295136   -3.2883495131