20

 C   -0.2044675420    1.5242357957    0.0067694713
 C    0.0479529063    0.0228914752   -0.0482160831
 C    1.2322128383   -0.5424889732   -0.9084826164
 C    1.7735059958   -1.2581242083    0.3356652859
 C    2.0730401828   -0.2512130435    1.4099787127
 C    0.6403659948   -0.6805740928    1.1890262575
 C   -0.1787097897   -1.3052259329    2.2768451664
 O   -0.8285864081   -0.3326957316    3.0917941098
 H    0.7040207248    2.0798065185    0.2630391327
 H   -0.5588320183    1.9012647947   -0.9590216413
 H   -0.9634595849    1.7546689496    0.7615484748
 H   -0.8793010281   -0.4863093784   -0.3329472662
 H    0.8964618088   -1.2181479718   -1.6980662409
 H    1.9064795008    0.1999115010   -1.3501733295
 H    2.1946331383   -2.2564740461    0.3584540048
 H    2.5376844726   -0.6535883578    2.3060131202
 H    2.4150544329    0.7469749029    1.1468266460
 H   -0.9887341560   -1.9095228994    1.8520488508
 H    0.4499644602   -1.9801062407    2.8812715880
 H   -0.1454218694    0.2640470988    3.4158202165