20

 C   -0.0817997588    1.4541583070    0.0234574777
 N   -0.0036148251    0.0038612051   -0.0020930811
 C    0.5894594642   -0.4813291393   -1.2435973906
 C    0.6676528164   -2.0057993507   -1.3075135773
 C    1.8782105054   -2.7125121391   -0.7868210395
 C    0.5675576963   -2.7921956486   -0.0109644531
 C    0.4434880429   -2.0396971679    1.2653790000
 O    0.1446507178   -2.5744333213    2.3095549433
 C    0.6777238986   -0.5322692298    1.1720692031
 H    0.9096049327    1.9461629222   -0.0134432531
 H   -0.6638315113    1.8067181787   -0.8342681703
 H   -0.5878134846    1.7811885008    0.9366841859
 H   -0.0285434737   -0.1180041843   -2.0712973417
 H    1.6011245888   -0.0520999959   -1.3951034310
 H    0.1730901077   -2.4568184497   -2.1607292069
 H    2.2088177079   -3.6243259913   -1.2705152903
 H    2.6802046679   -2.1111797690   -0.3707103019
 H    0.0584134209   -3.7490566357   -0.0088478499
 H    1.7682717100   -0.3162156801    1.1692025516
 H    0.2619102759   -0.0867143113    2.0784903851