16

 O   -0.0912635862    1.4770759657   -0.0201907785
 C    0.0236039754    0.0696899769    0.0111229691
 C   -1.4056530387   -0.4953386543   -0.0106668746
 C   -2.0932859784   -0.1346057231   -1.2532437363
 N   -2.6431575300    0.0905190660   -2.2444673195
 C   -1.3920062981   -2.0413214124    0.1770054391
 O   -0.7240361085   -2.3778502563    1.3548986551
 C   -2.8065178304   -2.6070979611    0.2015112690
 O   -3.1899906830   -3.2494002816    1.1485577689
 H    0.7917931071    1.8559244532   -0.0583154626
 H    0.5791524798   -0.3191113308   -0.8558964784
 H    0.5099710327   -0.2905950143    0.9254901070
 H   -1.9486577667   -0.0481658868    0.8305223540
 H   -0.8851000465   -2.4799694617   -0.7008301849
 H   -1.3639325734   -2.8886564480    1.8798272628
 H   -3.4466380650   -2.4058066116   -0.6761109702