20

 C   -0.0364988261    1.5255927556   -0.0062391020
 C   -0.0291367703   -0.0134126094    0.0473631731
 C    0.7027207847   -0.5273849016    1.3010492986
 C   -1.4171325232   -0.5646895132   -0.0334449515
 N   -1.9300965308   -1.3314256890   -0.9434028941
 C   -3.2488062789   -1.5478121873   -0.5387918199
 C   -4.1870265175   -2.3926671986   -1.3318446948
 C   -3.4510158670   -0.8792573975    0.6205332601
 O   -2.2858803764   -0.2420812027    0.9607884895
 H    0.9879253431    1.9100438624    0.0123980607
 H   -0.5212884810    1.8879323030   -0.9173661812
 H   -0.5716924972    1.9420691772    0.8525890683
 H    0.4803241747   -0.3964373496   -0.8421909722
 H    1.7288556211   -0.1476864021    1.3227591067
 H    0.1966967748   -0.1922555428    2.2116414767
 H    0.7420600127   -1.6203982969    1.3164798076
 H   -3.8011419093   -3.4122523764   -1.4364950212
 H   -5.1697800640   -2.4440391691   -0.8560265490
 H   -4.3143148857   -1.9914943182   -2.3429326708
 H   -4.2835292036   -0.7506686439    1.2907077952