19

 C    0.5713360778    1.2927099673    0.0159156626
 C   -0.0937569130   -0.0848126962   -0.0185366003
 O   -1.5165133179    0.0627980037   -0.0221734556
 C    0.3955142174   -0.9385755084   -1.2343761296
 C    1.4407312348   -1.8854587785   -0.6825407072
 N    2.4877551293   -1.2085595584    0.1175869746
 C    1.3578085750   -1.8837866218    0.7984937434
 C    0.2594468838   -0.9373054448    1.2333037705
 H    1.6569965261    1.1878706196    0.0671920797
 H    0.3249184275    1.8632372478   -0.8894346950
 H    0.2213967299    1.8593864869    0.8847313311
 H   -1.7402085392    0.7296703178   -0.6799624792
 H   -0.4556454527   -1.5161868489   -1.6101072321
 H    0.7734313043   -0.3145287193   -2.0515568297
 H    1.7107572465   -2.7761809999   -1.2410393794
 H    3.3077730167   -1.8082912433    0.1636533615
 H    1.5645359562   -2.7732841440    1.3849487746
 H    0.5431626636   -0.3105647816    2.0842443162
 H   -0.6287060361   -1.5105360881    1.5182596141