21

 C    0.3346260153    1.3509550465    0.3602164158
 C   -0.3096652298    0.0923302344   -0.2352819394
 C    0.4451575961   -0.4600920554   -1.4319018173
 C    0.4547638060    0.3828160475   -2.6887415754
 O    1.7271302707   -1.0585146577   -1.0981809544
 C    0.6848682523   -1.9034319920   -1.5328331571
 C    0.1369599423   -3.0945086255   -0.7505349812
 O    0.1424153097   -3.8951914613   -1.9537221113
 C    0.7648332619   -2.8472087181   -2.7302329032
 H    1.3749993616    1.1525076438    0.6340477174
 H    0.3230503989    2.1889460356   -0.3434849480
 H   -0.1998569838    1.6693830503    1.2598220801
 H   -0.3604459011   -0.6835340996    0.5358787585
 H   -1.3433377391    0.3038929471   -0.5378187861
 H    0.9024968456    1.3631148504   -2.4997351233
 H    1.0322054029   -0.1023204306   -3.4790333813
 H   -0.5661849983    0.5437177690   -3.0518151031
 H    0.8224044978   -3.4823582126    0.0139222222
 H   -0.8687930228   -2.9946901523   -0.3241891320
 H    0.1749181065   -2.5817357648   -3.6161530546
 H    1.7884719373   -3.1018216649   -3.0336172863