21

 C   -0.0539651231    1.4275399278    0.3558150141
 C   -0.0637825556   -0.0072996075   -0.1818629784
 C   -1.4626847756   -0.6551405507   -0.2322208625
 C   -2.3175798733   -0.0856242373   -1.3823544468
 O   -3.6965257189   -0.3610353980   -1.2668144883
 C   -1.2976109246   -2.1717288833   -0.3517869621
 O   -2.5696270316   -2.8392643672   -0.4651892269
 C   -2.9782721012   -3.6338948838    0.5457532608
 O   -4.0431492524   -4.1705676555    0.5507005758
 H    0.9651076341    1.8250668723    0.3784503409
 H   -0.6554971966    2.1026452669   -0.2597196303
 H   -0.4506195137    1.4673977145    1.3758022920
 H    0.3780503076   -0.0300907595   -1.1874143707
 H    0.5941698003   -0.6215989258    0.4467228230
 H   -1.9935460732   -0.4408914116    0.7053223134
 H   -2.2333023342    1.0052058571   -1.3928003462
 H   -1.9054815022   -0.4456685212   -2.3423635445
 H   -3.7997113818   -1.3189723238   -1.2400158187
 H   -0.7380479070   -2.4279839133   -1.2582986812
 H   -0.7509545256   -2.5755898804    0.5099681742
 H   -2.2177000615   -3.7295014897    1.3444593525