15

 N   -0.1464860008    1.3501441902    0.0130108689
 C    0.0364960049    0.0860037400    0.0020324708
 C   -1.1563379769   -0.7484829897    0.0074211016
 N   -2.0898821669   -1.4292913583    0.0112123161
 N    1.2096636780   -0.6452314551   -0.0144952244
 C    1.3143543170   -2.1192926479   -0.0256627412
 C    2.8585012712   -2.3147448553   -0.0408208079
 N    3.4605549286   -0.9702177863   -0.0361127873
 C    2.5074878795   -0.1313515831   -0.0218348264
 H    0.7260666207    1.8767337190    0.0085365940
 H    0.8380129064   -2.5445708258    0.8612101479
 H    0.8221788271   -2.5322729096   -0.9096906192
 H    3.2116797382   -2.8716590392    0.8321999981
 H    3.1960305514   -2.8584245917   -0.9282619636
 H    2.6560582216    0.9419358530   -0.0153198173