15

 C    0.0471993372    1.4770985006    0.0217672481
 C    0.0254070274    0.0224335544   -0.0043141858
 C   -0.0150786945   -1.1852239343   -0.0298189814
 C   -0.0106691666   -2.5952570506   -0.0504888093
 C    1.1141426620   -3.3916791866    0.1365360043
 O    2.3980237999   -3.0788850308    0.3684826691
 N    0.7205817147   -4.6746838724    0.0474936493
 N   -0.6175179999   -4.7959327014   -0.1911590732
 C   -1.0508058637   -3.5484490980   -0.2489691608
 H    0.7034556396    1.8868429491   -0.7547829134
 H   -0.9562560045    1.8822922387   -0.1496754270
 H    0.3948737282    1.8601734098    0.9881896660
 H    2.4572097254   -2.1144337870    0.3937267676
 H    1.2941286898   -5.4959604231    0.1363891620
 H   -2.0958356650   -3.3459706583   -0.4307861255