15

 O    0.1905445301    1.4293944712   -0.2135941382
 C    0.0292172863    0.0280155079   -0.0530230605
 C    0.6135709063   -0.5472452669    1.2512305067
 C   -0.2847447246   -1.2964383478    1.9159343723
 C   -1.5439936357   -1.2804281205    1.1567463372
 C   -1.3789714609   -0.4942608913    0.0488825642
 N   -2.5690765676   -0.5532733340   -0.6227705243
 C   -3.3934439684   -1.3588741417    0.1315699511
 N   -2.8000363585   -1.8227716404    1.2159820751
 H   -0.1840835061    1.8472667408    0.5703531345
 H    0.5527535819   -0.4160293163   -0.9102998927
 H    1.6333958340   -0.3351749714    1.5436322342
 H   -0.1217807701   -1.8206709014    2.8486536335
 H   -2.8218498600   -0.0758323547   -1.4720405856
 H   -4.4136076965   -1.5560751436   -0.1623175974