14

 C    0.0169901695    1.5155314958    0.0675802264
 C    0.0288687792    0.0646729757    0.0259068763
 C    0.0389169396   -1.1450489528   -0.0093955797
 C    0.0494216038   -2.5040177556   -0.0496436309
 C    0.0671949251   -3.7141013525   -0.0842344825
 C    0.0304528615   -5.1639950337   -0.1373344623
 C   -1.3970774580   -5.7132597889   -0.2562771021
 O   -1.6801882239   -6.6794058105   -0.9088432105
 H    1.0312276984    1.9159196874    0.1762171923
 H   -0.4109827967    1.9349527177   -0.8498451913
 H   -0.5780598472    1.8820663596    0.9116295899
 H    0.6203209570   -5.5671793873   -0.9675525605
 H    0.4520722637   -5.5881282471    0.7878656754
 H   -2.1547293621   -5.1496506177    0.3290575594