13

 C   -0.4067352767    1.5125521750    0.0164951936
 C    0.0873288518    0.0840895324   -0.0070154727
 C    0.8889183077   -0.4006120815   -1.2363948274
 C    2.0223043984   -0.5479826496   -0.2440111555
 N    3.2125825339   -0.9358488894   -0.3111987549
 O    1.2840351028   -0.0993900632    0.8314857782
 H    0.3772874807    2.2012400148   -0.3129537991
 H   -1.2695472940    1.6233282768   -0.6488887805
 H   -0.7152567066    1.7977678326    1.0265474059
 H   -0.6879072901   -0.6139724751    0.3235444076
 H    0.5577321102   -1.3323995491   -1.6970749928
 H    1.0571985891    0.3500236390   -2.0113134178
 H    3.6659315028   -0.8945017328    0.6032889454