21

 C   -0.0350875999    1.5638445959    0.0300526545
 C    0.0532198158    0.0314388439    0.0184067202
 C    0.9736698118   -0.4426453956    1.0890513471
 N    1.6382395217   -0.8488991545    1.9441242617
 N   -1.2616147216   -0.5688806493    0.1107610025
 C   -2.0543684263   -0.4755223277    1.3584405047
 C   -2.6077320197   -1.8982377405    1.0692426522
 C   -3.9845208353   -1.9293374244    0.4179622544
 C   -1.4148168976   -2.0395997349    0.0845803014
 H    0.9546883305    2.0114775962   -0.0874590724
 H   -0.6798886795    1.8882505933   -0.7896712618
 H   -0.4601529783    1.9191346968    0.9727061287
 H    0.4912250267   -0.2907487986   -0.9349019793
 H   -1.4365032109   -0.4431567267    2.2678928784
 H   -2.7730304354    0.3508938528    1.3797281430
 H   -2.5689517819   -2.5773468958    1.9229254972
 H   -4.0249275724   -1.2485217805   -0.4387408737
 H   -4.2295893780   -2.9358411355    0.0622141366
 H   -4.7628145799   -1.6275839483    1.1270929125
 H   -1.6208135060   -2.4534438751   -0.9092034607
 H   -0.5651539738   -2.5762167016    0.5317609427