16

 O    0.1443326203    1.4241146674    0.1144823766
 C    0.0369229461    0.0437781344    0.0893880988
 C   -0.4941888433   -0.7595801830    1.2305402995
 C   -1.3095043989   -0.6750459166   -0.0651396670
 C   -2.5504964826    0.0952372612   -0.1012286247
 C   -3.7068302965   -0.0204704402   -0.8147711846
 C   -4.4847582574    1.0832383740   -0.3791046694
 N   -3.8720935050    1.8145137309    0.5166797053
 O   -2.6326913373    1.1830570307    0.7001869126
 H   -0.6398805058    1.7937853262    0.5398870860
 H    0.8558550206   -0.3773321498   -0.4845582959
 H   -0.0356881741   -1.7119423981    1.4731859974
 H   -0.8936509102   -0.2152767942    2.0798319144
 H   -1.3288156689   -1.5513043588   -0.7029743527
 H   -3.9621508118   -0.7756034541   -1.5385400265
 H   -5.4798198951    1.3704003598   -0.6898010398