12

 O    0.0294036616   -0.0760943813    0.0027392349
 C    0.0469513712    1.1223249566    0.0089102715
 O   -1.1855099562    1.7891531220    0.0280148639
 N   -1.3434043904    3.1529904692    0.0367771359
 C   -0.2619063031    3.8793707700    0.0263034042
 C    1.0728392551    3.3197604167    0.0061879216
 C    1.2187799774    1.9850127301   -0.0023080957
 C   -0.4414127809    5.2931509054    0.0357086331
 C   -0.5352390740    6.4918125152    0.0429762341
 H    1.9192606859    3.9968488101   -0.0015316652
 H    2.1822097996    1.4905330084   -0.0173967784
 H   -0.6382630163    7.5494012177    0.0498189601