16

 C   -0.3373964958    1.4004653731    0.1015429166
 C   -0.0954593166   -0.0281857988   -0.0127230296
 C    0.1257810399   -1.2093526916   -0.0988527201
 C    0.3535664494   -2.6227125328   -0.2191490182
 N   -0.7288630575   -3.3370218795   -0.6970351248
 N    1.4880338618   -3.0957646460    0.1627953187
 C    1.6816572358   -4.5368657582    0.1213470789
 C    1.5857606082   -5.1356436752   -1.2230076008
 N    1.4594000110   -5.5714408893   -2.2871427974
 H    0.5141551665    1.9065350944    0.5678757645
 H   -0.5004078436    1.8526796222   -0.8827357586
 H   -1.2244521818    1.6016800636    0.7118835889
 H   -1.4644183680   -2.7897157536   -1.1156664495
 H   -0.5446111822   -4.2082789897   -1.1741030596
 H    2.6761718675   -4.7631906839    0.5178556810
 H    0.9545600153   -5.0635190547    0.7606820301