18

 O   -0.1027632921    0.0014439258    0.0086755800
 C   -0.0100662320    1.2089731713   -0.0101006087
 C    1.2585639275    1.9392901317    0.0443373736
 C    1.3574653185    3.2764930405   -0.0075423833
 C    2.7845195013    3.7450923594    0.0396026327
 C    3.5652952816    2.4549541176    0.3470260437
 C    5.0319065677    2.3663507330    0.1673851267
 N    4.4473921103    2.3830707973    1.5226920913
 C    2.6096146946    1.2719850760    0.1385490632
 H   -0.9140462935    1.8561150875   -0.0731321634
 H    0.5140844888    3.9541921665   -0.0942181722
 H    3.0779439650    4.1908884509   -0.9218107990
 H    2.9462533883    4.5233363534    0.7974867100
 H    5.4896336403    1.4234299329   -0.1210538658
 H    5.5601305764    3.2489763078   -0.1867167393
 H    4.5617581825    3.3067532894    1.9346023330
 H    2.6743570844    0.5601016228    0.9662281416
 H    2.8312211704    0.7133488663   -0.7794411741