18

 O   -0.0362325880    1.4661172636    0.0062894130
 C   -0.0098516512    0.0661961890    0.0313280917
 C    0.3386570465   -0.6752445535    1.3494255189
 C   -0.8173086070   -1.6670036834    1.0380139052
 C   -1.7828866208   -2.0405262800    2.1436133849
 O   -2.4645517127   -0.8955442772    2.6770620831
 C   -2.8337835185    0.0472922028    1.7725901617
 N   -2.4486589439    0.2207517654    0.5817441045
 C   -1.4096206502   -0.6280642524    0.0352981844
 H    0.8729117676    1.7819661313   -0.0015062570
 H    0.5835215473   -0.3418912683   -0.8010061690
 H    1.3451688634   -1.0863450980    1.4571630325
 H    0.1067457606   -0.0491364748    2.2155797377
 H   -0.4616512640   -2.5737802048    0.5406798606
 H   -2.5405526271   -2.7373378053    1.7597600101
 H   -1.2834279567   -2.5098605502    2.9958047394
 H   -3.5642359176    0.7189235158    2.2211038558
 H   -1.7415884578   -0.9994562901   -0.9380397775