22

 C   -0.7957658908    0.9627041007    0.6548039046
 C    0.2746883533   -0.0072771002    0.1490249968
 C    0.8259703437   -0.9075876191    1.2534746392
 N    1.8789960237   -1.7836516361    0.7347042951
 C    2.4325607501   -2.6845377337    1.7217410790
 C    1.5079591583   -3.8340192757    2.1248465858
 O    0.5168043304   -4.1626045024    1.5210656273
 O    1.9629633290   -4.4637243500    3.2239246682
 C    1.1945293497   -5.5980773974    3.6485479665
 H   -0.3951612237    1.6279306713    1.4279234954
 H   -1.1775178275    1.5896946770   -0.1565002496
 H   -1.6464514519    0.4259506780    1.0888723680
 H   -0.1478622054   -0.6361571876   -0.6464203753
 H    1.1073911448    0.5441306131   -0.3025817072
 H    1.2702630976   -0.2857893450    2.0431144941
 H   -0.0043663737   -1.4675189586    1.7178291074
 H    1.4906034233   -2.3411293866   -0.0213025620
 H    3.3542770459   -3.1428097952    1.3379376569
 H    2.7225417983   -2.1302615471    2.6204118388
 H    1.6986706979   -5.9844860423    4.5342824530
 H    0.1709386641   -5.3005893134    3.8896028364
 H    1.1630183231   -6.3578822399    2.8635397016