13

 N   -0.0454208989    1.2791214989    0.2901451125
 C   -0.0003181489    0.0076373188   -0.1894148448
 O    0.6785789701   -0.4022709154   -1.0898749756
 O   -0.9254677227   -0.7558289803    0.5068779258
 C   -0.9320949547   -2.0909049960    0.2386517630
 C   -1.8099258273   -2.7829484097   -0.5241328618
 O   -1.4676811940   -4.1033307018   -0.4255130974
 C   -0.3950241420   -4.1149676206    0.3958458505
 N   -0.0305973708   -2.9520896222    0.8275233897
 H    0.6842378260    1.8998615170   -0.0139985325
 H   -0.4866252806    1.4544193933    1.1765403248
 H   -2.6505464952   -2.5301640212   -1.1440308868
 H    0.0427348591   -5.0766105807    0.6108378726