13

 O    0.2559827149    1.5166763748    0.0148780744
 C    0.0890601219    0.1268405124    0.0331463546
 C    0.6785036330   -0.4839949625   -1.2309205932
 O    1.1001945249    0.2146386287   -2.1168410273
 C    0.8103397315   -0.4399337196    1.2813394430
 O    2.1399317507    0.0091033265    1.3101556508
 C    0.0727281780   -0.0770872401    2.5115571224
 N   -0.5025976777    0.2009105605    3.4736750674
 H    0.5891710852    1.7283605307   -0.8737984723
 H   -0.9765036124   -0.1570344136    0.0741526614
 H    0.6788112700   -1.5897975159   -1.2981729152
 H    0.8376869006   -1.5345871605    1.2224258111
 H    2.0955812894    0.9626981486    1.1446479130