25

 C   -0.1030745779    1.5482800703   -0.0220697578
 C    0.0519876876    0.0238111930   -0.0109952516
 C    0.6785998710   -0.5001712347   -1.3109665669
 C    0.6290482534   -2.0323022394   -1.3680283573
 C    0.9337219824   -2.6696284449   -0.0392810105
 C    1.0227323293   -2.0171050593    1.1233071918
 C    1.3008375232   -2.7448560487    2.4138111788
 C    0.8294087501   -0.5106401929    1.2188744125
 C    2.1745758550    0.2058910005    1.4666455576
 H    0.8507857858    2.0539007393   -0.2052821833
 H   -0.7934547976    1.8577984527   -0.8139671231
 H   -0.5003818129    1.9197154105    0.9293570039
 H   -0.9567192473   -0.4087818891    0.0579694067
 H    0.1612084650   -0.0730559519   -2.1776822138
 H    1.7196064725   -0.1596504678   -1.3769866267
 H   -0.3679014850   -2.3613283478   -1.6999102240
 H    1.3228990362   -2.4094072938   -2.1309551127
 H    1.0650595331   -3.7507704909   -0.0451559141
 H    1.4223391164   -3.8190795396    2.2499217205
 H    2.2097895389   -2.3775395647    2.9057799834
 H    0.4819195438   -2.6014128805    3.1312218288
 H    0.2057477964   -0.3173760033    2.1049460804
 H    2.8449342399    0.1090980540    0.6069323364
 H    2.0301380391    1.2709756349    1.6684825698
 H    2.6908598618   -0.2207699258    2.3312985512