19

 C   -0.0088767692    1.4932669900   -0.0246731950
 C   -0.0112584560    0.0375927080   -0.0103243500
 C   -0.0167368541   -1.1678991880    0.0020985501
 C    0.0011070275   -2.6004977592    0.0238014588
 C   -0.4733025630   -3.3975012840   -1.1932286830
 C   -1.2667256633   -3.4732406567    0.0768110062
 C   -0.9914238938   -4.6262210319    1.0394693034
 C    0.4690192104   -4.4498798201    1.4010604752
 C    0.9896856812   -3.3400875768    0.8765807193
 H    0.7500366722    1.8932413772    0.6572277378
 H    0.2069305934    1.8869316935   -1.0245550795
 H   -0.9775482957    1.8991007914    0.2888994579
 H   -0.9039462668   -2.8265248000   -2.0083958697
 H    0.1337070033   -4.2460433529   -1.4924779266
 H   -2.2372508636   -2.9931701626    0.0923666391
 H   -1.6319936990   -4.5690079691    1.9296294430
 H   -1.1884971302   -5.6036588624    0.5799137608
 H    1.0106734349   -5.1699739577    2.0037567853
 H    2.0062780718   -2.9877828988    1.0033227069