16

 N   -0.2380724419    1.1792464367    0.1474404109
 C   -0.1436461215   -0.1515851380   -0.1450669921
 O    0.5954353212   -0.6454200802   -0.9596555786
 O   -0.9815036847   -0.8568511501    0.6725738173
 C   -1.0191441631   -2.2404953303    0.4231910062
 C   -2.2680308642   -2.9972408685    0.7606382138
 C   -3.4779556306   -2.1765746549    0.3230313639
 O   -2.9350997866   -1.9870735750   -1.0110080723
 C   -1.8205949503   -2.8129929383   -0.6950270161
 H    0.1794775561    1.8043571020   -0.5205484326
 H   -1.0458349090    1.5043665108    0.6512463258
 H   -0.0868490624   -2.7568875565    0.6315241979
 H   -2.2866669467   -3.8568606952    1.4168231453
 H   -4.4013683691   -2.7626466865    0.2758700841
 H   -3.6561496608   -1.2282781164    0.8398770585
 H   -1.4429238164   -3.4792419796   -1.4617405218