19

 C   -0.0661434540    1.5411714300    0.0215161781
 C    0.0434165905    0.0352789762    0.0086085367
 C   -0.7799661224   -0.8177109309    0.9548244017
 C    0.7266078694   -0.7723688504    1.0986715110
 C    1.5134937329   -1.8584124550    0.4078042424
 C    2.7734735003   -2.4177366039    0.9230599287
 O    1.5669524884   -3.1765444928    0.9837805177
 C    1.1957566562   -1.7286859196   -1.0464520911
 C    0.4060069977   -0.6749709347   -1.2645993263
 H    0.8616370870    2.0123462064   -0.3217362010
 H   -0.8757531036    1.8831336022   -0.6340309201
 H   -0.2793022933    1.9120098519    1.0287119185
 H   -1.3500840220   -0.3016398023    1.7213562320
 H   -1.2399926767   -1.7238232735    0.5760479293
 H    1.1472378830   -0.2926735707    1.9746663921
 H    3.5294718966   -2.7856589203    0.2292587301
 H    3.1578713525   -2.0683675063    1.8819783836
 H    1.5462745128   -2.4441075762   -1.7802068264
 H    0.0254973246   -0.3583508803   -2.2299303171