21

 C   -0.0259760974    1.5101227159   -0.1812711306
 C    1.3774750625    2.0594513357   -0.0165109669
 C    1.9235160434    2.4941872804    1.1207989563
 C    1.2513632903    2.5272813436    2.4793191981
 C    1.5201209547    1.2528158658    3.2550037047
 C    0.7583694278    0.1572336782    3.2559507257
 C   -0.5302784979   -0.0356100597    2.4813856362
 C   -0.2647961624   -0.6575806067    1.1245648786
 C   -0.0485356664    0.0035155289   -0.0141640825
 H   -0.7033137792    1.9806152874    0.5364611589
 H   -0.4015655913    1.7693371606   -1.1776976931
 H    1.9982297679    2.0402972772   -0.9103040440
 H    2.9650002484    2.8097087176    1.1028123929
 H    1.6286283213    3.3843117791    3.0487689849
 H    0.1750781816    2.6816643816    2.3652234336
 H    2.4526390825    1.2307751435    3.8157733879
 H    1.1043739442   -0.7085426298    3.8174372449
 H   -1.2027062375   -0.6854580368    3.0529214862
 H   -1.0484122929    0.9198127775    2.3645386031
 H   -0.1954703099   -1.7436364841    1.1097827999
 H    0.1866412704   -0.5732721960   -0.9066544648