17

 O    0.0713494409    1.3545501260    0.0569915896
 C    0.0052829182   -0.0358394887   -0.0133021613
 C   -1.3501101388   -0.6567818618    0.0578862735
 C   -2.5900028752    0.2359603864    0.0728091204
 O   -3.1549603608    0.4209717669   -1.2153574066
 C   -2.2483496922    1.0166410857   -2.1217818323
 C   -1.0316060540    0.1314819200   -2.3909100815
 O   -0.4823013366    0.1172323538   -3.4702235902
 C   -0.5713930352   -0.7198013553   -1.2541806690
 H    0.8200341856    1.6507534784   -0.4722561479
 H    0.8271318128   -0.5591602836    0.4733021267
 H   -1.4274809981   -1.5847021973    0.6140898771
 H   -3.3721879303   -0.2357433665    0.6715441193
 H   -2.3494583042    1.2096962704    0.5223687398
 H   -2.7757974498    1.1700650546   -3.0657824105
 H   -1.8958616811    1.9945472972   -1.7524457949
 H   -0.0980667112   -1.6467438862   -1.5585497722