18

 C   -0.0049157452    1.3099612360   -0.2698456477
 O   -0.0677749971    0.0023387645    0.2496517213
 C   -1.2806869498   -0.6474632740   -0.0448145632
 C   -1.2049131162   -2.0619857392    0.5259922225
 C   -2.4986677982   -2.8069065179    0.3332007671
 O   -2.8034987378   -3.2724597689   -0.9850691977
 C   -2.5715148565   -4.2529473708    0.0259600922
 C   -1.3746188568   -5.0564921408   -0.1056674335
 N   -0.4319970336   -5.7196775883   -0.1919283365
 H    0.9668715875    1.7245157198    0.0077813692
 H   -0.0956479022    1.3177021391   -1.3672950280
 H   -0.7978774370    1.9527274150    0.1445094820
 H   -2.1326121979   -0.0985153613    0.3954877969
 H   -1.4510764940   -0.6902776287   -1.1331115443
 H   -0.3814671632   -2.6019163454    0.0505071088
 H   -0.9836712549   -2.0010466139    1.5980284882
 H   -3.3656566122   -2.3986272877    0.8564105109
 H   -3.4500821649   -4.8160670476    0.3359326818