18

 C   -0.0967275776    1.4704273660   -0.0021525421
 C   -0.1998861692   -0.0452550443   -0.1865402426
 C    0.8588986832   -0.5929944227   -1.1538811310
 N    0.8090403589   -2.0479894021   -1.2399151099
 C    0.1882713649   -2.5834184542   -2.1937971220
 N    0.0369094996   -3.9486857025   -2.4192510550
 C   -0.6764134070   -4.1020012275   -3.5683394606
 N   -1.0186525160   -2.9853682939   -4.1108209635
 O   -0.4808013914   -1.9876416835   -3.2416267770
 H    0.8820949816    1.7560892273    0.3994483287
 H   -0.2293549931    1.9968271339   -0.9539218813
 H   -0.8596979387    1.8391581613    0.6902153958
 H   -0.0886138784   -0.5541374543    0.7780447110
 H   -1.1946921992   -0.3096929034   -0.5655515783
 H    0.7390037880   -0.1125267935   -2.1352483574
 H    1.8537865238   -0.3195620388   -0.7813104896
 H    0.4354780739   -4.6576756852   -1.8304314151
 H   -0.9368832134   -5.0608906028   -3.9906401001