19

 C    0.1614207704    1.5270338216   -0.2129419679
 C   -0.1190181153    0.1082745133   -0.6740714345
 O    1.0848047808   -0.6540273789   -0.5244460569
 C    0.9854719451   -1.9514610062   -0.9546055178
 C    0.7840391051   -3.0716455693   -0.1781336312
 N    0.8048316136   -4.1522324552   -1.0175320961
 C    1.0201507987   -3.7419827126   -2.3194220671
 C    1.1354544922   -2.3692355700   -2.3117071488
 N    1.2999504888   -1.4779688499   -3.3902700376
 H    0.4892998225    1.5350686385    0.8305936548
 H    0.9481288334    1.9833025007   -0.8211282023
 H   -0.7413153859    2.1394085500   -0.2989497373
 H   -0.9170703256   -0.3513642390   -0.0733662370
 H   -0.4421841918    0.0892884581   -1.7238571835
 H    0.6492787377   -3.1723506141    0.8857822200
 H    0.7075973944   -5.1075365315   -0.7280522040
 H    1.0694732889   -4.4515573071   -3.1289734696
 H    1.7782037882   -1.9024966976   -4.1751327045
 H    1.8229710386   -0.6613302509   -3.0941867086