21

 O    0.2713155184    1.2137334774   -0.4810651469
 C    0.0931989417   -0.0336562274    0.1486832765
 C   -0.2132127319   -0.0863633734    1.6694589269
 C   -1.3051075440   -1.1478262369    1.3599897963
 C   -1.2783423722   -0.7058556559   -0.1363922930
 C   -2.3844405770    0.2740214885   -0.5326121433
 C   -3.7434889662   -0.4225934480   -0.7251807571
 C   -4.8028094226    0.5437906526   -1.2010210513
 O   -5.8553762211    0.7462590880   -0.6523496889
 H    1.1271078607    1.5678435203   -0.2200167956
 H    0.9128567349   -0.7222567343   -0.1041578177
 H    0.5985585644   -0.3658935121    2.3455725651
 H   -0.6456497274    0.8596799686    2.0061844650
 H   -0.9451092145   -2.1701219842    1.4988121370
 H   -2.2571190260   -1.0439864161    1.8857813966
 H   -1.2434633167   -1.5201154494   -0.8679640638
 H   -2.4817196408    1.0605397286    0.2249677604
 H   -2.0942944824    0.7824035489   -1.4591450086
 H   -3.6388293687   -1.2022548338   -1.4946650823
 H   -4.0960820904   -0.8996898579    0.1937533072
 H   -4.5316078179    1.0914519663   -2.1353110227