21

 C   -0.0154027433    1.4918845347    0.0703891180
 C   -0.0143377597   -0.0175443068    0.0096328465
 C    0.3622748342   -0.8284318997   -1.2726405419
 C   -0.3866746176   -1.9812975494   -0.5473497198
 C    0.5164195677   -2.2428351376    0.6706906305
 C    0.8117927017   -0.7627000387    1.0798409726
 O    2.1748774482   -0.3783517429    0.9510339390
 C   -1.3183069554   -0.8558589180   -0.0034431205
 O   -1.9655676467   -0.9944985345    1.2406946497
 H    1.0080332012    1.8772609910    0.0433147487
 H   -0.5689755661    1.9259167737   -0.7688622162
 H   -0.4821903015    1.8418177451    0.9982594045
 H   -0.1589013655   -0.4676274159   -2.1628877898
 H    1.4250489759   -0.9621405785   -1.4769388951
 H   -0.7780495266   -2.8451979929   -1.0865633740
 H    0.0036909019   -2.7989516228    1.4593029353
 H    1.4397827825   -2.7648227823    0.4036762980
 H    0.4444992492   -0.5364753329    2.0878813129
 H    2.6730374984   -0.8133232022    1.6491406887
 H   -2.0095243650   -0.4924762237   -0.7755089593
 H   -2.7504711136   -1.5371705358    1.1186983221