22

 C   -0.1882774580    1.5451484661    0.0558335836
 C    0.0002640718    0.0298886938   -0.0745322399
 C    0.6823371534   -0.5878488483    1.1393870224
 C   -0.1042063476   -0.6685576144    2.4984818898
 O   -1.5120369320   -0.5923982832    2.3889627136
 C    0.4631629521   -2.1015967107    2.7164846115
 C    0.8778391757   -2.1125885421    1.2418134196
 C    0.5537981449   -3.1235571836    0.2072466283
 N    1.9415961394   -2.9334270217    0.6812284262
 H    0.7716134573    2.0541824163    0.1980414920
 H   -0.6583933785    1.9642958480   -0.8390838982
 H   -0.8264545971    1.7784690487    0.9128878063
 H   -0.9768251486   -0.4439656325   -0.2262937896
 H    0.5917071648   -0.1955070555   -0.9725800130
 H    1.6437078349   -0.0866938221    1.3179050622
 H    0.1678323955    0.0786914673    3.2460033746
 H   -1.8143575831   -1.3214427916    1.8369432824
 H    1.3259114086   -2.1239333311    3.3884997655
 H   -0.2628884818   -2.8489819618    3.0496475667
 H    0.1030946205   -4.0715841723    0.4915625699
 H    0.2911331926   -2.7794479329   -0.7901729304
 H    2.4712353154   -2.4008124464   -0.0060740033