20

 C    0.0021888686    1.4667454496   -0.0363506812
 N    1.2486644000    0.7318067986    0.1214462587
 C   -0.0360626539   -0.0398930768    0.0180801517
 C   -0.3926838625   -0.6593765533    1.3193062180
 C   -0.8837842968   -1.8673278627    1.5953512014
 C   -1.2573546767   -2.9800241644    0.6512766371
 C   -1.9409181878   -2.5476206706   -0.6555912571
 C   -1.0936689047   -1.7218208744   -1.5872692934
 C   -0.3058180439   -0.6881847440   -1.2882308570
 H   -0.3147997009    2.0333749123    0.8356342968
 H   -0.2260753888    1.9378317248   -0.9892661988
 H    1.7434655390    0.6761494153   -0.7661356441
 H   -0.1558562950   -0.0111005048    2.1599150100
 H   -1.0167175621   -2.1006916537    2.6499999406
 H   -0.3613132426   -3.5674064450    0.4057555792
 H   -1.9274758663   -3.6699617494    1.1773794533
 H   -2.2692395537   -3.4474865274   -1.1875502565
 H   -2.8581976087   -1.9956042754   -0.4071909951
 H   -1.1601003231   -1.9899975046   -2.6394400721
 H    0.2006267800   -0.1953116743   -2.1187522717