17

 O    0.0301058555   -0.1195464508    0.1225632980
 C   -0.0368117559    1.0917780027    0.1274117210
 C   -1.3770033160    1.7923309528    0.2506113309
 C   -1.4212168953    3.1691372393    0.9107168486
 C   -0.7046637670    4.2469825081    0.1031196795
 N    0.7436697541    4.1798072348    0.1995310668
 C    1.6078165876    3.1416661611    0.0017956412
 O    2.8059870185    3.3263516463   -0.1096770059
 N    1.1402226364    1.8153054049   -0.0432683410
 H   -1.7789341156    1.8677491558   -0.7695959671
 H   -2.0193019840    1.0830228710    0.7770713499
 H   -2.4721852084    3.4611938447    1.0092587482
 H   -1.0035997312    3.1339471617    1.9230638022
 H   -1.0418933291    4.2041547800   -0.9447653553
 H   -0.9860902104    5.2329561897    0.4834408255
 H    1.2428785128    5.0542469431    0.1458948828
 H    1.9310595581    1.1927534249   -0.1585602955