17

 C    0.0851425310    1.4772648312   -0.1773433153
 O    1.5160033204    1.4521951732    0.1210279604
 C    1.3074879600    0.2419374997    0.9099867610
 C    1.9029512807   -1.1364500902    0.7615364201
 C    0.6153688543   -2.0268434412    0.8998737427
 C   -0.6534563128   -1.1312729958    0.9620746295
 C    0.0112366526   -0.0197553418    0.1473381175
 O    0.4493305342   -0.7138882415   -1.0391674404
 C    1.2301739437   -1.7246396223   -0.4448934034
 H   -0.4599265988    2.1282665546    0.5166479148
 H   -0.1157671153    1.7543836749   -1.2139945771
 H    1.1739161823    0.5170802815    1.9633424666
 H    2.8566061774   -1.4706646355    1.1458262826
 H    0.6604082274   -3.0036775428    1.3615037191
 H   -1.5053594524   -1.6126141282    0.4757294780
 H   -0.9251471635   -0.8213515114    1.9729541519
 H    1.6608661690   -2.4402578844   -1.1308200481