15

 C    0.0968761982    1.3882326577    0.0513016628
 O    0.1931133731   -0.0161679730    0.0902982896
 C    0.5804352583   -0.5693134045   -1.1480676968
 C    0.5759541921   -2.0581073168   -1.0161044595
 N    1.3324170447   -2.8437656520   -1.7847304273
 N    1.0138205457   -4.0648829174   -1.3726558747
 N    0.1239710016   -4.1505179783   -0.3948468723
 C   -0.1747741567   -2.8739930984   -0.1504022495
 H    1.0621385465    1.8564358454   -0.1973202783
 H   -0.6482457325    1.7260193025   -0.6864036948
 H   -0.2118315618    1.7207632475    1.0448951083
 H   -0.1190732207   -0.2516978056   -1.9417367357
 H    1.5816699548   -0.2235458294   -1.4502432985
 H    1.4406375741   -4.8841996457   -1.7732978157
 H   -0.8798732172   -2.5960086819    0.6144672127