21

 C    0.5698617941    1.0581791863   -0.2517694184
 C    0.0074086488   -0.2726176487    0.2179907201
 O   -1.3060734933   -0.4115095895   -0.2941115137
 C   -1.9209258531   -1.6214161016    0.0464206963
 C   -2.5012574301   -1.7940262903    1.4801203144
 C   -3.7835510972   -2.4253088363    0.8331291643
 C   -3.3379937786   -1.7896080599   -0.5296575892
 C   -3.8013706388   -3.8761581124    0.8395687625
 C   -3.8045685700   -5.0791980896    0.8409472445
 H    1.5880148104    1.1966072602    0.1240475122
 H    0.5929558766    1.0998934262   -1.3444158193
 H   -0.0488405202    1.8849035796    0.1087755631
 H    0.6381704055   -1.1066623721   -0.1331821840
 H   -0.0032364175   -0.3189020546    1.3190817004
 H   -1.2738047051   -2.4723267737   -0.2156406970
 H   -1.9558943017   -2.4070032453    2.1987333457
 H   -2.7300789721   -0.8185511318    1.9177285130
 H   -4.7289634191   -2.0438432823    1.2273571155
 H   -3.8020853827   -0.8104442059   -0.6704050008
 H   -3.4613508062   -2.3911899199   -1.4306214732
 H   -3.8167594498   -6.1407687283    0.8453757835