21

 C   -0.1562345081    1.5467188904   -0.1266794003
 C   -0.0000872352    0.0244000922   -0.0377956939
 C    0.9634682822   -0.5054304482   -1.1530399457
 C    2.3027348643   -0.6120159484   -0.4486020796
 C    2.1347753292   -0.6085016475    0.8693344812
 C    2.9672669220   -0.5174025406    2.1113191893
 O    2.0502139419   -0.1214852809    3.1413078479
 C    0.8413265176    0.3673581753    2.5450715616
 C    0.6838828373   -0.4693690080    1.2674917379
 H    0.8129477648    2.0520942833   -0.0565333778
 H   -0.6066560041    1.8253582365   -1.0849194785
 H   -0.7995664571    1.9375715365    0.6681973781
 H   -0.9907228296   -0.4287028421   -0.1432928236
 H    0.6345926760   -1.4825117953   -1.5350280754
 H    0.9941790509    0.1665013469   -2.0195402251
 H    3.2467828134   -0.6724996040   -0.9788727992
 H    3.4171476646   -1.4719981631    2.4129711113
 H    3.7800294984    0.2172767198    2.0093918041
 H    0.0454420033    0.2328945688    3.2824831456
 H    0.9297557663    1.4396229545    2.3167748788
 H    0.2782749818   -1.4503985763    1.5551891934