15

 C    0.1434314647    0.9487793623    0.3648560356
 O   -0.2429660744    0.0268262159   -0.6401309162
 C   -1.4125203043   -0.6511191412   -0.3357814508
 C   -1.5456902830   -2.1005427783   -0.7045636616
 C   -0.2288525612   -2.8049858501   -0.3856813945
 O   -0.2274480318   -2.2966114287    0.9768636454
 C   -1.4905350198   -1.6740270014    0.7622674594
 H    1.0676785897    1.4209351773    0.0240223440
 H   -0.6186595406    1.7281599865    0.5142006841
 H    0.3259088102    0.4391527358    1.3189976762
 H   -2.3321060759   -0.0734730836   -0.4628837524
 H   -2.3462812492   -2.4954667605   -1.3152679695
 H   -0.3101066095   -3.8968020871   -0.3808584839
 H    0.6535602475   -2.4866295493   -0.9480781210
 H   -2.2113698623   -1.6925886276    1.5727677952