21

 C    0.0598105896    1.3039545641   -0.5634967889
 C   -0.0038592439   -0.0097253705    0.1810114635
 O    0.8892924866   -0.3956865150    0.9022172096
 C   -1.2789089644   -0.8659151795    0.0142176614
 C   -2.0188180756   -0.8420251592    1.3668979009
 O   -2.0775440664   -0.2636530925   -0.9954845833
 C   -0.8399143735   -2.2896037107   -0.4019360856
 C   -1.9567804846   -3.3248552816   -0.4320157786
 O   -2.9795112845   -2.8664797473   -1.3247009385
 H    0.9820631363    1.8248023458   -0.3042698413
 H    0.0091241440    1.1202874597   -1.6409870003
 H   -0.8136218368    1.9193006271   -0.3268804750
 H   -2.2653270428    0.1892397329    1.6358612625
 H   -2.9585278772   -1.3971895235    1.2979657163
 H   -1.4003311916   -1.2711365693    2.1596125860
 H   -2.7105479768   -0.9386862009   -1.2775756744
 H   -0.3929849361   -2.2234048978   -1.4008438370
 H   -0.0597528680   -2.6294655950    0.2850211521
 H   -1.5534331253   -4.2876692784   -0.7768925427
 H   -2.3676173471   -3.4799397223    0.5749019552
 H   -3.7419053219   -3.4475543061   -1.2529832718