20

 C   -0.3583895797    1.5449135435    0.1239581261
 C   -0.0142032430    0.0636298767    0.0478560961
 C    1.1511770450   -0.3964973743   -0.8723751903
 N    1.7692445961   -1.2111574688    0.2275075547
 C    2.8769463099   -0.4779274870    0.9223489881
 C    1.8783781608    0.1007469956    1.9299840272
 C    2.0369857964    0.4195949958    3.3489585997
 O    1.8459973167    1.4483256598    2.3658707700
 C    0.7488615054   -0.6350774917    1.2043884969
 H    0.5201541984    2.1562633990    0.3417206753
 H   -0.7864179170    1.8825936876   -0.8266444844
 H   -1.0973142636    1.7400916114    0.9083649244
 H   -0.9212384266   -0.5083541240   -0.1714745104
 H    0.8678243246   -1.0059421613   -1.7354480267
 H    1.7961408645    0.4187198587   -1.2238298560
 H    3.6222892245   -1.1581489846    1.3472035535
 H    3.3889980751    0.2647478171    0.3004390034
 H    1.2039818217    0.2713913429    4.0352651622
 H    3.0269842527    0.3877587042    3.8026258539
 H    0.1778163581   -1.3401789007    1.8164575564