19

 C   -0.2733550003    1.5278389765    0.3129615016
 C   -0.0645115760    0.0475470279    0.0941873876
 C    1.1950285695   -0.4849115239   -0.5236523455
 C    0.9055100878   -0.7676117293    0.9433510798
 C    1.7032818442   -0.0726762256    1.9309425911
 N    2.3339216970    0.4342973929    2.7594837332
 N    0.4882737743   -2.1144963021    1.2456786352
 C    1.3965770347   -2.9985418945    1.9748081449
 C    0.1644926724   -2.4707697381    2.6260719448
 H    0.6575491133    2.0297090566    0.5917166974
 H   -0.6471148053    1.9978806522   -0.6026228882
 H   -1.0024902276    1.7116353869    1.1085083850
 H   -0.9602043323   -0.5226822085   -0.1325432127
 H    1.1321939994   -1.3471955600   -1.1764706592
 H    1.9923934416    0.2151481101   -0.7471270748
 H    1.4368561225   -4.0202854763    1.6097172594
 H    2.3442339131   -2.5908912767    2.3187396073
 H    0.3046669609   -1.7173248211    3.3976446632
 H   -0.7124080793   -3.0995847470    2.7466073899