20

 C    0.5472975818    1.4178230108   -0.0725382392
 O    0.6253836721    0.0157341378    0.0106177951
 C   -0.1358138044   -0.5164460279    1.0752544727
 C    0.0746896108   -2.0215492568    1.0683910391
 C    1.2323633166   -2.6982602091    1.7829721165
 C    0.7507746918   -2.9483469358    3.2291974615
 C   -0.6657751608   -2.4084931800    3.2967870659
 N   -0.8870312393   -2.8875034290    1.8718095051
 C    0.3156605437   -3.8384719345    2.1031831323
 H    0.9219431312    1.9041881765    0.8424541198
 H    1.1664289209    1.7309730434   -0.9169004571
 H   -0.4857731936    1.7609160650   -0.2425337194
 H    0.1787254266   -0.0605220666    2.0267138053
 H   -1.2108098546   -0.2998604610    0.9410782437
 H    0.0143297845   -2.3586588161    0.0290776493
 H    2.2833170995   -2.7342388349    1.5253623325
 H    1.4547483296   -3.1669248656    4.0225804617
 H   -1.3023268636   -2.9994585432    3.9606056861
 H   -0.8535053429   -1.3440142818    3.4722630824
 H    0.3232190002   -4.9025425311    1.9176081967