17

 C   -0.0525209948    1.5084884025   -0.0030712766
 C    1.3871670215    1.9841949271    0.0589053530
 C    2.2556169338    0.9700292229    0.0397324365
 C    1.5390945206   -0.3334522828    0.0007378120
 C    2.0615805296   -1.6886156277   -0.4409991938
 N    1.3069851350   -2.6748809084    0.3577982400
 C    0.5899300731   -2.0174149609    1.1790822538
 N    0.6712466702   -0.5961079747    1.2127774872
 C    0.0854064415   -0.0090362324   -0.0309081541
 H   -0.6349515061    1.8492551315    0.8610488969
 H   -0.5668048484    1.8740534249   -0.9011890266
 H    1.6487286602    3.0321784267    0.1469508149
 H    3.3348681155    1.0497000248    0.0856550305
 H    1.9215847655   -1.8890262925   -1.5086531111
 H    3.1345307811   -1.7944835134   -0.2325880348
 H   -0.0625776240   -2.5001055996    1.9022120649
 H   -0.6295519444   -0.6214580979   -0.5708889527