21

 C    0.0077549931    1.5290585156   -0.0018524989
 C    0.0293959999    0.0001734773   -0.0614427811
 C   -1.3599142512   -0.6141901114    0.1243816741
 C   -1.3712597891   -2.1271995700    0.1085757926
 O   -0.3567905213   -2.7948747548    0.1414400952
 C   -2.7168494831   -2.8500203609    0.0725146030
 O   -2.5130134629   -4.2379739951   -0.0505495539
 C   -3.5465775405   -2.5908671037    1.3489303087
 O   -4.6906515219   -3.4090624323    1.3532889216
 H    1.0119825264    1.9410999894   -0.1376752952
 H   -0.6332149435    1.9517358868   -0.7836771005
 H   -0.3700355230    1.8854322971    0.9630501276
 H    0.4411747439   -0.3339443246   -1.0202200580
 H    0.6992305660   -0.4010167409    0.7055914004
 H   -1.7956953208   -0.2937114089    1.0829574417
 H   -2.0628091187   -0.2534530900   -0.6389706827
 H   -3.2951233247   -2.4913141948   -0.7924063097
 H   -1.5535227417   -4.3611998054    0.0486235149
 H   -2.9081318012   -2.7789528177    2.2290909706
 H   -3.8873360017   -1.5511493239    1.3890761006
 H   -4.3727722139   -4.2937787319    1.1291252389