20

 C   -0.2291342333    1.5194090989    0.2292218800
 C   -0.0425066299    0.0010474630    0.1271300575
 C    0.4417976201   -0.5807997407    1.4742776678
 C    0.6267320447   -2.0943717627    1.4406183000
 C    2.0397152120   -2.6276338231    1.5079492227
 O   -0.3349832604   -2.8306645722    1.3504357626
 N   -1.2809078431   -0.6676409693   -0.2705284760
 C   -1.7879193688   -0.5498800065   -1.5244055092
 O   -1.3713031439    0.2048722023   -2.3812562725
 H    0.7158185733    2.0032774280    0.4968246581
 H   -0.5643837579    1.9105314313   -0.7321196143
 H   -0.9751045907    1.7645315774    0.9922983440
 H    0.7163072430   -0.1956467897   -0.6437069200
 H    1.3715115891   -0.0781330818    1.7535035563
 H   -0.3086924680   -0.3566602341    2.2416479218
 H    2.5077211883   -2.3250102432    2.4522235393
 H    2.0401933135   -3.7148681552    1.4263624341
 H    2.6448140040   -2.1903738423    0.7049577594
 H   -1.5626627940   -1.4656886553    0.2845091593
 H   -2.6534705081   -1.2233073849   -1.6843960809