16

 C    0.0165333446    1.4719195648   -0.0888040767
 N   -0.0497974341    0.0203800353   -0.0925860039
 C   -1.2312876870   -0.6207599160    0.1155808588
 O   -2.2863278912   -0.0791689174    0.3564780692
 N   -1.1359864407   -2.0416382098    0.0441176671
 C   -2.2352687977   -2.8774122539   -0.0772101576
 C   -1.7325126841   -4.1438621015   -0.0987284872
 N   -0.3537821119   -4.1280815577    0.0203471317
 C   -0.0304122732   -2.8664634078    0.1037674318
 H    0.9852005082    1.7950787922    0.3006035496
 H   -0.1243074396    1.8946932668   -1.0908075036
 H   -0.7773964307    1.8467344982    0.5569646726
 H    0.7024600942   -0.4872365383   -0.5272213002
 H   -3.2275022177   -2.4660492230   -0.1335364875
 H   -2.2745084341   -5.0723128326   -0.1903905576
 H    0.9683050650   -2.4851584994    0.2533455434