16

 C   -0.2355516711    1.6124373515    0.0501256315
 C   -0.0218001148    0.0979116439    0.0293471926
 C    0.6766456740   -0.4330172494   -1.2544986182
 C    2.1759277914    0.0212918221   -1.3284620144
 O    2.7540399726    0.5172892557   -0.4073183943
 C    0.7378216921   -1.8972216237   -1.2679723347
 C    0.8527115313   -3.0925496445   -1.2490633424
 C    0.0116066036    0.0484600235   -2.4767766873
 N   -0.4804994018    0.4590734061   -3.4382277675
 H    0.7146528963    2.1497243049    0.0110632595
 H   -0.8570096386    1.9416711842   -0.7878256541
 H   -0.7437191432    1.8973426917    0.9754757786
 H    0.6060964328   -0.2124841278    0.8684033735
 H   -0.9769442941   -0.4263105937    0.1218737485
 H    2.6575096034   -0.1978632802   -2.3013458020
 H    0.9308486761   -4.1524154545   -1.2385511993