24

 C   -0.0926338687    1.5790795040    0.1023963651
 C    0.0039308656    0.0781590595   -0.0688215119
 C    0.6341888171   -0.6930101520   -1.1776437135
 N    1.2133176869   -0.7322383630    0.1848151505
 C    2.4931921649    0.0028838351    0.1224971293
 C    2.6456894459    0.6501031591   -1.2773390230
 C    1.6209725118   -0.0918734009   -2.1825578626
 C    2.3171058934   -1.2576609897   -2.9138117115
 C    0.9503845137    0.8280481711   -3.2135386819
 H    0.7165378233    2.1425816040   -0.3601691468
 H   -1.0344193261    1.9370157262   -0.3277536158
 H   -0.1075890869    1.8319667158    1.1690163211
 H   -0.8669829111   -0.4146559582    0.3654557359
 H    0.1327430291   -1.6034370216   -1.5039632240
 H    2.5527888966    0.7361752451    0.9337883619
 H    3.2867479782   -0.7308259909    0.2976506988
 H    2.4377364195    1.7224769295   -1.2514745683
 H    3.6649035841    0.5436093913   -1.6615683635
 H    2.8138553701   -1.9303241827   -2.2069823109
 H    1.5970236219   -1.8505901494   -3.4882734588
 H    3.0727301652   -0.8802661438   -3.6112422770
 H    1.6888573478    1.2338572361   -3.9141515445
 H    0.2073303698    0.2788879914   -3.8026397493
 H    0.4413144877    1.6699172538   -2.7361897192