22

 C   -0.8912491111    1.5799289023   -0.2392628928
 C   -0.3280989641    0.1810539567   -0.4859074849
 N    0.2662792777   -0.3316691425    0.7499371396
 C   -0.4937737303   -1.0759686677    1.7400232983
 C   -1.7450353470   -1.8181611506    1.2976097565
 O   -1.3833823082   -2.5558123320    0.1343373163
 C    0.0145672061   -2.8543243695    0.1913324943
 C    0.5342989579   -3.0873641545   -1.2204496407
 C    0.6333398152   -1.7161848268    0.9954148147
 H   -0.1147661773    2.2468783674    0.1459310910
 H   -1.2901012232    2.0032532976   -1.1664503204
 H   -1.7042650473    1.5521281213    0.4940735882
 H   -1.1052119785   -0.4720451807   -0.9013508707
 H    0.4785365550    0.2372495214   -1.2264487986
 H   -0.4272532574   -0.7405531721    2.7719399185
 H   -2.0777849180   -2.4846246894    2.1102719582
 H   -2.5854195190   -1.1695239617    1.0258463599
 H    0.1726320163   -3.7769978306    0.7799710631
 H    0.4416887501   -2.1896403896   -1.8352277653
 H    1.5884863149   -3.3795701114   -1.1883505299
 H   -0.0290683525   -3.8933381158   -1.6991791849
 H    1.6171697308   -1.8819136518    1.4285838696