19

 O    0.1631773498    1.4099346539    0.2587339646
 C    0.1131657264    0.0162396942    0.0276466826
 C   -1.3181195937   -0.4942827400    0.1171247251
 O   -2.0345532662    0.2242116655   -0.8632514866
 C   -1.5288397507   -2.0600138590    0.2105772599
 C   -1.2752500488   -1.9103939579    1.7431019635
 C   -2.0115326752   -0.5788659199    1.5064837516
 O   -3.3442702870   -0.9929388037    1.1181486590
 C   -3.0584278881   -2.1043323078    0.2148070384
 H   -0.5194574586    1.7847290311   -0.3119708144
 H    0.5007677981   -0.2399462509   -0.9721144953
 H    0.7667654561   -0.4525878730    0.7655193602
 H   -2.9481433894    0.2662497232   -0.5476354871
 H   -0.9976516186   -2.7712894898   -0.4201226032
 H   -1.7726173993   -2.6227335825    2.4038105027
 H   -0.2279156510   -1.8026803569    2.0180846736
 H   -2.0736001543    0.2447567646    2.2144147408
 H   -3.5052536091   -1.9085652052   -0.7646400337
 H   -3.4705151102   -3.0320951159    0.6245671181