20

 C   -0.0964280193    1.5806445431   -0.0949027404
 C    0.0824435876    0.0773007863    0.0385854790
 N    1.1017509434   -0.6289027336   -0.8607142132
 C    2.4178529656    0.0325195121   -0.4949662378
 C    2.2771804693   -0.5882244557    0.8828783015
 O    3.2436126354   -0.8256276161    1.8386402170
 C    1.3392078659   -1.6043187139    0.3140600153
 C    0.7577657926   -0.5650512096    1.2405209467
 C    0.2853104076   -0.7000737802    2.6567849729
 H    0.7733378059    2.1457127382    0.2499371728
 H   -0.2897532079    1.8478783360   -1.1396298469
 H   -0.9573695856    1.9073455336    0.4980077557
 H   -0.8763198233   -0.4166082302   -0.1617929135
 H    3.2173763259   -0.4375059647   -1.0744871144
 H    2.4578396632    1.1181182763   -0.6292657913
 H    3.3194415567   -0.0459063968    2.4005391180
 H    1.3224860632   -2.6835216542    0.2571835891
 H    0.9918971035   -1.2935305465    3.2454343387
 H    0.1900056544    0.2804792971    3.1394846602
 H   -0.6934535741   -1.1896300111    2.7092125106