20

 C    0.3516969991    1.3774516424    0.4039766765
 C   -0.3458847279    0.1952144089   -0.2940454498
 C    0.4228180504   -0.3348856490   -1.4156772044
 C    1.0835379431   -0.7461993906   -2.3341347779
 C    1.8563411831   -1.2803453969   -3.4629440625
 C    2.2285657472   -2.7647019618   -3.2064455840
 C    1.0456156119   -1.1513958774   -4.7796697649
 C    3.1058199305   -0.5010159768   -3.6032842241
 N    4.0888501884    0.0919441461   -3.7343595398
 H    1.3264066900    1.0766064134    0.7966680038
 H    0.5102799729    2.2027051060   -0.2950050636
 H   -0.2597238484    1.7401746305    1.2352416151
 H   -0.5263326677   -0.6073804417    0.4322792290
 H   -1.3354649473    0.5089433993   -0.6498172832
 H    1.3120052419   -3.3512479850   -3.1065870306
 H    2.8152255147   -3.1569145648   -4.0414774960
 H    2.8101985748   -2.8645983845   -2.2881514982
 H    0.7893550200   -0.1085867553   -4.9756800644
 H    1.6275176597   -1.5370879529   -5.6210437072
 H    0.1220734436   -1.7284231897   -4.6891120837