12

 O   -0.2153410996    0.3209007958    0.8270219430
 C    0.3223055883    0.7394427065   -0.1631632466
 C    1.3863833528    1.7955943085   -0.1191251199
 O    2.3141952964    1.7892332886   -1.2018095196
 C    1.4118559586    2.8882962911   -1.1366485884
 C    0.4268933120    3.0084052299   -2.1754756845
 C   -0.3871712247    3.1625885359   -3.0545515854
 C   -1.3104467818    3.3276851705   -4.0465452120
 N   -2.0964664242    3.4691062810   -4.8897731962
 H    0.0846953282    0.3746746511   -1.1840078914
 H    1.7949083180    2.0121421529    0.8666445547
 H    1.8611257859    3.8300108183   -0.8222631938