22

 C    0.0015098045    1.6147501200    0.0263373986
 C    0.0817003028    0.0859576681   -0.0200651524
 C    0.6299136435   -0.5197722728    1.2783640224
 C    0.7544758837   -2.0396615181    1.2554012360
 O   -0.5039316689   -2.6858230022    1.1383003998
 C    1.8397761547   -2.6870724780    0.2973650296
 C    2.4783534601   -3.3297239482    1.5316466085
 N    2.8771884767   -2.2046912138    2.4148137011
 C    1.4816771292   -2.7041440110    2.4362605905
 H    0.9910678841    2.0547660927    0.1908080799
 H   -0.3960629397    2.0240694539   -0.9077370263
 H   -0.6480950259    1.9506326072    0.8419953615
 H   -0.9219051774   -0.3131660213   -0.2241013489
 H    0.7132951991   -0.2203640050   -0.8644540179
 H    1.6205315657   -0.1053002592    1.4925672869
 H   -0.0257616519   -0.2435671915    2.1149279840
 H   -0.8941757144   -2.4256896873    0.2974656107
 H    1.3682710019   -3.4114614216   -0.3698109967
 H    2.4883020954   -2.0114418675   -0.2664632125
 H    2.9748221098   -4.2894888470    1.6017965463
 H    3.3457081083   -2.6078405985    3.2258279296
 H    1.0166031188   -3.0686151689    3.3440173994