17

 C   -0.4426434649    1.2566022404   -0.3083828897
 O    0.7842497900    1.3563170417    0.4180215106
 C    0.2711128692    0.0504328554    0.1305222579
 C   -0.1993073779   -0.7374861208    1.2990476205
 C   -1.4031495413   -1.5934082848    1.2681719966
 N   -1.4446066968   -0.3694284719    2.0913967536
 C   -0.6841337005   -0.7079068391    3.3490881742
 C    0.6222759747   -0.9945675849    2.5649125932
 H   -1.3311826118    1.5574362456    0.2417204234
 H   -0.3941843305    1.5599489930   -1.3532501348
 H    0.8607484572   -0.5022113542   -0.6037345549
 H   -2.0417850072   -1.5333333084    0.3919954248
 H   -1.3955797786   -2.5644938643    1.7607136079
 H   -0.6287959699    0.1683016223    3.9967194468
 H   -1.1243845047   -1.5402046958    3.9078226352
 H    1.0823376163   -1.9818730873    2.6629178177
 H    1.3797705667   -0.2257368369    2.7230842171