15

 O   -0.5535087918    1.1514420241   -0.0285737006
 C   -0.0892045724   -0.1568541713   -0.0913690086
 C    0.9647711551   -0.3040553946   -1.1829106109
 O    1.3884770559    0.6505955252   -1.7819335285
 C    0.5294828420   -0.6438321719    1.2220475957
 N    1.4195665232    0.2862627762    1.9064018653
 C    0.1565581619   -0.0983419663    2.5639641683
 C   -0.8330416514    0.9268669106    2.8036958777
 N   -1.6430125844    1.6944636966    3.1030832788
 H    0.1037043959    1.6976718854   -0.4864008033
 H   -0.9240713078   -0.8342507340   -0.3355120980
 H    1.3359264198   -1.3319051943   -1.3776556058
 H    0.7882943028   -1.7032240543    1.2201353726
 H    2.2021716620   -0.1891990290    2.3468006678
 H    0.2128755992   -0.8101124727    3.3850915097