16

 C   -0.0435035385    1.5360005968   -0.0099156803
 C    1.4462438935    1.9141445024   -0.0264650199
 O    2.1777443656    1.5035647590    1.1280941639
 C    2.2858547547    0.6945740845   -0.0714488116
 C    1.3507980128   -0.4493446467   -0.0631776451
 C    1.3200738639   -1.8201896372   -0.0607555185
 N   -0.0059931173   -2.1812226940    0.0219576971
 C   -0.8161725679   -1.0629410797    0.0756821234
 C    0.0097544660    0.0280161719    0.0157928512
 H   -0.5445945910    1.9737503390    0.8607825802
 H   -0.5429959128    1.9297509082   -0.9039880003
 H    1.7570540627    2.8627901847   -0.4586210530
 H    3.2751354103    0.6641188261   -0.5173719805
 H    2.0965516615   -2.5667494752   -0.1026089123
 H   -0.3404575905   -3.1287023160    0.0281826380
 H   -1.8879615229   -1.1641025138    0.1361282078