19

 C    0.0457306395    1.5571542199   -0.0088022681
 C   -0.1605881737    0.0444805117   -0.0480286287
 N    0.6248702000   -0.5684897924   -1.1081705751
 C    2.1058808756   -0.6855670240   -0.9371825890
 C    1.9991765170   -2.1899708339   -1.2172575649
 O    2.8311851506   -2.8880019495   -2.0704462354
 C    1.0988748909   -2.8451775601   -0.2007209283
 C    0.5056485910   -2.0082363913   -1.3260275398
 H    1.0890758613    1.8085598250    0.2112246751
 H   -0.2111223924    2.0047045518   -0.9731535498
 H   -0.5760392879    2.0133984464    0.7676690693
 H    0.0591331661   -0.3839003248    0.9484540399
 H   -1.2140392977   -0.1802307512   -0.2559209560
 H    2.6531527673   -0.1340929943   -1.7081149490
 H    2.4887111249   -0.4055902632    0.0542315969
 H    3.5207771459   -3.3070542549   -1.5442058036
 H    0.9805870364   -3.9150528701   -0.3443438766
 H    1.0712019747   -2.5141685795    0.8342069357
 H   -0.2093199095   -2.4112020155   -2.0350123025