17

 O   -0.0974750044    1.1057375188    1.2474801488
 C    0.0770277195    1.2911738379    0.0730052170
 C    1.4315276917    1.6289459013   -0.5359619219
 C    1.3069573877    2.7440415132   -1.5746549782
 O    0.4706754754    2.6838979289   -2.4449793341
 C    2.2526034824    3.9272743841   -1.4180781803
 C    2.2207835288    4.8784556711   -2.5877825712
 C    3.3388667956    5.7874030995   -2.8632457047
 O    3.1454287479    4.6063229636   -3.6423991397
 H   -0.7464744562    1.2329356942   -0.6674006871
 H    2.1490947412    1.8469847124    0.2575291486
 H    1.7710691372    0.7358378674   -1.0790819454
 H    1.9673077013    4.4420476387   -0.4876648129
 H    3.2730267768    3.5591757843   -1.2587749859
 H    1.2253320705    5.1556598147   -2.9295819703
 H    3.1553377661    6.7278768851   -3.3804568706
 H    4.2129239186    5.7807931449   -2.2124683022