19

 C   -0.6086362261    0.8039263082    0.1756987328
 O    0.7268888379    0.3113429249    0.1041971334
 C    1.0021865788   -0.3751930523   -1.0505322426
 C    1.6778047746    0.0967368199   -2.1552553079
 N    1.7489011128   -0.9219897888   -3.0682059730
 C    2.5176070152   -0.8961923697   -4.2904472179
 C    1.1369589405   -2.0469800644   -2.5462863662
 C    0.6556942018   -1.7374300200   -1.2923603529
 N   -0.1100696263   -2.5236100924   -0.4091731279
 H   -0.8040154818    1.5295035855   -0.6248860502
 H   -1.3400633167   -0.0103187294    0.0998077943
 H   -0.7120399962    1.2979091987    1.1452487514
 H    2.1204750181    1.0605358266   -2.3468012588
 H    3.5376605148   -1.2762005733   -4.1486350200
 H    2.0236533981   -1.5065693463   -5.0519902363
 H    2.5780215338    0.1297330298   -4.6618162486
 H    1.0958478203   -2.9641156771   -3.1120527816
 H    0.0578480591   -3.5149940611   -0.5275773675
 H    0.0914665513   -2.2728464288    0.5523377495