17

 C   -0.0385277289    1.4372052075   -0.1920462277
 C    1.4054659712    2.0279247651   -0.0220892841
 C    2.2321307104    0.7398702262   -0.0937322710
 C    3.1317532571    0.0682330479    0.9766807703
 C    2.0093517250   -0.0032428047    2.0423323658
 O    2.1477837835   -1.4350402751    2.2778865907
 C    2.3420826609   -1.3113268179    0.8523866462
 C    1.2790419927   -0.1732175428    0.6390455858
 O   -0.0337668372    0.0646029796    0.3083792223
 H   -0.7910067163    2.0017387552    0.3656497507
 H   -0.3351152103    1.4071441672   -1.2466773807
 H    1.6253725358    2.7664878134   -0.7961597928
 H    1.5001908290    2.5190040172    0.9512262110
 H    2.4541267879    0.4432688026   -1.1240129103
 H    4.1988642421    0.1560139769    1.1682651925
 H    1.7998915002    0.6445974395    2.8917344469
 H    2.5796576070   -2.1971866979    0.2643716644