21

 C   -0.0871872812    1.5289248615    0.1095312112
 C    1.2180526352    0.7713268474   -0.0577353676
 C    2.3201688664    0.4190586582    0.9183410613
 C    2.6718995068   -1.0527658045    0.7138079747
 C    1.8303556428   -2.0500651652    0.4006609279
 C    0.3157127097   -2.0113669900    0.2956977057
 C   -0.2650765850   -0.9274963101    1.2473869180
 C   -0.0784685858    0.0294418890    0.0694406783
 C   -0.2679857317   -1.1482246053   -0.8934276618
 H   -0.3279565667    1.9710817352    1.0728345613
 H   -0.4313604893    2.1121105105   -0.7392871811
 H    1.5832656920    0.7940003440   -1.0833409573
 H    3.2135246904    1.0333185033    0.7571035909
 H    2.0150048838    0.6079295077    1.9556206290
 H    3.7277214733   -1.3017893934    0.8007996740
 H    2.2716619766   -3.0333842195    0.2499741235
 H   -0.0905214705   -3.0222672367    0.3830205902
 H   -1.3271055914   -1.0973754135    1.4568039213
 H    0.2607773390   -0.7443103201    2.1863307871
 H    0.2850210722   -1.1269159910   -1.8355220991
 H   -1.3135304866   -1.4192180076   -1.0795718273