19

 C   -0.0988951180    1.4250141770    0.1255165101
 N    0.0246514496   -0.0174260035    0.0213965094
 C    0.5743060318   -0.5782786613   -0.9807804846
 N    0.7685573569   -1.9459257615   -1.0584095586
 C    0.2145382519   -2.8512732990   -0.0826223193
 C    1.1385389849   -2.4231854998   -2.3808881120
 C    1.7080749537   -1.1803201644   -3.0759682620
 C    1.1386611911   -0.0107179363   -2.2797794940
 O    1.1283210744    1.1420897268   -2.6290782148
 H    0.1960773377    1.7260209125    1.1378254852
 H    0.4801341421    1.9959032044   -0.6035022158
 H   -1.1556833290    1.7047515407    0.0187271001
 H    0.1357078951   -2.3252606123    0.8695517343
 H   -0.7901318596   -3.2010829592   -0.3659997640
 H    0.8651950744   -3.7257191686    0.0264862326
 H    1.8647496062   -3.2399332890   -2.3004733741
 H    0.2658542636   -2.8178634595   -2.9262306572
 H    2.8001230774   -1.1416168651   -2.9932753366
 H    1.4529023357   -1.0958772120   -4.1335473387