20

 C   -0.1699429954    1.4181750830    0.6706791255
 C   -0.1823997073   -0.0332211773    0.1836979727
 O    0.5801699450   -0.8714548372    1.0358016346
 C   -1.5954222083   -0.5861823397   -0.0762791691
 C   -2.3893009446    0.1319604973   -1.1498482054
 C   -1.8032122490   -2.0663087473    0.1271440346
 N   -2.3757241969   -1.1054969175    1.0410862731
 C   -2.1587236256   -1.0378438381    2.3977147473
 O   -2.0124751468   -1.9853007467    3.1350553893
 H    0.8633903855    1.7453929920    0.8119541155
 H   -0.6478706620    2.0918295288   -0.0452207871
 H   -0.6954808530    1.5189693001    1.6275312141
 H    0.3364378759   -0.0793907908   -0.7829459920
 H    0.3273464755   -0.7138317864    1.9520795021
 H   -1.8247238215    0.1658435489   -2.0879042460
 H   -3.3335462251   -0.3852957511   -1.3344420884
 H   -2.6235727933    1.1600099769   -0.8579900104
 H   -2.5105913445   -2.5930159831   -0.5083055779
 H   -0.9628285091   -2.6450873440    0.4952251999
 H   -2.2189121394    0.0050954622    2.7690476978