19

 C   -0.2873837844    1.1795984538    0.0048619376
 O    0.2836583289   -0.1230658917    0.0510147363
 C    0.7874515001   -0.6037316413   -1.1500297688
 C    1.9457233878    0.1549150072   -1.7559255865
 C    0.7088161238   -2.1036273829   -1.2553235358
 N    0.1663084770   -2.9454227665   -0.2302963272
 C   -0.2370055941   -1.2596328872   -2.1142326318
 C   -1.6306132103   -1.2223140610   -1.7891567118
 N   -2.7563448655   -1.1841907450   -1.5205426903
 H    0.4719337144    1.9483769014   -0.1862096506
 H   -1.0727669432    1.2469372201   -0.7567026235
 H   -0.7289482803    1.3562990206    0.9872699298
 H    2.7436563630    0.2704416868   -1.0150133578
 H    2.3521204720   -0.3870204013   -2.6145564709
 H    1.6513673317    1.1505752371   -2.1031383556
 H    1.5053671106   -2.5840758047   -1.8169155867
 H    0.8988860966   -3.1775212065    0.4347296683
 H   -0.5410633119   -2.4373502449    0.2929575948
 H   -0.0265065159   -1.2067962740   -3.1772773594