22

 C   -0.6150779801   -0.3663619864    0.5831052132
 C    0.9038977266   -0.5845690844    0.5764978503
 C    1.4994558011   -0.8567091681   -0.7991319202
 C    1.4038543916    0.3000923338   -1.7709491996
 O    2.0980392411    1.4146905212   -1.2201004687
 C    2.7551555481   -1.6959197473   -0.8886628727
 C    1.4503200530   -2.2420973077   -1.4182668672
 C    0.7705334531   -3.4290431171   -0.7693107419
 H   -0.9008439395    0.5105417211   -0.0064894026
 H   -1.1472282195   -1.2307859735    0.1727747460
 H   -0.9780088628   -0.2032107993    1.6029170001
 H    1.4002386402    0.3021123305    0.9858620946
 H    1.1517028781   -1.4109553976    1.2505769938
 H    1.8425811440    0.0022245303   -2.7365514420
 H    0.3485419569    0.5534653332   -1.9588272909
 H    1.9225119363    2.1801381878   -1.7748687456
 H    3.5276692375   -1.4008913282   -1.5910781510
 H    3.1371030109   -2.1202458627    0.0350486553
 H    1.3636720595   -2.2452456781   -2.5033054050
 H    0.8753076832   -3.4200096853    0.3190051591
 H   -0.3002371844   -3.4573211127   -1.0007072035
 H    1.2103949951   -4.3655987496   -1.1303802016