23

 C   -0.2998628436    1.5458702879   -0.0331018878
 C    0.0567795288    0.0560887412   -0.0055941194
 C    0.9018888089   -0.4185042834   -1.1710391566
 C    1.7442346378   -1.3834331815   -0.8102229864
 C    1.6053821234   -1.7141806968    0.6600770632
 C    2.9080648209   -2.1215559179    1.3428530725
 O    3.3131701038   -3.3563296990    0.7628155590
 C    0.8746365264   -0.4562993255    1.2280990158
 C    1.8398741310    0.6004499569    1.7847554475
 H    0.5907277739    2.1802670114   -0.0669561859
 H   -0.9010308468    1.7741285616   -0.9197502142
 H   -0.8878458340    1.8337916121    0.8450552846
 H   -0.8939591461   -0.5015790364   -0.0276180537
 H    0.7746670925   -0.0315860560   -2.1770756911
 H    2.4206298294   -1.9259531902   -1.4598132597
 H    0.9386671852   -2.5856469783    0.7592276105
 H    3.6781056293   -1.3500106582    1.1969118918
 H    2.7463846799   -2.2301504547    2.4279290143
 H    4.1792769761   -3.5828010389    1.1134828008
 H    0.1931071702   -0.7481551436    2.0350132498
 H    2.5473341510    0.9453410285    1.0236407331
 H    1.2936062680    1.4733823797    2.1527171071
 H    2.4167338138    0.2047617512    2.6261377348