17

 C    0.2283810657    1.5172930789    0.1537816569
 C    0.0810323428    0.0422200059   -0.0079449670
 C   -0.1092976988   -0.7352544951   -1.1176190056
 O   -0.1788049267   -2.0121869228   -0.7298535685
 N   -0.0216094141   -2.0154423145    0.7021213484
 N    0.1228794889   -0.8236057674    1.0640329381
 C   -0.2385960039   -0.4243873037   -2.5418667518
 C    0.3191640530   -1.3751835349   -3.5883460561
 C   -1.1636447409   -1.2452683393   -3.4254009532
 H    1.1916210650    1.7714086137    0.6077328408
 H    0.1668097754    2.0243145287   -0.8122273904
 H   -0.5558811851    1.9249338884    0.7997182966
 H   -0.1699073087    0.6346791836   -2.7612110026
 H    0.7908374231   -0.9305844742   -4.4570485349
 H    0.7910390523   -2.2796745117   -3.2233975763
 H   -1.6940187255   -2.0619473105   -2.9503269931
 H   -1.7278594128   -0.7099109350   -4.1802800514