17

 N    0.0939317643    1.3616797190    0.1444177627
 C   -0.0051834977   -0.0206622728    0.0272835193
 C   -1.1833139055   -0.6525957021    0.2767215345
 C   -1.6020806730   -2.0281396928   -0.0366709330
 O   -2.7831308452   -2.3098856661   -0.1929660656
 N   -0.6299616812   -3.0005552863   -0.1577376881
 C    0.6932372868   -2.9018804030    0.4369187932
 C    1.5674819213   -1.9235140086   -0.3050216145
 C    1.2226381233   -0.6451353012   -0.4773652254
 H    0.9991298047    1.7191595864    0.4114358080
 H   -0.6642316127    1.8155979651    0.6323076266
 H   -2.0239657747   -0.0466019689    0.6031358783
 H   -1.0172829603   -3.9212331582   -0.3015496973
 H    0.6236422239   -2.5972232511    1.4938863468
 H    1.1412994805   -3.8975508377    0.4175918775
 H    2.5061865249   -2.2815543380   -0.7169973660
 H    1.8921742605    0.0225036264   -1.0145500972