23

 C    0.2662918368    1.5419689129    0.0165454602
 O   -0.1003816180    0.1973848860   -0.1943329331
 C    0.7149252655   -0.5076630376   -1.1236054487
 C    2.0645278939   -0.8910666921   -0.5024030568
 C   -0.0244897471   -1.7527404894   -1.5905380143
 C   -1.0788037895   -2.4237152943   -0.7455110336
 C   -1.4543568891   -1.8036846652   -2.0774732630
 C   -2.3868452827   -0.6157601235   -2.1481839153
 O   -3.7510960493   -1.0248782059   -2.1848273337
 H    1.2411665496    1.6412517487    0.5144375959
 H    0.3016802315    2.1061674159   -0.9281929433
 H   -0.4968195254    1.9841997128    0.6617868688
 H    0.8999434142    0.1452215052   -1.9947323152
 H    1.9085503348   -1.5522876128    0.3552570104
 H    2.6883765681   -1.4127926294   -1.2348478615
 H    2.6182059447   -0.0100782422   -0.1664543074
 H    0.6442339394   -2.4237219570   -2.1237973536
 H   -1.0665183981   -3.5037324956   -0.6475020318
 H   -1.3830993135   -1.8878832317    0.1472316768
 H   -1.6272751267   -2.5095560375   -2.8869413652
 H   -2.1925496722    0.0701460031   -1.3160735042
 H   -2.2291688063   -0.0622507100   -3.0811626286
 H   -3.9041669907   -1.5551093001   -1.3956229327