16

 O    0.0095225501    0.0325923974    0.2048654487
 C    0.0035817868    1.2275189647    0.1475895537
 C   -1.1092371509    2.2941324284   -0.0276121565
 N   -1.4265586591    2.8803917565    1.2759512458
 C   -0.1702353181    3.1812879504    1.9944379243
 C    0.9248533563    3.4761053125    0.9651112092
 O    0.3293060299    4.3451008121   -0.0440121889
 C    0.0050027300    3.1646053797   -0.7820468699
 C    1.0714889739    2.2863743314   -0.0645414417
 H   -2.0118636919    2.0096980700   -0.5693798182
 H   -1.9028437046    3.7607248883    1.1026000766
 H   -0.3306879545    4.0424128127    2.6484732825
 H    0.1192388101    2.3286435383    2.6225822577
 H    1.8509880577    3.8850560485    1.3736966123
 H   -0.0806408759    3.3082873787   -1.8589324483
 H    2.0707884602    2.0513025505   -0.4257060374