18

 O    0.7993543595    0.4516316045   -0.8790892535
 C    0.0142846195   -0.2999806393    0.0061786059
 C    0.1407044216   -0.0818626080    1.5399052878
 C   -1.3833253756   -0.3381414999    1.6390400024
 C   -1.5096713512   -0.0202436280    0.1286884171
 C   -1.9040908617   -1.7002432023    2.1885766293
 C   -2.7280097778   -0.8525386680    3.1893768069
 O   -3.5000487771   -1.0666529555    4.0832671341
 N   -2.2207305813    0.3054499404    2.6464407929
 H    0.6640286058    1.3852302016   -0.6847868350
 H    0.1986019766   -1.3457980090   -0.2550088337
 H    0.8173164445   -0.7190923867    2.1138867337
 H    0.3729641010    0.9678562228    1.7569658849
 H   -1.7145459251    1.0458507207   -0.0278342388
 H   -2.2082183282   -0.6059754931   -0.4732017609
 H   -2.5096805703   -2.2872429971    1.4954868815
 H   -1.1518749564   -2.3384392708    2.6560362206
 H   -2.3791547238    1.2767064377    2.8736932448