19

 C   -0.1770849160    1.5244087520   -0.0192371795
 C    0.0386258169    0.0142777974   -0.0224258315
 C    0.9678594215   -0.5741490514   -1.1473149473
 C    2.4741232002   -0.4275252411   -0.7040095113
 C    1.8879344510   -1.3801886291    0.3469835447
 C    1.9088759505   -2.2796633435    1.5830508926
 O    0.6460610559   -1.6758932296    2.0048233090
 C    0.9055219670   -0.5277471146    1.1438481039
 O    1.0356374413   -1.9496467344   -0.6908017466
 H    0.7698698336    2.0680169456    0.0737347456
 H   -0.6593379804    1.8566884984   -0.9446489289
 H   -0.8158930216    1.8285151486    0.8159797358
 H   -0.9158436481   -0.5133757931   -0.0965365957
 H    0.6651462168   -0.4561464605   -2.1887513319
 H    3.1279814284   -0.8983199649   -1.4384981302
 H    2.8627894215    0.5381432718   -0.3704851915
 H    1.8171782588   -3.3531665312    1.3994648362
 H    2.7141449694   -2.0737502297    2.2986318952
 H    1.3448610231    0.2814956691    1.7417209515