18

 C    0.2382621376    1.3698863771   -0.1555191652
 C    0.0236230199   -0.1082697448    0.0702503489
 O   -0.0970060100   -0.6438977645    1.1435825683
 O   -0.0166679933   -0.7689405964   -1.1046546338
 C   -0.2312697300   -2.1942073046   -1.0142121860
 C   -0.2345403653   -2.7553390485   -2.4050167457
 C    1.0679400509   -3.0853933780   -3.0878601431
 C    0.1658869988   -4.1953013220   -2.6127357508
 H    0.2892188725    1.8800299602    0.8055463478
 H    1.1620013993    1.5346967034   -0.7171505093
 H   -0.5814902225    1.7801992115   -0.7522312696
 H    0.5642013621   -2.6374544616   -0.4053647136
 H   -1.1786315895   -2.3738109053   -0.4951626948
 H   -1.0318566554   -2.3774045893   -3.0382276961
 H    1.1468085643   -2.9040225852   -4.1536389203
 H    1.9853736606   -2.9056182351   -2.5372879573
 H    0.4771022479   -4.7668771447   -1.7444820535
 H   -0.3788395179   -4.7736007121   -3.3501423559