13

 N   -0.0507388990   -1.0919088637   -0.0044791741
 C   -0.0069494158    0.0613672362    0.0023590787
 C   -0.0044363760    1.5239673830    0.0116633601
 O    1.3487105210    1.9663050187   -0.0010653399
 C    1.5017033856    3.3024343768    0.0057031577
 N    0.4924831469    4.1663013850    0.0228554648
 N    1.1260562699    5.3428592409    0.0230836365
 N    2.4464821482    5.3028906837    0.0076020595
 C    2.7240938149    4.0002639045   -0.0039183460
 H   -0.5453630210    1.9033720184   -0.8637089894
 H   -0.5250489861    1.8920930670    0.9040039032
 H    0.6193898195    6.2123219236    0.0344760169
 H    3.7344354320    3.6287096759   -0.0179299479