20

 C    0.2187827519    1.5538547506    0.0673917703
 C    0.0356128505    0.0730884485   -0.0749531350
 C   -1.0785486889   -0.6710525748   -0.0349741649
 C   -2.5164386042   -0.3034608023    0.1651145679
 O   -2.7291560447    1.0959886008    0.2386197849
 C   -0.7831638061   -2.1399672008   -0.2836903755
 C    0.7503457205   -2.2334318912   -0.1271021950
 C    1.2517547062   -0.7921463241   -0.3569993451
 H    0.9109177128    1.7744866655    0.8912721095
 H    0.6830193057    1.9695246941   -0.8374869654
 H   -0.7203029588    2.0715187838    0.2469590186
 H   -3.1013718571   -0.7441922966   -0.6633124393
 H   -2.8774591785   -0.8031949707    1.0829285505
 H   -3.6631021398    1.2436124720    0.4110460505
 H   -1.3177831812   -2.8046488970    0.4072731765
 H   -1.1091167609   -2.4295819702   -1.2944235944
 H    0.9931119930   -2.5452911264    0.8938914833
 H    1.2046679726   -2.9619617953   -0.8038674244
 H    1.5939245836   -0.6356542995   -1.3914164846
 H    2.1039055236   -0.5332622963    0.2836878717