21

 O    0.1474305753    1.3991947943   -0.1874760613
 C    0.0829687805   -0.0151780376   -0.0094398061
 C    0.7946838474   -0.4662090089    1.2742552215
 C    0.0351992261   -0.0323246116    2.5383589804
 C   -1.4219366571   -0.5147623874    2.5114750912
 C   -2.1432381283   -0.0690455887    1.2302911597
 C   -1.3783284282   -0.5320493660   -0.0311732456
 C   -2.1110560899   -0.0806077854   -1.2785066757
 O   -2.7622536830   -0.8106090261   -1.9837146255
 H   -0.1099754530    1.8231174865    0.6370787345
 H    0.6133886743   -0.4214731476   -0.8775282780
 H    0.8809881261   -1.5601160924    1.2604021189
 H    1.8124444963   -0.0621203571    1.2730459200
 H    0.5479863499   -0.4110618745    3.4284839991
 H    0.0557403495    1.0638051681    2.6333630088
 H   -1.4396737099   -1.6113261954    2.5673538788
 H   -1.9619457653   -0.1480881085    3.3912692992
 H   -3.1627025444   -0.4672193362    1.2057380770
 H   -2.2409634338    1.0258333305    1.2198290194
 H   -1.3631901670   -1.6282124694   -0.0508093520
 H   -2.0201353453    1.0045597533   -1.4980025743