16

 N    0.0043405599    1.3075603701    0.0313934139
 C   -0.0254415918   -0.0360662390    0.0081603228
 C   -1.1513894580   -0.8184499058    0.0045217574
 C   -2.4677797823   -0.3099285629    0.0128441425
 C   -3.5750022008    0.1690753782    0.0190106039
 C   -0.7752182107   -2.2391977888   -0.0106563743
 O   -1.5061212369   -3.2031036661   -0.0182462918
 C    0.7660757612   -2.3055205175   -0.0169989415
 C    1.2484120852   -0.8447368377   -0.0047199833
 H    0.8688437591    1.8152638362   -0.0243903300
 H   -0.8597517680    1.8249441153    0.0035772919
 H   -4.5633887270    0.5560979026    0.0257974275
 H    1.1049019220   -2.8713690396    0.8550277495
 H    1.0983166208   -2.8549821191   -0.9019350575
 H    1.8526487711   -0.5889240405   -0.8836851485
 H    1.8592288961   -0.6053436655    0.8740648375