18

 C   -0.2344347884    1.4793454563    0.0631622060
 C   -0.0308569871    0.0062997975   -0.0622369727
 C    0.1611893033   -0.8171242677   -1.1483358922
 C    0.2241794571   -0.4205468318   -2.5849474198
 O   -0.8019873198   -1.1064529429   -3.3065678191
 C    0.3050130361   -2.1638285282   -0.6662088560
 C    0.1942088267   -2.1025791514    0.6962835038
 O    0.2376785313   -3.0320800683    1.6864016427
 N   -0.0023765073   -0.8019990963    1.0657714329
 H    0.5962230135    1.9761802060    0.5823128984
 H   -0.3214317314    1.9372046089   -0.9242597024
 H   -1.1521363350    1.7192800535    0.6156100177
 H    0.1118543035    0.6702847455   -2.6818873496
 H    1.2112664979   -0.6774641138   -3.0042602791
 H   -0.6573888832   -0.9394358087   -4.2434573632
 H    0.4439717963   -3.0496615993   -1.2660208467
 H    0.3544519387   -3.8956029122    1.2794314746
 H   -0.1143776922   -0.4972626271    2.0171726747