18

 C    0.0632022685    1.5270340459   -0.1397308337
 C    0.0234076178    0.0070591060    0.0697367862
 C   -1.3735376754   -0.5415707360    0.0449633766
 N   -2.3119706537   -0.2438619417    1.1416871964
 C   -2.8397123775   -1.5524951494    1.1248828657
 O   -3.7239777189   -2.0594559692    1.7528013461
 C   -1.8849199110   -1.9945393057    0.0312490384
 C   -2.1081328534   -1.0440551215   -1.1521492111
 O   -3.3569161121   -0.5202031937   -1.4721495420
 H    1.0924473503    1.8962455562   -0.1150136073
 H   -0.3748217574    1.8062440680   -1.1033920105
 H   -0.4952281097    2.0440340403    0.6472200791
 H    0.6106020898   -0.4928684361   -0.7094690039
 H    0.4842593327   -0.2477261335    1.0311136839
 H   -2.9360895280    0.5553788915    1.1022235094
 H   -1.3521537020   -2.9317059488   -0.0570077028
 H   -1.4765255183   -1.2814825944   -2.0112547762
 H   -3.9339270318   -1.2432416979   -1.7413495942