16

 O   -0.0143859769    0.0464464760   -0.2103966146
 C   -0.0319327936    1.2251914825   -0.0201692799
 C   -1.0992068251    2.2702864753    0.3637649715
 N   -0.0071144589    3.2895933380    0.4769826814
 C    0.9922469047    2.3305853338   -0.0190905267
 C    2.4382018256    2.2572514371    0.3563632583
 C    2.0679352411    2.5990653290   -1.0755837983
 C    2.2919129708    1.6817603618   -2.1512805429
 C    2.4827774476    0.9179309366   -3.0601418431
 H   -1.8314198789    2.4488700663   -0.4323581500
 H   -1.6277349766    2.0839513829    1.3034879029
 H   -0.1468075432    4.0740679187   -0.1513005053
 H    2.8273831487    3.0601550937    0.9726014699
 H    2.8465436511    1.2702772774    0.5440044825
 H    2.1626567746    3.6516358894   -1.3347430989
 H    2.6454483790    0.2338057715   -3.8555950668