15

 O   -0.1061894502    1.4804211788    0.0821104724
 C    0.0379094204    0.0762312483   -0.0203942090
 C   -1.3641822450   -0.5240810574   -0.0707528835
 N   -2.1063811681   -0.1419611529   -1.2718430230
 C   -2.0820082798   -1.0091257782   -2.3705551267
 O   -2.5904045538   -0.8300601589   -3.4412470614
 C   -2.7665682186    1.1024831836   -1.2765291614
 O   -3.3373111210    1.5924799231   -2.2091936783
 H    0.7306976697    1.8995383102   -0.1366164446
 H    0.5896852487   -0.2111913945   -0.9276522047
 H    0.5729533690   -0.3420209070    0.8468744767
 H   -1.2985316458   -1.6146608232   -0.0282111016
 H   -1.9240641254   -0.1976166837    0.8108514780
 H   -1.5180694316   -1.9314539069   -2.1180482553
 H   -2.6959181883    1.5784057788   -0.2828298975