22

 C   -0.0643213143    1.2969523819   -0.3651078603
 C    0.2717904559   -0.1216934625    0.0309706196
 N    1.6854153608   -0.4671142959    0.3017824589
 C    0.6964517516   -0.5701299348    1.3890858326
 C    0.9677205487    0.4275838156    2.5231850037
 O    1.7927431164    1.5009040237    2.1311238615
 C    0.2299611931   -1.9097195815    1.8927604351
 C    0.3701565415   -3.1848797544    1.1054407902
 C    1.2128076046   -2.9658796511    2.3382282643
 H    0.1892314480    1.4699628374   -1.4169047997
 H   -1.1396568722    1.4730154599   -0.2499589310
 H    0.4733879554    2.0172395784    0.2517216719
 H   -0.2831684780   -0.8792335215   -0.5223694398
 H    1.9343935650   -1.3715657807   -0.0877832475
 H    0.0204032693    0.8424508931    2.8911047527
 H    1.4226608358   -0.1312620949    3.3580537133
 H    2.3546557345    1.1335848908    1.4300226744
 H   -0.6743995729   -1.8347289066    2.4930191984
 H   -0.4422547658   -3.9014755043    1.1505331314
 H    0.8667086538   -3.1570645651    0.1397269226
 H    2.2684444084   -2.7616979478    2.1906951495
 H    0.9922358005   -3.5422491096    3.2294736382