17

 C    0.0206586458    1.4940064443    0.0421188276
 C    0.0112272864   -0.0215713024    0.0030800103
 O    0.6927407482   -0.4890561137    1.1801924755
 C    0.7816315445   -1.8135592300    1.3218881267
 N    0.2842540629   -2.6579651210    0.4445257462
 O    0.6001620243   -3.9330545203    0.9817571404
 C    1.2588762471   -3.7693229155    2.1372304658
 N    1.5775603279   -4.9248895714    2.8083337104
 C    1.4186802908   -2.4453358998    2.4254249581
 H    1.0450745543    1.8769731789    0.0500436518
 H   -0.4901928686    1.8911646279   -0.8399727698
 H   -0.4924026336    1.8635873105    0.9344586019
 H   -1.0076788303   -0.4248068585   -0.0030193070
 H    0.5229066600   -0.4115391678   -0.8840850642
 H    1.6242898590   -5.7417601275    2.2154582775
 H    2.3671160111   -4.8485599307    3.4313369378
 H    1.8940509102   -1.9847577830    3.2730234911