11

 N   -0.0611707222    1.2848853596    0.3179473903
 C   -0.0234194538    0.0703690439   -0.0407464995
 O    1.1665298781   -0.5631026610   -0.3785131756
 C    1.1400218277   -1.8654126595   -0.7541741415
 C    0.0017209940   -2.5714223493   -0.8129568694
 N   -1.2271340836   -2.0046138768   -0.4894732903
 C   -1.2210947636   -0.7699167192   -0.1307478760
 H    0.8709645974    1.7009437846    0.3189013677
 H    2.1273302055   -2.2412641629   -0.9909069720
 H    0.0026098224   -3.6102124721   -1.1155093555
 H   -2.1556257020   -0.2807486273    0.1321998617