17

 C   -0.0505471880    1.5123773856   -0.0496385742
 C   -0.0321816654    0.0187324503   -0.0905250028
 C   -0.0333140420   -0.8612486414   -1.1555248966
 C   -0.0188468772   -2.1441053291   -0.5725844993
 N   -0.0112997615   -2.0840927245    0.7541495895
 N   -0.0287402383   -0.7579230414    1.0334254037
 C    0.0598114686   -0.3288226314    2.4082252450
 C    1.4983923541   -0.0396773999    2.8331858347
 O    1.7965113956    0.7915043522    3.6475899148
 H    0.8136268442    1.9255951426    0.4828010755
 H   -0.0341870825    1.9081125570   -1.0669485991
 H   -0.9512804125    1.8977407660    0.4427783916
 H   -0.0486532621   -0.6026199757   -2.2022372524
 H   -0.0196846974   -3.1067286902   -1.0628264477
 H   -0.5550214494    0.5557272251    2.5911488949
 H   -0.3181432214   -1.1502199146    3.0258811275
 H    2.2541676150   -0.6786830607    2.3256079050