16

 N    0.0663385581   -1.0034103707   -0.6847336921
 C    0.0206090662    0.1018239298   -0.3403746049
 C    0.0232267600    1.4683331352    0.0897285513
 C   -1.1249350652    2.1600159940    0.0314327519
 C   -1.3792044168    3.6117769109    0.3290576651
 O   -0.5507829782    4.2512741883    1.2723634814
 C    0.8216912853    4.2315842909    1.0043481114
 O    1.4352458825    3.0393712836    1.4073418530
 C    1.4033631005    1.9825904446    0.4812783722
 H   -2.0017578473    1.6343918106   -0.3401072709
 H   -1.3555088557    4.1549359909   -0.6355356851
 H   -2.3976967986    3.7187929400    0.7156214709
 H    1.0167811416    4.4269316824   -0.0662804484
 H    1.2588069415    5.0220403770    1.6177461992
 H    1.9719436238    1.1673449458    0.9361825347
 H    1.9325231323    2.2644260967   -0.4462902898