13

 N   -0.1016079300    1.2436535737   -0.4523622138
 C   -0.0279383576    0.0193486286   -0.1578244802
 N    0.9946676125   -0.9106197503    0.0946926609
 C    0.0863850894   -2.0017066189    0.4524126748
 C   -0.5036307804   -1.9615246248    1.8770221997
 O   -1.5361556119   -1.0329691286    1.4752102756
 C   -1.0945936134   -1.0495064074    0.1006177721
 H    0.8180235535    1.6891447252   -0.4722158810
 H    1.8873699481   -0.7126324713    0.5281483293
 H    0.3003703788   -2.9645674809   -0.0100176734
 H   -0.9386411027   -2.9117281310    2.2109045827
 H    0.1485437622   -1.5602759893    2.6617647302
 H   -1.8977027084   -1.2174194750   -0.6162992669