14

 O   -0.0121146679    1.4698031437    0.1193981900
 C    0.0346114784    0.0930896682    0.0281935324
 C   -0.3513623981   -0.8091240053    1.1953554318
 O   -1.0490345242   -0.1713644250    2.2519496134
 C   -2.3852169691   -0.0768319603    1.8300087448
 O   -2.3688581881    0.0456338046    0.4189481640
 C   -1.2448098141   -0.7142572891   -0.0131846514
 C   -3.1667102664   -1.2773624050    2.2405385050
 N   -3.7765463608   -2.2018529759    2.5675640806
 H   -0.9434413841    1.7214365618    0.1674711112
 H    0.8588622873   -0.2607485789   -0.5853501579
 H    0.2141354369   -1.6877705789    1.4815533961
 H   -2.8382581197    0.8205409873    2.2591215272
 H   -1.4688363600   -1.5073601471   -0.7164141771