19

 C    0.0623086820    1.5605377902    0.0898010775
 C    0.0241440767    0.0325891101    0.0375816729
 C    0.7804938321   -0.5890671602   -1.1627685424
 C    1.4999644402   -1.6877414970   -0.8723848057
 C    1.2147354801   -2.0716856859    0.5595231889
 C    1.9128177019   -1.8230765506    1.9441699769
 C    2.2684758144   -0.3958320072    1.5340861784
 C    0.8008737879   -0.7079206889    1.1066186878
 O    0.5863217892   -1.3125581474    2.4492897121
 H    1.0932435907    1.9257436306    0.1355155915
 H   -0.4094753771    1.9952307411   -0.7973795253
 H   -0.4701607182    1.9343308654    0.9694392282
 H   -1.0214730022   -0.3087746597    0.0182714659
 H    0.7072140579   -0.1414662193   -2.1495829822
 H    2.0703548953   -2.2593675933   -1.5961573796
 H    0.4417214561   -2.8421117478    0.6475971589
 H    2.4275908388   -2.5186245170    2.6080640247
 H    2.3632972326    0.3078424367    2.3613185112
 H    3.0139103416   -0.2502254597    0.7510952403