21

 C    1.2217324119    0.9911382742   -0.8852491565
 C    0.7997116640   -0.3265924668   -0.2721676437
 C    1.8065675847   -1.3495094487    0.1332995614
 N    0.9934114618   -0.6699826942    1.1388601779
 C    1.6123950596    0.2030117465    2.0793589699
 C    0.9370623368    1.3369124601    2.8804686159
 N    2.3428429605    1.2967859312    3.5030058989
 C    2.1736174019   -0.2308046356    3.4507116481
 C    2.8497218018    1.1700540608    2.0651825301
 H    2.2425468860    1.2671998400   -0.6136978419
 H    1.1758826071    0.9169983615   -1.9771071966
 H    0.5534705639    1.8047465035   -0.5830480368
 H   -0.1544792618   -0.6940690448   -0.6483531047
 H    1.6179392476   -2.4123926662    0.0055174759
 H    2.8536836885   -1.0603465714    0.0486273703
 H    0.7160878951    2.2762084857    2.3657780399
 H    0.1415222377    1.0649094280    3.5791282432
 H    1.4677055363   -0.6194836521    4.1892398715
 H    3.1220768805   -0.7746979302    3.4749072622
 H    3.8503168094    0.7339913460    1.9947490104
 H    2.7783765168    2.1038712327    1.5018643245