14

 O   -0.1287296854    0.0186442903    0.1386790704
 C   -0.0150509831    1.2157595250    0.0548812784
 C    1.2937879448    1.8915214336   -0.0495309652
 O    1.4064830327    3.2728903096    0.2836174293
 C    1.7572191043    2.9077164249   -1.0397253695
 C    3.1841017563    2.3473610366   -1.0226874512
 C    2.6983709570    1.2540577362    0.0076595488
 C    3.3495917690    1.2095628687    1.3067236213
 N    3.8794136647    1.1831491376    2.3331978218
 H   -0.8827394350    1.9076133799    0.0284792419
 H    1.2121975661    3.3754488805   -1.8511709344
 H    3.4958660686    1.9042960387   -1.9692550767
 H    3.9431894175    3.0424796136   -0.6622352731
 H    2.6840722625    0.2576391749   -0.4383375717