17

 C    0.3153778141    0.6615696702    0.5113615723
 O   -0.2869400803    0.2760898849   -0.7146145051
 C    0.4837309239   -0.5566863300   -1.5307279519
 C    0.4942586241   -2.0450188230   -1.1286814128
 O    1.3445544741   -2.1808054084    0.0359525092
 C    1.8580097688   -3.4058665564    0.2814142192
 O    2.5515296637   -3.6299224893    1.2254802568
 C   -0.8379512312   -2.5792015669   -0.8692841642
 C   -1.9290507746   -3.0365121938   -0.6636898223
 H    0.4030376404   -0.1749719823    1.2121903733
 H    1.3168997744    1.0850509951    0.3455769985
 H   -0.3286439322    1.4312068826    0.9427617715
 H    0.0479847128   -0.4969211477   -2.5337186978
 H    1.5322514982   -0.2237224549   -1.5824798170
 H    0.9566544094   -2.5980073618   -1.9594713338
 H    1.5750386658   -4.1537980857   -0.4834774860
 H   -2.8969205013   -3.4336333025   -0.4779142000