16

 C    0.0947529488    1.5580496140    0.0125007272
 C   -0.0328349148    0.0654494615   -0.0078072731
 C    0.9909583264   -0.9225706518   -0.5567373976
 N    0.4801351636   -2.0569939298   -1.2874008744
 C   -0.7359938240   -2.0491490923   -0.8908941403
 O   -1.1444979009   -2.9543596121    0.1023568485
 C   -0.8990938839   -1.7203992378    0.9557123679
 C    0.5170548762   -1.0186539817    0.9316550752
 C   -1.2871663497   -0.7771548279   -0.1797509445
 H    1.1279287099    1.8613395696    0.2079284280
 H   -0.2021232077    1.9896164016   -0.9500601217
 H   -0.5359107224    2.0048659151    0.7889573343
 H    2.0086148781   -0.6000902421   -0.7473016215
 H   -1.4228466799   -1.8085614924    1.9051833001
 H    1.2071545358   -0.9409159094    1.7602421928
 H   -2.2999130255   -0.4335754746   -0.3626899309