17

 C   -0.0254967955    1.5652187100    0.0392824841
 C    1.5281769900    1.5059178847   -0.0184770866
 C    2.0789075971    1.3155455808    1.4024130437
 N    1.8122561625   -0.0819066885    1.7790499368
 C    0.5717300478   -0.6861513134    1.2667810115
 C    1.8964376599   -0.9154400346    0.5932893983
 C    1.4427478295    0.0210322450   -0.5606904775
 C   -0.0068779988    0.0242509350    0.0109161469
 H   -0.4736366143    2.0719896697    0.9006432907
 H   -0.4618715357    1.9691342985   -0.8790270946
 H    2.0532484659    2.2636563093   -0.6022330204
 H    3.1648114315    1.4584195796    1.4408937740
 H    1.6200032948    1.9983415168    2.1249650059
 H    0.0121107189   -1.3092867772    1.9560703964
 H    2.5595770318   -1.7722526626    0.5618923033
 H    1.6704095159   -0.1935080323   -1.6015019072
 H   -0.8140303411   -0.5373088306   -0.4622493152