23

 C   -1.5266144748   -0.1853892474   -0.1166064991
 C   -0.0008492571   -0.0866518885    0.0206500115
 C    0.4699042124   -0.6751380515    1.3537254565
 O   -0.0547840733    0.1360509000    2.3958941625
 C    0.7589144197   -0.6878750253   -1.1749225516
 C    0.5645968438   -2.1948370631   -1.3609241327
 C    0.6128668334    0.0941542243   -2.5085596512
 O    2.0393238120    0.2597251213   -2.6249919081
 C    2.2492271666   -0.2664955083   -1.3010314012
 H   -1.8782547326    0.2939327255   -1.0359617770
 H   -1.8634618588   -1.2276370837   -0.1313605286
 H   -2.0074059055    0.3076897803    0.7310201412
 H    0.2613126556    0.9798139195    0.0589596705
 H    0.1211967913   -1.7149938920    1.4533976684
 H    1.5716872451   -0.6931754152    1.3879428770
 H    0.1662206838   -0.2727320249    3.2374649724
 H   -0.4869156262   -2.4512673930   -1.5232756787
 H    1.1279250099   -2.5417730423   -2.2331174649
 H    0.9193104122   -2.7608271843   -0.4930852040
 H    0.1910071495   -0.4581811028   -3.3570732695
 H    0.0963925492    1.0600070806   -2.4187525954
 H    2.5654219224    0.5158880722   -0.5965232738
 H    2.9904694914   -1.0751299415   -1.2923048741