21

 C    0.0977101659    1.6080550168    0.0567821351
 C    0.0535125843    0.0686052418    0.0916085623
 C    0.7274137368   -0.4528446707    1.3749683167
 C   -1.4289408171   -0.4118336900    0.0155827027
 C   -2.2415618486   -0.0425570410    1.2383376555
 O   -2.9389633402    0.9377605598    1.3170298432
 C    0.7748070916   -0.5299743380   -1.1556481966
 C    2.1965145087   -0.0363087597   -1.3195789784
 O    3.1687732593   -0.6279805109   -0.9218201454
 H    1.1178843944    1.9782691880    0.1991658070
 H   -0.2739030563    1.9953055227   -0.8980453319
 H   -0.5244426708    2.0354044862    0.8473804428
 H    0.3013498216    0.0192773154    2.2658429754
 H    0.6076677346   -1.5370053572    1.4750081098
 H    1.7998307093   -0.2416019533    1.3674225378
 H   -1.9114014092    0.0373074049   -0.8584397922
 H   -1.4427165866   -1.5034387655   -0.0942605982
 H   -2.1513783526   -0.7423743552    2.0994443777
 H    0.8043584333   -1.6208426270   -1.0688123437
 H    0.2077931733   -0.2616666663   -2.0558652586
 H    2.3038037984    0.9440211991   -1.8361288310