16

 C   -0.1493520746    1.4080886907    0.0123333592
 C    0.0765974264   -0.0693321829   -0.0023343035
 C    0.6736040720   -0.9727771653   -1.1142375760
 C    0.0548499550   -1.8776012117   -0.0131160998
 C    0.7247155553   -0.9863701104    1.0690721370
 O   -1.1197750206   -0.9606754215    0.0200995622
 C   -0.1553029878   -3.2935208830   -0.0169516349
 C   -0.3041598902   -4.4863595054   -0.0207729270
 H    0.8079784779    1.9385030435   -0.0011535367
 H   -0.7288641021    1.7162139946   -0.8630813808
 H   -0.6964477015    1.7029145299    0.9128414380
 H    0.1279000946   -0.9701485193   -2.0583541628
 H    1.7590029139   -0.9956628727   -1.2401525877
 H    1.8148178781   -1.0104398200    1.1437128513
 H    0.2238334555   -0.9957837131    2.0376700418
 H   -0.4421938518   -5.5394286134   -0.0239712703