22

 C    0.0229425074    1.5940721957    0.0409950207
 C    0.0360520251    0.0593930122    0.0161253489
 C   -1.3469494348   -0.5435951069    0.0063598989
 C   -2.3210282641   -0.3954914848    1.2135545361
 C   -2.9589614223   -1.6888977906    0.7205236378
 N   -2.9720675227   -1.7050855360   -0.7925614294
 C   -2.3209902901   -0.4136534859   -1.1810691389
 C   -1.7473114606   -2.0889680692   -0.0326008223
 C   -0.9923299216   -3.3632222701   -0.2002222005
 H    1.0404755986    1.9959285634    0.0397966201
 H   -0.4968661667    2.0009272498   -0.8328517602
 H   -0.4844267779    1.9721313230    0.9346173180
 H    0.5867394775   -0.2865472106   -0.8688693133
 H    0.5908835567   -0.3157377087    0.8863692664
 H   -1.8107336276   -0.5538343713    2.1683766541
 H   -2.9311720057    0.5133403508    1.2671601021
 H   -3.7028890451   -2.3101410980    1.2030123986
 H   -2.9881901982    0.4564755777   -1.2186063588
 H   -1.8395254806   -0.5492682573   -2.1544148797
 H   -0.3907625403   -3.3570223073   -1.1163898574
 H   -0.3173812152   -3.5423527023    0.6441245553
 H   -1.6908892615   -4.2035153138   -0.2639709463