14

 O   -0.0375693862    1.2965757478   -0.0688730515
 C    1.0175613538    2.1862230865    0.0321204686
 N    2.1631821540    2.1400716312   -0.4724748323
 C    2.8010909025    1.0933537784   -1.1222794270
 C    3.2259092170   -0.0592466354   -0.5637922733
 N    3.0615497272   -0.4569779988    0.7479336816
 C    1.9202653652   -0.6839299137    1.2805821765
 N    0.7162697173   -0.8439237760    0.6402190322
 C   -0.0154368495   -0.0619791995   -0.0167208950
 H    0.6614034294    3.0814061139    0.5349974285
 H    3.2049745414    1.3714706406   -2.0916429017
 H    3.9238242073   -0.6641032384   -1.1374902836
 H    1.8968689868   -0.9679262979    2.3332769750
 H   -0.8766489463   -0.4445147087   -0.5609743780