19

 O   -0.6239960582    1.6509301143    1.1556789352
 C    0.1424456139    1.2483442875    0.3185146178
 C    1.4124794520    1.9552001616   -0.0974146124
 C    1.2602176289    2.5499495453   -1.5065966148
 C    0.3508233926    3.8118777505   -1.5683351608
 C    1.6238304759    4.7165655989   -1.6146966270
 C    2.4574358362    3.4382146735   -1.9494246124
 C    1.6327936006    5.8018980743   -2.6536253168
 O    1.8891072456    6.9608076302   -2.4538598045
 H   -0.0685164846    0.3085072120   -0.2444137307
 H    1.6352856209    2.7354704823    0.6371245838
 H    2.2360823756    1.2285316710   -0.1024063244
 H    0.9947049268    1.7536679122   -2.2091487353
 H   -0.2211862904    3.8644631637   -2.4998683792
 H   -0.3302907732    3.9772576740   -0.7311659178
 H    1.8768541479    5.1499918709   -0.6457005525
 H    3.3989033906    3.3192616140   -1.4082070659
 H    2.6593188842    3.3514002314   -3.0217792406
 H    1.3731332848    5.4397493923   -3.6793158917