18

 O    0.0759268904    1.3066437700   -0.0657887770
 C    0.0425536599   -0.0668053104    0.0089801088
 C    0.6233202398   -1.0068252350   -1.0724962558
 C    0.0232119402   -1.9446210677    0.0187041738
 C    0.6767744903   -1.0166686987    1.0848758075
 C   -1.2032046231   -0.9908590512    0.0118964884
 O   -2.0097330938   -0.8905342638    1.1730680071
 C   -3.1531667745   -1.6037714221    1.1900692215
 N   -3.8858472790   -1.5967206052    2.2172968122
 H   -0.3889274370    1.6613516531    0.7009315399
 H    0.1356053175   -0.9980763793   -2.0511918370
 H    1.7107192805   -1.0173120553   -1.1588135439
 H    0.0077313171   -3.0311648056    0.0111621038
 H    1.7681221519   -1.0267408850    1.1248542207
 H    0.2251908708   -1.0140454115    2.0764708651
 H   -1.8230661609   -0.9865327445   -0.8915821820
 H   -3.3462002334   -2.1420394094    0.2518233444
 H   -4.7119336867   -2.1694560484    2.0572199427