18

 O    0.3343038067    0.9262949647   -0.4239157866
 C   -0.0066442959   -0.3695006544   -0.0026903807
 C   -0.0975486810   -0.6843006762    1.5169563075
 C   -1.4427035575   -1.4530133877    1.2432450316
 C   -1.4868935032   -0.7223978002   -0.1030651087
 C   -2.5303862218    0.1931465658   -0.6073202061
 N   -2.2620316201   -1.1033043374   -1.2698861476
 C    1.0215245111   -1.4579019375    2.1503041136
 O    2.0202530482   -1.8068077057    1.5688973653
 H    1.2906458367    0.9718290652   -0.5210524408
 H    0.6201638215   -1.1296185898   -0.4886146019
 H   -0.2985654843    0.2231590261    2.0965386841
 H   -1.2934610580   -2.5303649479    1.1261878574
 H   -2.2630582002   -1.2760418087    1.9400084242
 H   -3.4910747907    0.2545014096   -0.1026446717
 H   -2.1991731373    1.1070179965   -1.0914302416
 H   -1.7154355754   -0.9544858684   -2.1158775394
 H    0.8684319313   -1.7184751940    3.2227282215