18

 C   -0.1294377606    1.2476669963    0.2254233849
 O   -0.0201401645   -0.1504372800    0.0149632708
 C    0.6936974139   -0.5658442447   -1.1547013050
 C    2.0733416565    0.0637976534   -1.3078039423
 C    0.7706177658   -2.0878737807   -1.0037267257
 O    1.2910555692   -2.6072648788   -2.2158063979
 C   -0.2241753192   -0.2455086891   -2.3474772030
 O   -0.0005612695    0.5783923505   -3.1937533235
 H    0.8376935873    1.7050557460    0.4685986372
 H   -0.5529975939    1.7705206968   -0.6423435275
 H   -0.8021366240    1.3752070749    1.0766536810
 H    2.6211037430   -0.0023543503   -0.3629757385
 H    2.6285009614   -0.4805881803   -2.0746656423
 H    2.0071907802    1.1073642308   -1.6201726677
 H    1.4045077128   -2.3283066238   -0.1383132714
 H   -0.2416055243   -2.4648519440   -0.7961102170
 H    1.2933591930   -3.5668287396   -2.1622257248
 H   -1.1845114372   -0.8093744574   -2.3194748975