21

 C   -0.1944563143    1.6330042918    0.1864806696
 C   -0.0743628084    0.1146065503    0.0134555983
 C    0.7569359681   -0.5240886627    1.1198243450
 C    0.1526200902   -0.5966326353    2.5411015157
 O    0.4164321123   -2.0107216794    2.6330217934
 C    0.8345570693   -2.0832383993    1.2675973967
 C   -0.1338364734   -2.8680744600    0.3827126378
 C    0.4453725379   -3.3913236463   -0.9195337269
 O   -1.2853441787   -3.0404231539    0.7025137755
 H    0.7894792957    2.1145825548    0.1677481812
 H   -0.7978822426    2.0737813430   -0.6122711959
 H   -0.6702969294    1.8878513530    1.1396519442
 H   -1.0733807135   -0.3358806499   -0.0003100400
 H    0.3810765526   -0.1034432619   -0.9613118620
 H    1.7613288404   -0.0904015316    1.1274238793
 H    0.6649711998   -0.0317626289    3.3277049956
 H   -0.9237945378   -0.3854844110    2.5849770251
 H    1.8448946096   -2.5040756724    1.1716742224
 H    1.0611515486   -2.6323961873   -1.4145303594
 H    1.1024760140   -4.2436567523   -0.7076673083
 H   -0.3578526403   -3.7156999707   -1.5820780171