18

 C   -0.0975908855    1.5773116837    0.2404920311
 C   -0.1087889693    0.0826840915   -0.0813234844
 N   -1.4411364555   -0.4839320381   -0.0768292227
 N   -2.1645950331   -0.6091710378    1.0922702785
 C   -3.2977857592   -1.1331564522    0.7345654784
 C   -4.4125399559   -1.4622645315    1.6624242189
 N   -3.3356600649   -1.3494672594   -0.6234709113
 C   -2.1245626863   -0.9304704695   -1.1881310605
 O   -1.7778484890   -0.9598236464   -2.3517750641
 H    0.9302849045    1.9525271507    0.2495240082
 H   -0.6634987815    2.1405851327   -0.5072751871
 H   -0.5413543394    1.7615314525    1.2224909042
 H    0.2843844932   -0.1084266070   -1.0832136230
 H    0.5052235086   -0.4692208725    0.6387336750
 H   -4.1194675858   -1.1914835460    2.6775974058
 H   -5.3246008310   -0.9137241723    1.4016189390
 H   -4.6499683893   -2.5317542188    1.6384316472
 H   -4.0837183006   -1.7461552096   -1.1648553731