15

 C    0.0247531134    1.3404453096   -0.0364290995
 O    0.0180765240   -0.0950384839   -0.0914725586
 C    0.6564333547   -0.6374384012   -1.1328441574
 O    1.2204869142   -0.0037219052   -1.9952934861
 C    0.6037247933   -2.1610615010   -1.1275713177
 C   -0.8393324672   -2.6723622650   -1.2307503403
 O    1.3881140310   -2.6518579785   -2.1860513999
 H    1.0493525089    1.7156557645    0.0184731198
 H   -0.4592193654    1.7594915745   -0.9217534873
 H   -0.5289743037    1.6037726683    0.8641911349
 H    1.0270275978   -2.4935525295   -0.1670062201
 H   -1.4350560413   -2.3428173029   -0.3758865569
 H   -1.3051573402   -2.3125046230   -2.1531496876
 H   -0.8281027660   -3.7645795245   -1.2579308450
 H    1.6994242064   -1.8717403921   -2.6688473782