20

 C   -0.0136876281    1.5947173588   -0.0089357148
 C   -0.0424993319    0.0551314236   -0.0173308316
 C   -1.4879041731   -0.4691171124    0.0676903055
 C    0.6774897028   -0.5036571311   -1.2150495263
 C    1.7868476806   -1.2981185315   -1.2690277243
 C    2.6773092744   -1.8957634637   -0.2373978430
 O    2.1002771855   -1.5697660573   -2.5526407250
 N    1.1840748260   -0.9466326702   -3.3948146519
 C    0.3566053099   -0.3257826558   -2.5946337496
 H    1.0125335674    1.9724449078   -0.0330643127
 H   -0.5396429239    2.0018099247   -0.8795684149
 H   -0.5034280787    1.9863182644    0.8886326770
 H    0.4882401037   -0.2907302027    0.8786501098
 H   -2.0740882063   -0.1463367369   -0.7998085710
 H   -1.5122922149   -1.5622155758    0.0981684360
 H   -1.9856266801   -0.0886982291    0.9656771225
 H    2.6835733301   -2.9883677368   -0.3106785451
 H    3.7093837669   -1.5523675811   -0.3642286808
 H    2.3429177978   -1.6195635440    0.7643521049
 H   -0.4572886281    0.2394589491   -3.0281956246