19

 C   -0.0800763086    1.4408566120    0.0570399484
 C    0.2723524880   -0.0322178776   -0.0103211451
 O    0.1980976817   -0.5609829302    1.3275474596
 C    0.5248391812   -1.8514750399    1.4695190785
 C    1.3782618002   -2.4607181291    2.3373404831
 C    2.2636764983   -1.7909755238    3.3400307366
 C    1.2265203159   -3.8696483094    2.0720519657
 C    0.3178182855   -3.9908311621    1.0747603253
 O   -0.1337543980   -2.7572809962    0.6924173895
 H    0.6197918784    1.9778740003    0.7032514528
 H   -0.0386459990    1.8819356915   -0.9432105146
 H   -1.0896654833    1.5764876049    0.4546462155
 H   -0.4241074858   -0.5790163627   -0.6552765214
 H    1.2884578197   -0.1856158722   -0.3977588799
 H    1.9977159039   -2.0673929045    4.3671422489
 H    3.3159600030   -2.0622019421    3.1962332807
 H    2.1795800956   -0.7044847295    3.2556339877
 H    1.7440900341   -4.6778021184    2.5665662340
 H   -0.0982185407   -4.8257378510    0.5368284946