18

 C   -0.6837215014    1.2382129185    0.0823729784
 C    0.1706248676   -0.0125965166   -0.1154021799
 O    1.2111654609    0.1976447830   -1.0789954422
 C    0.7511476611   -0.5356645118    1.1684427957
 C    0.3731916162   -0.4100103908    2.4936616830
 C    1.2895092561   -1.1790427542    3.2637329294
 O    1.3122326595   -1.3472904936    4.6196209756
 C    2.2000245352   -1.7489318634    2.4027079176
 N    1.8485252076   -1.3486867347    1.1317973470
 H   -0.0978159683    2.0397651668    0.5454934606
 H   -1.0569686238    1.5866204324   -0.8838569400
 H   -1.5401196608    1.0295086077    0.7306285776
 H   -0.4506736737   -0.7872243360   -0.5857187787
 H    1.7819888666    0.8927919189   -0.7298174167
 H   -0.4657951864    0.1569357739    2.8690860580
 H    0.5710388671   -0.8650973281    4.9959570129
 H    3.0525151773   -2.3776156185    2.5942361903
 H    2.3409284192   -1.5570729236    0.2803395614