21

 C   -0.1074917717    1.5549198248   -0.0797819218
 C    0.0591387049    0.0404278267   -0.0465409272
 O   -1.2345717688   -0.5311023156   -0.2999217187
 C    1.2938781028   -0.6486298033   -0.7190670578
 C    2.1286008818   -0.1482148683    0.4951696421
 C    0.8047138001   -0.6737849131    1.1322036980
 C    0.3971796496   -0.6959156843    2.5802707529
 C    1.0086494069   -1.9112669293    0.1709717486
 O    0.0018531189   -2.8279994951   -0.0999786579
 H   -0.4569023388    1.8706905535   -1.0716954435
 H   -0.8654903077    1.8599775817    0.6483577697
 H    0.8101845857    2.1060468411    0.1259320927
 H   -1.5821281820   -0.1398230250   -1.1085972166
 H    1.5786998587   -0.6177684130   -1.7723499679
 H    3.0228849299   -0.7321302984    0.7248031022
 H    2.3375793461    0.9173777906    0.5652775082
 H    0.3088987292    0.3153068308    2.9931963758
 H   -0.5707005935   -1.1945717620    2.6966646744
 H    1.1300766443   -1.2419844984    3.1836909471
 H    1.9056909422   -2.4939860927    0.4005975758
 H   -0.7953007189   -2.3078768210   -0.2779049362