15

 O    0.0407789420   -0.0284196249    0.2203298120
 C    0.0055568822    1.1654961701    0.0449625066
 C   -1.3128342746    1.9364031779   -0.0586565523
 N   -1.2776220023    2.9516628149   -1.1028766484
 C   -0.1814829348    3.6252266502   -1.5574370865
 O   -0.2290636940    4.4483647876   -2.4514448934
 C    1.1186493534    3.2682176606   -0.8837590855
 N    1.1172846956    3.3273044742    0.5801212234
 C    1.2308245071    2.0069766787   -0.0763193645
 H   -2.1002846104    1.2119833178   -0.2757022807
 H   -1.5137768718    2.3785908937    0.9283316269
 H   -2.1500190836    3.2393415422   -1.5205717076
 H    1.9913744410    3.6127127303   -1.4280339413
 H    2.0311632406    3.6180046431    0.9178251719
 H    2.1753053196    1.4729723936   -0.0583037705