16

 C    0.1015046305    1.4894932056    0.0240066225
 C   -0.0635858268    0.0030956583    0.0153504685
 C   -1.2399884503   -0.6807256504    0.0023602696
 N   -2.5095366291   -0.0686833399    0.0739025985
 C   -1.1685224605   -2.1118312108    0.0000807575
 C    0.0170135047   -2.7634498591    0.0110607982
 C    1.2695023757   -2.0384531235    0.0468533957
 O    2.3845508803   -2.4925495179    0.0692638640
 O    1.1281231874   -0.6481774849    0.0555977488
 H    1.0653774137    1.7521445115   -0.4176172658
 H   -0.6872908134    1.9841574810   -0.5520885276
 H    0.0777290546    1.8980525409    1.0419355225
 H   -2.4865794448    0.9307215315   -0.0768651658
 H   -3.1797689706   -0.4862183166   -0.5605411450
 H   -2.1004554518   -2.6714697096   -0.0049112497
 H    0.0880346105   -3.8433130961    0.0030911681