19

 C    0.0506733469    1.5316583526    0.1911537700
 C    0.1217802656    0.0169676817    0.0474617657
 C    0.9088587735   -0.4757978045   -1.2208155238
 N    1.5084898193   -1.7149999315   -0.7084719170
 C    2.9488355738   -2.1038191693   -0.6618775790
 C    2.7680482665   -2.3543669416    0.8923881056
 O    3.7091649615   -1.8759569096    1.7995549299
 C    1.5007880736   -1.5442184710    0.6768273995
 N    0.8265498333   -0.6110721772    1.2099301473
 H    1.0560089008    1.9595143891    0.2636087261
 H   -0.4540309316    1.9821085218   -0.6703510168
 H   -0.5000796816    1.8052673992    1.0948244470
 H   -0.8989540206   -0.3881945715    0.0125422787
 H    0.2626453043   -0.6477949357   -2.0846618330
 H    1.6884567945    0.2491795243   -1.5037241450
 H    3.2132473149   -2.9520725802   -1.2966646973
 H    3.6295352754   -1.2616016391   -0.8406522718
 H    2.5951829906   -3.4114329278    1.1081386923
 H    3.5597278395   -0.9293280996    1.9067845116