23

 C    0.7714369149    1.0596838133    0.5500505419
 O   -0.0808613815    0.2089550744   -0.2037316379
 C    0.5212056738   -0.4650769699   -1.2809610790
 C    1.7713799236   -1.2735472888   -1.0422757147
 C    0.4464632537   -1.9729805000   -1.2696266771
 C   -0.2361678047   -2.7105535770   -0.1401353826
 C    0.3201115019    0.2539643603   -2.6088882821
 C   -1.1558366341    0.3074392387   -3.0073100953
 O    0.8884677271    1.5638849184   -2.5861030691
 H    1.4514954346    0.4889090665    1.1967469303
 H    1.3714919140    1.7114394277   -0.0933397775
 H    0.1207985458    1.6672168010    1.1851719186
 H    2.5277639786   -1.2926274551   -1.8200176690
 H    2.1699233619   -1.3005804428   -0.0336515361
 H    0.3208038476   -2.4314969172   -2.2483727524
 H   -0.1501193439   -2.1543981614    0.7963121602
 H   -1.3039718945   -2.8439563718   -0.3446825758
 H    0.2045149652   -3.7027990503    0.0044413242
 H    0.8869136839   -0.2876658896   -3.3758293049
 H   -1.2764854194    0.8725058106   -3.9355342836
 H   -1.5624464777   -0.6976363889   -3.1533368476
 H   -1.7401128208    0.7916474698   -2.2171960669
 H    0.2757943799    2.1246273619   -2.0982260234