20

 C   -0.1084304107    1.5060386161   -0.0879956830
 C   -0.0359221354    0.0091659326   -0.0398089535
 C    0.8390740616   -0.9578342958   -0.8870753902
 C    1.9751466058   -0.9608726601    0.1927983821
 C    0.6645978822   -0.9062548545    1.0170127434
 C   -0.1477366601   -0.8480572508    2.2882690252
 C   -1.5586766203   -0.8481714777    1.5429666091
 N   -1.2587262340   -0.8825679554    0.0694025270
 C   -0.0821472585   -1.8189131610    0.0073410222
 H    0.8963956370    1.9409933047   -0.1155081624
 H   -0.6483087782    1.8373233681   -0.9808881210
 H   -0.6266041637    1.9111469828    0.7882675633
 H    0.9393464796   -0.9915258258   -1.9723484057
 H    2.5712404038   -1.8749883227    0.2699410279
 H    2.6245618841   -0.0808893351    0.2271799879
 H   -0.0243549154   -1.7139736135    2.9442859246
 H    0.0095476575    0.0592788722    2.8787482006
 H   -2.1553807520   -1.7257051209    1.8067963043
 H   -2.1475150756    0.0428646805    1.7762402158
 H   -0.1821715278   -2.9054529938    0.0454730523