18

 C   -0.1171643093    1.3289576013   -0.2938950360
 O   -0.1126845065   -0.0875406445   -0.2196064792
 C   -1.3237071241   -0.6211175126    0.2467049593
 O   -2.3882204528   -0.4349262611   -0.6614413586
 C   -2.3044072782   -1.4701556080   -1.6512507697
 C   -1.8428357434   -2.7266797908   -0.8907290990
 C   -1.1762503010   -2.1272148613    0.3204633620
 N   -0.6196766509   -2.6922347936    1.3104639979
 O   -0.6237976089   -4.0864096971    1.1641637145
 H    0.8705791473    1.6310499600   -0.6477381224
 H   -0.8823108187    1.6947320162   -0.9884391999
 H   -0.2961239404    1.7771810397    0.6949552492
 H   -1.6181739395   -0.1474351928    1.1918515514
 H   -3.2924037693   -1.5668685994   -2.1049946541
 H   -1.5823305969   -1.1933639589   -2.4291302926
 H   -2.6839665991   -3.3547040964   -0.5781073258
 H   -1.1589740294   -3.3614883346   -1.4602133842
 H   -0.1890132688   -4.3794266261    1.9724532370