23

 C   -0.1194025624    1.1548198328   -1.0576966813
 C   -0.2564944128   -0.3112439744   -0.6316172554
 C    0.6372250512   -0.6839385142    0.5594548649
 C    0.2706662331    0.0389922381    1.8820190668
 O    0.4209023790   -0.8905842517    2.9579726384
 C    0.6071198632   -2.1899949878    2.4550847540
 C   -0.5187885310   -2.8237984221    1.6764473499
 C   -1.9528032817   -2.3429698869    1.7372343312
 C    0.6536831253   -2.1561794842    0.9557227206
 H    0.9150265366    1.3913313672   -1.3318156213
 H   -0.7518643306    1.3770912364   -1.9226202991
 H   -0.4115810507    1.8379859811   -0.2527047932
 H   -1.3023203316   -0.5289529502   -0.3852264292
 H   -0.0009535766   -0.9600167572   -1.4783648414
 H    1.6710770661   -0.4231414158    0.2943144964
 H    0.9149648035    0.9011537828    2.0873977124
 H   -0.7653909610    0.4038447224    1.8499786325
 H    1.2702436645   -2.7776517332    3.0812686805
 H   -0.4398630342   -3.9087754265    1.6276034321
 H   -2.4769881263   -2.5177159399    0.7914432600
 H   -2.4938507285   -2.8866584661    2.5196086156
 H   -2.0289389378   -1.2817987902    1.9776766066
 H    1.3216538126   -2.8042057005    0.3984893788