21

 C   -0.0114030152    1.5197540959   -0.0204390380
 C    0.0036342666    0.0071240924    0.0120172430
 C   -1.3701385241   -0.7437813131   -0.0165176035
 C   -0.9825839920   -1.5078585170    1.2914013620
 C    0.3937849290   -0.7812543625    1.3034713936
 C    1.5905602650   -1.3964107924    0.5396958644
 O    2.8550633615   -1.5256884220    1.0922724585
 C    1.1754211620   -2.1533483923   -0.6869607182
 C    1.2040618128   -0.6388462932   -0.7258983837
 H    0.9748910199    1.9288225218    0.2266065195
 H   -0.2839031378    1.8905067995   -1.0167655621
 H   -0.7338068785    1.9264652640    0.6958224603
 H   -2.2229159071   -0.0717042540    0.1114652448
 H   -1.5585522831   -1.3611682496   -0.8984303424
 H   -1.6128065148   -1.2463464804    2.1447673202
 H   -0.9466206787   -2.5986008545    1.2212625551
 H    0.6919704105   -0.2468652091    2.2067492217
 H    2.9457326694   -2.4223280387    1.4336619459
 H    2.0105707944   -2.6103970111   -1.2097732696
 H    0.2502860982   -2.7183423238   -0.7524264833
 H    1.8303637119   -0.1174042600   -1.4416352282