16

 C    0.0246305771    1.4202812383   -0.0862291423
 N    0.0226046767   -0.0291996499   -0.1070969926
 C   -1.0989704851   -0.6336198711    0.0068896645
 N   -2.3505560544   -0.0365946053    0.0849151156
 C   -1.1139875267   -2.1045956536    0.0046179305
 C   -0.0436263356   -2.9356015241    0.1554602480
 O   -0.4237817743   -4.2131640234    0.0946832171
 N   -1.8018119160   -4.2712950950   -0.1118922016
 C   -2.1921996660   -3.0226631168   -0.1624626268
 H    1.0559903185    1.7809815329   -0.0998286099
 H   -0.4873876996    1.8501067986   -0.9610593112
 H   -0.4560366407    1.8407271113    0.8144468151
 H   -2.3614495512    0.9482054142    0.3006114954
 H   -3.0722775011   -0.5544265310    0.5621965817
 H    1.0054585589   -2.7418593853    0.3077281293
 H   -3.2388491604   -2.8158863598   -0.3380790127