14

 C    1.0787999137    0.7350757598    0.2010088487
 C   -0.3143233347    0.3399465983   -0.2321988474
 O   -1.3205183948    0.8068147124    0.2441600290
 C   -0.3854761119   -0.6962427724   -1.3208482707
 N   -1.5329119448   -1.1134965384   -1.7944200685
 O   -1.1427860862   -2.0537437190   -2.7702853753
 C    0.1973369899   -2.0780549199   -2.7545682273
 N    0.8233497894   -2.8783054378   -3.6484010536
 N    0.7329130220   -1.2676547447   -1.8829421665
 H    1.6292453264   -0.1428563716    0.5541480137
 H    1.6430397054    1.1274559035   -0.6512399669
 H    1.0102076339    1.4845395594    0.9895937873
 H    0.2889038627   -3.6323508473   -4.0484710346
 H    1.7959686590   -3.0640937923   -3.4660869978