23

 C    0.0300499068    1.4653262559   -0.1724812725
 C    0.0315138661    0.0095374986   -0.2125770470
 C    0.0438704467   -1.1943653628   -0.2475644701
 C    0.0257648974   -2.6538349826   -0.2782749908
 C   -1.3199939977   -3.2352948270    0.1916997037
 C   -2.4751393662   -3.0344895193   -0.8307433783
 C   -2.2743357391   -4.4974826731   -1.3095484611
 C   -1.4839946877   -4.7820233864   -0.0016382017
 C   -0.2723069238   -5.7024567873   -0.0431694947
 H    0.8378924353    1.8486017657    0.4610862909
 H    0.1641435107    1.8935002058   -1.1722766005
 H   -0.9137334382    1.8527790429    0.2275641608
 H    0.2467397563   -2.9979868276   -1.2977239644
 H    0.8345532978   -3.0453916887    0.3527239654
 H   -1.5165399294   -2.8708262909    1.2038906443
 H   -3.4400442991   -2.8912325298   -0.3371390152
 H   -2.3417582846   -2.2360347557   -1.5647859046
 H   -3.1671411008   -5.0986242544   -1.4996583155
 H   -1.6303329790   -4.5568287184   -2.1931637546
 H   -2.1804299577   -5.1452105121    0.7630427410
 H    0.4516546240   -5.3916085297   -0.8037179823
 H    0.2472195902   -5.7305180100    0.9215551096
 H   -0.5762009981   -6.7277470632   -0.2823827424