21

 C   -0.1180256073    1.4434649372   -0.1410244157
 C    0.0125587675   -0.0568717279    0.0652921474
 O    0.7096765942   -0.6047584370   -1.0638020044
 C    1.3162108216   -1.8278810176   -0.6799144446
 C    1.6582734094   -1.6636344884    0.7919533237
 O    1.9644214749   -2.7904079804    1.5486312510
 C    2.3081897072   -0.3718970542    1.1725182235
 C    0.7977525097   -0.5168962787    1.2891511586
 C    0.1332295813   -0.5318876739    2.6411705351
 H    0.8659382345    1.9208184649   -0.1450262296
 H   -0.6082256831    1.6538261484   -1.0958189270
 H   -0.7186527816    1.8879992233    0.6587377858
 H   -0.9971192168   -0.5033883564    0.1248349366
 H    0.6258535642   -2.6833757250   -0.8011062585
 H    2.1817367285   -1.9926822290   -1.3300046487
 H    1.1967321441   -3.3743717450    1.5451820890
 H    2.8602075399   -0.3789635559    2.1059356252
 H    2.7282392253    0.2521585997    0.3898808993
 H    0.7191454822   -1.1271727204    3.3481325989
 H    0.0283719834    0.4766078402    3.0565195658
 H   -0.8705848392   -0.9708838138    2.5849062188