12

 N   -0.1102497542    1.3303552550   -0.0423816799
 C   -0.0057986811    0.0665019881    0.0283969359
 N   -1.0733102818   -0.8029974848    0.1401488230
 C   -0.6747226852   -2.1852593798   -0.0291221804
 C    0.8563299699   -2.1020064237   -0.0036558734
 O    1.6480442976   -3.0095775548   -0.0118531853
 N    1.1386205280   -0.7515749516    0.0217580084
 H    0.7979839334    1.7823153884   -0.1069436105
 H   -1.9756046102   -0.4628276956   -0.1472503157
 H   -1.0266156714   -2.8373356570    0.7774819738
 H   -0.9922440639   -2.6255207852   -0.9842096532
 H    2.0794357288   -0.3926854691    0.0370331473