17

 C   -0.1483284521    1.5323724120   -0.1333651692
 C    0.0129370747    0.0368973994   -0.0089900800
 O    1.0880246675   -0.5171009488    0.0379340578
 C   -1.2743296530   -0.7786813904    0.0611775948
 N   -1.0562843836   -2.2183828925    0.2895918174
 C   -1.4135057553   -2.1341602761    1.6361986104
 N   -1.2521362848   -2.7978189941    2.6979897680
 C   -2.0033824770   -0.7374463171    1.4629234102
 O   -1.5833625149    0.2122372979    2.4019894576
 H    0.8221309624    2.0015351546   -0.2988413083
 H   -0.8334435078    1.7876571548   -0.9489104814
 H   -0.5918036859    1.9058811447    0.7962792103
 H   -1.9108640862   -0.5522231876   -0.8015126140
 H   -0.1881612664   -2.6486566056   -0.0102806403
 H   -0.7053674193   -3.6476340576    2.5520130693
 H   -3.0930425119   -0.7126509689    1.3542354102
 H   -1.1667650365   -0.2781224047    3.1228214371