18

 C    0.0141262153    1.5258941067    0.0136383814
 N    1.2650477603    0.7084943417    0.0645929390
 C   -0.0291147702    0.0587457133    0.0010396755
 C   -0.5850433663   -1.0118746004    0.9345780993
 C   -1.8286063011   -1.1366999620   -0.0203756100
 C   -2.1948815852   -2.6146067208   -0.0568370925
 O   -0.8900129396   -3.2182944498   -0.0808517120
 C   -0.0371043754   -2.0930250553   -0.0534667882
 C   -0.5955751997   -0.9619327739   -0.9813772615
 H   -0.1938079433    2.0848531098    0.9221898222
 H   -0.2146017355    2.0599047079   -0.9057522886
 H    1.7146076030    0.7107156170   -0.8485515319
 H   -0.5822352049   -1.0420924160    2.0234036339
 H   -2.6182385043   -0.3867249503    0.0015787132
 H   -2.7474135940   -2.9469459035    0.8306725284
 H   -2.7590129330   -2.9020031161   -0.9527414635
 H    1.0091915122   -2.3908170898   -0.0631321209
 H   -0.6083443386   -0.9361303085   -2.0718265839