17

 C   -0.1534764789    1.5719941407    0.1444665359
 C    0.1988383022    0.0979880639   -0.0456100777
 C    1.2517541686   -0.2503432920   -1.1142856236
 N    1.8607229210   -1.5357978189   -0.7135426074
 C    1.9090101365   -1.5293392691    0.7496797939
 C    3.2099784832   -1.0617665415    1.2476931696
 N    4.2222152842   -0.6660083157    1.6398842175
 C    0.7806698904   -0.5407239497    1.2174110443
 O    0.4515764961   -0.3502696210    2.3526862485
 H    0.7489285415    2.1698786749    0.3073312472
 H   -0.6705174806    1.9685450511   -0.7337241972
 H   -0.8008052649    1.6961918964    1.0162951835
 H   -0.7175442364   -0.4723847140   -0.2631636628
 H    0.8416827270   -0.3324816856   -2.1223278553
 H    2.0346159119    0.5180649454   -1.1372228953
 H    1.2768893012   -2.3059814862   -1.0192872236
 H    1.7163462471   -2.5204129987    1.1712526625