16

 O    0.4295406312    0.3764877829    0.9776125181
 C   -0.0701095043    0.1705331206   -0.3299851142
 C   -1.4672417646   -0.5005388271   -0.3647260435
 O   -1.9697234776   -0.4391355433   -1.6711994181
 C   -1.4075225339   -1.9509037360    0.1049132017
 O   -1.6427101763   -2.8416934596   -0.6918639988
 C   -1.0678415197   -2.2907410857    1.5388548864
 O   -1.0241066807   -3.6718772632    1.7496183192
 H   -0.0615914083    1.0997787532    1.3805441777
 H   -0.1550024334    1.1057103954   -0.8973769884
 H    0.6540140429   -0.4655798384   -0.8486072979
 H   -2.1257879312    0.0571701672    0.3227804146
 H   -2.0560544154   -1.3615648886   -1.9609579831
 H   -0.1135505658   -1.8072650845    1.7920620817
 H   -1.8278184872   -1.8087761199    2.1791604867
 H   -1.2916682159   -4.0751827930    0.9104196381