17

 C    0.4636786577    1.4204862756   -0.0261604301
 C    0.1681913556   -0.0417076595   -0.0528907244
 C    0.0231522548   -0.9555328834   -1.0714145344
 C    0.1101969478   -0.7572776833   -2.5647430181
 C    1.2706406106    0.0046528416   -3.0219254637
 C    2.2177372483    0.6355474481   -3.4100637313
 N   -0.2734230348   -2.2052777075   -0.5678651529
 C   -0.3086321552   -2.0607648021    0.7347733935
 N   -0.0499724385   -0.7737475912    1.0992999148
 H    1.2728962319    1.6575099841    0.6751279220
 H    0.7794991552    1.7533888499   -1.0160447474
 H   -0.4113874762    2.0133698852    0.2689544124
 H    0.1266437525   -1.7555290055   -3.0157115186
 H   -0.8016493194   -0.2731262126   -2.9425861380
 H    3.0615246074    1.1803134673   -3.7540306302
 H   -0.5089063488   -2.8384658620    1.4565156103
 H   -0.0052918791   -0.4155471949    2.0390042560