15

 C    0.0077820004    1.3927262854    0.0531354079
 O    0.0184645259   -0.0329999267    0.0261464244
 C    0.6327385671   -0.6308992349    1.0517957298
 N    1.2055444822    0.0266447150    2.0473104158
 N    1.6942517614   -0.9584238499    2.8469412320
 C    1.4439223981   -2.1966868877    2.3812365737
 C    0.7427903068   -2.0493978462    1.1933368891
 C    0.2551827303   -3.0527591052    0.3315418751
 C   -0.1634755593   -3.9061870962   -0.4080258206
 H    1.0274607154    1.7912198412    0.0456632555
 H   -0.5262982735    1.7036352836   -0.8453655417
 H   -0.5051436074    1.7626892149    0.9467935944
 H    2.1826288596   -0.7007718687    3.6861705289
 H    1.7651494721   -3.0861325622    2.8989884368
 H   -0.5352532992   -4.6527999624   -1.0641743712