21

 C   -0.1489103397    1.5583202124    0.0740604902
 C   -0.1016760924    0.0319088263   -0.0333242436
 C    0.7235378729   -0.4899220661   -1.2264612426
 C    2.2076248443   -0.1634519437   -1.1768467044
 C    2.9943917178   -1.2418616652   -1.2725995312
 C    4.4883663296   -1.3033408859   -1.2615776543
 C    2.1336663219   -2.4678677104   -1.3609576833
 O    1.3141037077   -2.6724146035   -0.1837111817
 C    0.7365131724   -2.0170179419   -1.3175949272
 H    0.8446447141    1.9841612504    0.2466411322
 H   -0.5500708199    2.0107377056   -0.8401628785
 H   -0.7879315845    1.8706697786    0.9058265697
 H    0.3110556080   -0.4022733351    0.8831952260
 H   -1.1247752498   -0.3541651465   -0.1277129521
 H    0.2826118227   -0.0857422739   -2.1509508213
 H    2.5732778519    0.8486222430   -1.0384209701
 H    4.9300690000   -0.3049484425   -1.2034466169
 H    4.8542815516   -1.8896520135   -0.4094236353
 H    4.8741632968   -1.7914159403   -2.1657009582
 H    2.4690095289   -3.3790128222   -1.8493245887
 H   -0.0830754542   -2.5506541157   -1.7926442088