16

 O    0.2099447921    1.3719540557   -0.1577525880
 C    0.0753664999   -0.0195833453    0.0921266632
 C   -1.3434901487   -0.4739597782    0.1107097565
 C   -2.0192947413   -1.8449507810    0.0233225893
 C   -2.8488819312   -1.5686303940    1.2778333427
 C   -2.6402901107   -0.0739743170    0.9259578126
 O   -3.3920325440    0.0962347526   -0.3104883713
 C   -2.3892363275   -0.6993186821   -0.9357847542
 H   -0.2968547935    1.5715601844   -0.9521443541
 H    0.6318923213   -0.6232650585   -0.6448522907
 H    0.5514956987   -0.1891466804    1.0648185125
 H   -1.5891082025   -2.7766963692   -0.3221997152
 H   -3.8853058837   -1.9171376132    1.3209940076
 H   -2.3076835743   -1.8511685310    2.1842435004
 H   -2.7763153213    0.7405793964    1.6334267474
 H   -2.3537178536   -0.7574030191   -2.0163240989