14

 C   -0.0066746924    1.4904967795    0.0619037280
 C   -0.0046175872    0.0023716634   -0.0309101114
 N   -0.0648178698   -0.6988226016   -1.1570868501
 C   -0.0379482901   -2.0071437719   -0.7823498894
 C    0.0405293010   -2.1282568222    0.5928414228
 N    0.0603117305   -0.8168137471    1.0491464345
 C    0.0956655128   -3.2794233984    1.4712457091
 O    0.0800675042   -4.4338750800    1.1015434599
 H    0.9022844896    1.8674242888    0.5439128978
 H   -0.0608401878    1.9015222239   -0.9463843591
 H   -0.8645929962    1.8592308003    0.6352207631
 H   -0.0748481558   -2.8118586086   -1.5004025279
 H    0.1135812255   -0.5300905657    2.0134497298
 H    0.1560364658   -3.0251150505    2.5568197530