21

 C   -0.0330352956    1.5747812629   -0.0354243922
 C    0.0165586465    0.0449234638   -0.0220147831
 C   -1.3733456551   -0.5963129638    0.0981716107
 C   -1.3451403912   -2.0995226199    0.1103469218
 C   -0.6767292563   -3.0922297375    1.0958664882
 C   -1.3508680933   -4.0305796747    0.0730724389
 C   -2.5580806853   -3.0659491075   -0.1210511781
 O   -2.4636732883   -3.0309996494   -1.5773604820
 C   -1.0814546171   -3.0537945469   -1.1095876374
 H    0.9687807792    2.0061571590   -0.1252144856
 H   -0.6318770689    1.9435779062   -0.8755104343
 H   -0.4822600466    1.9638332729    0.8851637552
 H    0.5007842810   -0.3157453541   -0.9385626142
 H    0.6468214428   -0.2949986227    0.8096471864
 H   -1.8642954168   -0.2350482769    1.0125269916
 H   -2.0044097741   -0.2761365800   -0.7417190947
 H    0.4168576117   -3.1014791698    1.1192096380
 H   -1.0768811780   -3.1111237220    2.1141711773
 H   -1.3729913317   -5.1187183745    0.0245921207
 H   -3.5457288926   -3.0731711207    0.3410653636
 H   -0.2785538403   -3.0499807145   -1.8471784608