18

 C    0.1501026652    1.4858865516   -0.0046032178
 C   -0.0130914895   -0.0593589117   -0.0337080226
 N   -1.4173416558   -0.4830905882   -0.0083418160
 C    0.6657846312   -0.6256564617   -1.2576373167
 C    1.9268513415   -1.0318735690   -1.2278004224
 C    2.7246117290   -0.9881671573    0.0354153276
 O    1.9388736037   -0.9300959232    1.2351823532
 C    0.6360591731   -0.5936731232    1.2531381665
 O    0.0247353595   -0.6728101029    2.2866841663
 H    1.2016469924    1.7905651035    0.0106456720
 H   -0.3094533456    1.9181117378   -0.9000185106
 H   -0.3471294539    1.8948750596    0.8797817109
 H   -1.7380204150   -0.4393702775    0.9553862432
 H   -1.9806998935    0.1682144566   -0.5470971800
 H    0.0686443684   -0.6705424133   -2.1633271310
 H    2.4339283621   -1.4124545907   -2.1090360822
 H    3.3408373493   -1.8879275978    0.1394657028
 H    3.4117466279   -0.1297013726    0.0447288669