14

 C    0.0876301576    1.4926926467   -0.1541950861
 C    0.0832448806    0.0134847680    0.2108036004
 O    0.0892842599   -0.3937274945    1.3433416086
 N    0.0711273551   -0.8081698967   -0.9219239633
 C    0.0634377908   -2.2056194564   -0.9969847567
 N    0.0669766464   -2.9624465149    0.0287706442
 C    0.0511677638   -2.6771302614   -2.3613551114
 C    0.0409037414   -3.0921295881   -3.4906302562
 H    0.9682295827    1.7461117441   -0.7542137111
 H   -0.8018403882    1.7551788603   -0.7370188278
 H    0.0994186145    2.0745912233    0.7662988692
 H    0.0671847095   -0.3409124249   -1.8146731523
 H    0.0597953987   -3.9366403498   -0.2701676499
 H    0.0317449273   -3.4733453658   -4.4826899474