19

 N   -0.0507813362    1.3117088938    0.6843028247
 C    0.0477332875    0.0892427852    0.3693195416
 C   -1.1172864202   -0.7016983531   -0.1693904173
 C   -1.3009866801   -2.0469210447    0.5682236003
 C    0.0564658343   -2.6767116475    0.8863546629
 C    0.3112429246   -3.2847890051    2.2174383252
 N    0.2075052065   -4.1307224233    1.0112771907
 C    1.1982466060   -1.9936142720    0.1650013026
 O    1.2238287381   -0.5959480619    0.4867611769
 H    0.8531243240    1.6609864294    1.0112553513
 H   -2.0095529829   -0.0796188910   -0.1069547904
 H   -0.9313114161   -0.8955556175   -1.2335171417
 H   -1.8699902760   -1.8887471558    1.4893662325
 H   -1.8933096590   -2.7193120358   -0.0636778433
 H    1.3016758330   -3.2417971255    2.6630718725
 H   -0.5074143746   -3.2960205722    2.9323487606
 H   -0.7061361207   -4.5774178014    0.9778807154
 H    2.1612809509   -2.3959969826    0.4822230685
 H    1.1153750010   -2.1306555690   -0.9218434829