21

 C   -0.3077874705    1.3853370181    0.0773395373
 N   -0.0480063735   -0.0363086441    0.2413218023
 C    1.2476562864   -0.5487862672   -0.1924317835
 C    0.8958741405   -0.5197113607    1.2605669377
 C    1.6358822500    0.4497174658    2.1681560406
 C    0.4383365622   -1.8098632205    1.9266250956
 C   -0.6362487101   -1.5967797655    2.9974902292
 O   -1.0814163914   -2.8161942971    3.5725257702
 H    0.5799523945    2.0309046187    0.1594516349
 H   -0.7454727011    1.5472274707   -0.9132973690
 H   -1.0387585526    1.7121065322    0.8243262150
 H    1.2340870936   -1.4805441509   -0.7540101447
 H    1.9891039936    0.1731488440   -0.5356182184
 H    2.0573236943    1.2947860998    1.6203142257
 H    0.9832323183    0.8503771714    2.9514203506
 H    2.4652012869   -0.0653665380    2.6644996494
 H    0.0268700670   -2.4688216546    1.1523397361
 H    1.2948772066   -2.3292686459    2.3743150257
 H   -0.2405850124   -1.0118483533    3.8341819455
 H   -1.4714926027   -1.0264382221    2.5627799817
 H   -1.4911601396   -3.3343368713    2.8723938582