16

 C    0.0595962079    1.4881234864   -0.0301206773
 C   -0.0180473196   -0.0122463433   -0.0158370154
 C   -1.2065277453   -0.6873367809    0.0065719275
 C   -2.5516299111   -0.0233202703    0.0195442486
 C   -1.1646180069   -2.1392780787    0.0181993620
 O   -2.1019265188   -2.9163109509    0.0389543716
 N    0.1551659436   -2.6133421681    0.0051274408
 N    1.2941008683   -1.9118740852   -0.0167989863
 N    1.2197818916   -0.6410785515   -0.0273552671
 H    1.1032845827    1.8027229241   -0.0530935909
 H   -0.4560611775    1.9018726780   -0.9037705935
 H   -0.4211063199    1.9165816858    0.8563812124
 H   -2.6959921117    0.6014464996   -0.8693484568
 H   -3.3330664377   -0.7835305472    0.0451734733
 H   -2.6649857756    0.6305319129    0.8917090840
 H    0.2851370401   -3.6176767905    0.0126344670