23

 C   -0.0018422957    1.5585589701    0.1107331544
 C   -0.0128073669    0.0368869996   -0.0571946338
 C   -1.4120963145   -0.5713606605    0.0773088343
 C   -1.4263955361   -2.0980071571   -0.0977910379
 C   -2.8065030170   -2.6691069753   -0.0140225878
 C   -3.5592889007   -3.0563285164    1.2237229880
 C   -3.3878414179   -4.0636140020    0.0998307817
 C   -4.2761081082   -3.6490536454   -1.0641352580
 O   -3.7389827881   -2.2992528833   -1.0472999603
 H    1.0086599750    1.9658676823    0.0055326139
 H   -0.6365609014    2.0428941091   -0.6395364571
 H   -0.3776773543    1.8510397447    1.0976358739
 H    0.4030694935   -0.2265101247   -1.0388908070
 H    0.6552303318   -0.4195777717    0.6858446950
 H   -1.8322423525   -0.3170446365    1.0594728036
 H   -2.0822022416   -0.1246693275   -0.6675083447
 H   -0.9882774924   -2.3600815998   -1.0696525435
 H   -0.8031816645   -2.5708813949    0.6716308558
 H   -2.9505139570   -3.2543660641    2.1008418751
 H   -4.5327496082   -2.6171398228    1.4268403275
 H   -2.9067826690   -5.0238120427    0.2300068771
 H   -4.0304974632   -4.1485839761   -2.0084738073
 H   -5.3620842612   -3.6665240149   -0.9095737829