19

 C    0.0132729589    1.3072419469   -0.2088699518
 O   -0.0397703225   -0.0803978680    0.0280019904
 C    0.6390312464   -0.5007106194    1.2033698347
 C    0.0094497679   -1.8354116159    1.6261826919
 C    0.8427480968   -2.5691072149    2.6700463857
 O    1.6930309459   -3.6162188475    2.1879562593
 C    2.3020840172   -2.3977818058    2.6627146279
 C    2.8929896522   -1.4970196071    1.6384479768
 C    2.1310038150   -0.6304328900    0.9723308869
 H    1.0392338599    1.6735022341   -0.3645421261
 H   -0.5633868344    1.5010974361   -1.1165691665
 H   -0.4293371432    1.8774146817    0.6231989375
 H    0.4689469788    0.2488716874    1.9975043742
 H   -1.0056828730   -1.6581884710    1.9924366779
 H   -0.0662504894   -2.4644925028    0.7344240496
 H    0.3497520322   -2.8051970513    3.6123694369
 H    2.8614822424   -2.5239233367    3.5893818187
 H    3.9598668210   -1.5706947437    1.4468426255
 H    2.5649543778    0.0247485179    0.2219519007