17

 C    0.0305970099    1.5280573555    0.0541587086
 C   -0.0177768859    0.0117622274   -0.0126423734
 C    0.7709946726   -0.6524631986   -1.1679379033
 N    1.6169025809   -1.6694747696   -0.5301277494
 C    1.4501205568   -1.5179035265    0.7130589819
 O    0.6108749672   -0.5402647740    1.1650317767
 O   -1.3531240528   -0.4692554328   -0.1025060437
 C   -2.1676116295   -0.3123352830    0.9708042949
 N   -3.3976523107   -0.5614796874    0.8477964636
 H    1.0676035684    1.8692999915    0.0930021321
 H   -0.4509243542    1.9479585298   -0.8328823897
 H   -0.4900738280    1.9001943460    0.9403197556
 H    0.0803171954   -1.1092589950   -1.8800975055
 H    1.3976923225    0.0661844414   -1.7056748322
 H    1.9310632339   -2.0912377207    1.4970444894
 H   -1.6472030030   -0.0026877501    1.8817338206
 H   -3.8670317536   -0.4292151439    1.7417036739