14

 O   -0.1931772972    1.3299522635   -0.1544429793
 N    0.0172830263   -0.0536317587   -0.1595590836
 C   -1.0774989193   -0.6745740914   -0.0041213942
 C   -2.4606586238   -0.0881117824    0.1565249296
 O   -3.3725006466   -1.1934979872    0.0020922659
 C   -2.7117896117   -2.3577076022   -0.1837781479
 O   -3.2418555605   -3.3847465710   -0.4955527538
 C   -1.2057898593   -2.1710950081    0.0412818856
 O   -0.4446207963   -2.8673066922   -0.9049869002
 H    0.6906639568    1.6771400945   -0.3187153875
 H   -2.6127867041    0.3673188268    1.1407650651
 H   -2.6786127807    0.6619780718   -0.6083416884
 H   -0.9911775237   -2.5217260826    1.0683623326
 H   -0.9402893999   -3.6743866907   -1.1033307540