22

 C   -0.1518994721    1.5457473339    0.0218438987
 C    0.0103553198    0.0367145401    0.0067993464
 O   -1.3030872948   -0.5368889734   -0.0239516750
 C   -1.3822272696   -1.8863906108   -0.0248020988
 N   -0.3396087434   -2.6066168871   -0.0242993236
 C   -0.4721693910   -4.0592734800   -0.0168949873
 C   -1.8515588046   -4.5964583497    0.3871187478
 C   -2.9482049025   -3.8247770757   -0.3511311447
 C   -2.8274790222   -2.3329829244   -0.0190979639
 H    0.8305202705    2.0269198812    0.0467836874
 H   -0.6818509076    1.8907747350   -0.8707811725
 H   -0.7165806620    1.8693341346    0.9010962968
 H    0.5745922224   -0.3061179358   -0.8671640821
 H    0.5428268601   -0.3279761046    0.8920346794
 H   -0.2122237646   -4.4251376503   -1.0213877932
 H    0.2991885062   -4.4609668722    0.6510998449
 H   -1.9085511961   -5.6694675479    0.1743753297
 H   -1.9889576784   -4.4772521641    1.4700043986
 H   -2.8317874950   -3.9717246256   -1.4325857931
 H   -3.9446758870   -4.1929148481   -0.0878663559
 H   -3.2432548870   -2.1215161815    0.9748138642
 H   -3.3894568212   -1.7077576538   -0.7197995937