19

 O    0.3100930881    1.2831917296   -0.4484512666
 C    0.0548345463   -0.0566445238   -0.0476390443
 C    0.6425209667   -0.4530607463    1.3017164057
 C   -0.1031111595   -0.0203722540    2.5492745868
 C   -1.3929521146    0.7708511891    2.3783584258
 C   -2.1624541422    0.0020290986    1.3126588061
 C   -1.6029641954   -1.4044703297    1.2065110162
 C   -0.2947716990   -1.4187006736    1.9920666289
 C   -1.4185743863   -0.4306414083    0.0640490832
 H   -0.0802367709    1.8640957886    0.2121127423
 H    0.5199843920   -0.6642029159   -0.8332619300
 H    1.7184901169   -0.5653367218    1.3753521958
 H    0.4874577304    0.1366678152    3.4453192666
 H   -1.9576337095    0.7709529571    3.3187277584
 H   -1.2242012297    1.8238428670    2.1164109127
 H   -3.2282694209    0.1770874506    1.2140606216
 H   -2.2267065440   -2.2859590790    1.1396280573
 H    0.0432170270   -2.3106506982    2.5026927055
 H   -1.9908782154   -0.5249902952   -0.8520864622