19

 C   -0.1943024637    1.5844966663   -0.0247947662
 C   -0.0118815051    0.0686432608    0.0016224031
 C   -1.3577189868   -0.6385468472   -0.1958350731
 C    1.0958805014   -0.5793099764   -0.8876113050
 N    1.6736937030   -1.3439234824    0.2843322730
 C    2.2025729047   -0.3337729105    1.2344186492
 C    2.8760924615    0.8640990340    0.8013679966
 N    3.4558650427    1.8071352014    0.4645152849
 C    0.7344959804   -0.5703262008    1.1836007432
 H    0.7469889080    2.1234135638    0.0946278623
 H   -0.6377909436    1.8937517467   -0.9779803309
 H   -0.8746016073    1.9043761026    0.7724497207
 H   -1.7897486827   -0.3723045644   -1.1662593831
 H   -1.2489989528   -1.7271412121   -0.1591102259
 H   -2.0717556333   -0.3424806681    0.5807141262
 H    0.7194360998   -1.2837897747   -1.6307974399
 H    1.8113221635    0.0985425540   -1.3607903870
 H    2.7106502074   -0.8130679146    2.0676942494
 H    0.2495852731   -1.0421047884    2.0350437425