17

 C    0.0240416645    1.3934321772   -0.2371194218
 C    1.4999390266    1.5427006102    0.1752973276
 C    1.3414863801    0.1173174618    0.7216833447
 O   -0.0064426126    0.0186067203    0.2175954446
 C    2.2079301421   -1.1014323823    0.4581359747
 C    3.1249077516   -1.1822264123    1.6857973189
 O    2.8781390449   -0.0329597726    2.5059730751
 C    1.4691186778   -0.2559355025    2.2229444323
 C    1.7517258803   -1.7382684055    1.7805276179
 H   -0.6876609266    2.0188386923    0.3152160442
 H   -0.1932822276    1.4676397422   -1.3082677601
 H    2.2025232515    1.6325606047   -0.6551946865
 H    1.7311996351    2.3022195194    0.9238756921
 H    2.4265908023   -1.5831113579   -0.4860764313
 H    4.1060283899   -1.6380308986    1.6938511171
 H    0.7860730430    0.1208520790    2.9814168200
 H    1.3358316071   -2.7043369955    2.0246864205