23

 C   -0.1059357061    1.5641469912   -0.0038762032
 C   -0.0294205056    0.0323553295    0.0034657125
 C   -1.4517477046   -0.4917747252   -0.2176792410
 C    1.1583003820   -0.6682256312   -0.7711313808
 C    2.1285000471   -0.1472421709    0.3364129638
 C    0.8696951467   -0.6736850012    1.0964226956
 C    0.9721790228   -1.8917331223    0.1526296038
 C    0.2709616856   -3.1995713275    0.0399111222
 C    1.7769955541   -3.1425126112    0.2728843683
 H    0.8463922519    2.0729400838    0.1442391954
 H   -0.5192433097    1.9130541688   -0.9574161907
 H   -0.7872934362    1.9080542152    0.7830734126
 H   -1.8482213594   -0.1158357519   -1.1684184896
 H   -1.5225858580   -1.5772890195   -0.2319775696
 H   -2.1167004499   -0.1211529348    0.5715531945
 H    1.3289520624   -0.6767108403   -1.8504535247
 H    3.0389563427   -0.7327312871    0.4753965775
 H    2.3424151212    0.9189238001    0.3726328150
 H    0.7065522584   -0.6883888966    2.1768387536
 H   -0.3552398279   -3.5319819317    0.8628865944
 H   -0.0773981522   -3.5258485648   -0.9358448595
 H    2.4250468774   -3.4309965100   -0.5494048598
 H    2.1466134873   -3.4370800422    1.2506233996