16

 O   -0.0711318690    1.4266491107   -0.0012951230
 C    0.0367726748    0.0172233916   -0.0616932078
 C   -1.3856826178   -0.5319194168    0.0632715512
 N   -1.4262327647   -1.9806108610    0.0158793619
 C   -1.3305186378   -2.7755035387   -1.1081713995
 C   -1.3551119105   -4.0667976478   -0.6518408954
 N   -1.4604022445   -4.0934741565    0.7193073098
 C   -1.4973532171   -2.8319149207    1.0817267499
 H    0.8103468328    1.8039935720   -0.0697041690
 H    0.4791728895   -0.3220726271   -1.0108029642
 H    0.6540309383   -0.3874439129    0.7548304592
 H   -1.8169372511   -0.2016714927    1.0120095377
 H   -2.0052950435   -0.1205041005   -0.7390289082
 H   -1.2676616296   -2.3495734859   -2.0962684917
 H   -1.3107198327   -4.9765585027   -1.2312099006
 H   -1.5837046471   -2.4627806609    2.0937236296