16

 O   -0.0340249240    0.0037872869    0.2259715360
 C   -0.0623801479    1.1875620865    0.0557127424
 C   -1.3072612596    2.0666600273   -0.1178104651
 C   -0.8186333577    3.5213675759    0.0242255801
 C    0.7085090634    3.4051140710    0.0054995873
 C    1.4149889456    2.8060714951    1.1821376563
 C    0.7220747144    2.5554029750    2.4130486494
 C    0.1522688879    2.3547450230    3.4530034720
 N    1.1245629288    2.0019155923   -0.0484061175
 H   -1.7297568904    1.8702046662   -1.1089781355
 H   -2.0559178443    1.7660974511    0.6172237597
 H   -1.1543036308    4.1501716781   -0.8024179024
 H   -1.1684314793    3.9804408262    0.9528681006
 H    1.2737747563    4.0859515033   -0.6241975220
 H    2.4773786981    3.0081173709    1.2941812509
 H   -0.3433422605    2.1656651312    4.3734044179