19

 C    0.0635451036   -1.2580150472   -0.1649488703
 C   -0.0245239082   -0.0599220032   -0.0626625554
 C   -0.0617206502    1.3617890707    0.0602597391
 C   -1.2582920921    1.9774357469    0.0632635464
 C   -1.5958111846    3.4413063624    0.1236535152
 C   -0.4492578949    4.4242214218   -0.1645575047
 C    0.6589132528    4.3378822941    0.8528262781
 C    1.4267350816    3.2613789741    0.9995283189
 C    1.3195427999    2.0139731537    0.1536888704
 H    0.1202488764   -2.3140571531   -0.2568404442
 H   -2.1275690735    1.3257782310    0.0044296745
 H   -2.4110614370    3.6222070360   -0.5906033279
 H   -2.0267642039    3.6643512056    1.1115268590
 H   -0.0547955213    4.2163008193   -1.1687786744
 H   -0.8558466115    5.4396629929   -0.1970286329
 H    0.8131259659    5.1942902138    1.5043967984
 H    2.2038250010    3.2595119571    1.7593842079
 H    2.0093007294    1.2582076275    0.5372351978
 H    1.6709978368    2.2266621465   -0.8683279759