18

 C   -0.1715116592    1.5874316516   -0.2029534954
 C   -0.0604124868    0.0754150369   -0.0109378012
 C    0.8590829223   -0.6050054505   -1.1148658503
 C    2.0633711128   -0.5483311127   -0.1017527325
 C    0.9783433088   -0.4537214445    0.9420675087
 C    0.4214141743   -1.1745696155    1.9181940399
 C   -1.0666174881   -1.1131637716    1.7452537649
 O   -1.9390564112   -1.5375966302    2.4687774340
 N   -1.2735550587   -0.5204324515    0.4873895570
 H    0.7903069763    2.0239982217   -0.4866389066
 H   -0.8852376541    1.8156386249   -1.0027310376
 H   -0.5144599975    2.0711603512    0.7161689873
 H    0.5486413057   -1.6319395821   -1.3085478920
 H    0.9734158394   -0.0540603396   -2.0515054533
 H    2.7299583786   -1.4096230955   -0.0485569529
 H    2.6567541703    0.3621113758   -0.2232560679
 H    0.8860577473   -1.8342441398    2.6374855668
 H   -2.1845691802   -0.1286864885    0.2985288610