25

 C    0.2342537062    1.5101679706    0.2268365385
 C   -0.1503190817    0.0640412816   -0.1155631109
 C    0.5894720333   -0.4882033195   -1.3165683186
 C    1.9933119485   -1.0352518290   -1.1468889203
 C    0.8671810200   -1.9710741641   -1.5333632302
 C    0.4358438987   -3.0643233975   -0.5837684923
 C    0.7257727781   -2.2561805321   -3.0263763468
 C    0.8209381454   -0.8819331648   -3.7213809349
 C    0.2825565506    0.1255118057   -2.6822838007
 H    1.3062389757    1.5903542475    0.4363163074
 H    0.0067022641    2.1915679418   -0.5992082556
 H   -0.3093713453    1.8644065433    1.1083900512
 H    0.0388279285   -0.5692432220    0.7589005420
 H   -1.2321952605    0.0117460955   -0.3018784554
 H    2.7673427246   -0.7858497135   -1.8666490463
 H    2.3612143689   -1.1173760042   -0.1281304455
 H    0.5219262797   -2.7588708894    0.4630020584
 H   -0.6053284342   -3.3601540816   -0.7618725294
 H    1.0566140724   -3.9593020969   -0.7125067470
 H    1.4751113399   -2.9655571030   -3.3973856709
 H   -0.2577124262   -2.7107867099   -3.2060634417
 H    1.8627063174   -0.6524103336   -3.9662698928
 H    0.2658509629   -0.8483279527   -4.6625773655
 H   -0.8061541905    0.2327510629   -2.7812460739
 H    0.7136815834    1.1240732250   -2.8155047588