17

 C   -0.2141493430    1.5100063916    0.0094506629
 C    0.0246168444   -0.0005270328    0.0012056131
 C    0.8260991121   -0.4488454230   -1.2120162682
 O    1.0944376768   -1.8508289660   -1.1792156161
 C    1.4614996812   -2.4510653297   -0.0274084442
 N    2.0154711916   -3.5838325894   -0.0848949934
 O    1.1357516557   -1.8531992960    1.1526195693
 C    0.8134888763   -0.4595663029    1.2182928178
 H    0.7323264390    2.0620917011    0.0137172697
 H   -0.7801084593    1.8224827925   -0.8733979870
 H   -0.7825768916    1.8134704894    0.8939628574
 H   -0.9373628523   -0.5278823245   -0.0090113076
 H    0.2860464270   -0.2820691474   -2.1472338732
 H    1.7761186201    0.1043389832   -1.2653884786
 H    2.1795855491   -3.9258316860    0.8597112707
 H    1.7449157294    0.1198077517    1.3048533213
 H    0.2504266434   -0.3346126619    2.1469500263