13

 C   -0.2789271191    1.3950431021    0.0259731970
 O    0.1352299135    0.0434269608    0.1584129863
 C    0.7053407483   -0.5121321882   -0.9832462935
 C    1.4625566932   -1.7742249704   -0.5670551290
 O    2.0591141604   -2.4726398415   -1.3418319764
 C   -0.2963279339   -0.8761973082   -2.0895764725
 O   -1.4602980947   -0.5855323305   -2.0558965402
 H    0.5616916347    2.0351971019   -0.2821113013
 H   -1.0974720675    1.4970706681   -0.6925078642
 H   -0.6207058518    1.7134131399    1.0127428639
 H    1.4510708291    0.1563725900   -1.4571208580
 H    1.3916806100   -1.9831509995    0.5208240648
 H    0.1625950580   -1.4411830545   -2.9281583969