18

 C   -0.0999807772    1.5147016908    0.2774459096
 C    0.0000452886    0.0414098827    0.0338607298
 C    0.5702784925   -0.6310558788   -1.2189978561
 N    1.3525270965   -1.6050542587   -0.3922510722
 C    0.8184222052   -1.0396904377    0.8390973716
 C    1.5987707507   -0.8637380495    2.0521428227
 O    1.1722817755   -0.3180085323    3.0606075018
 C   -0.7190463972   -0.9767045748    0.8616884233
 O   -1.3443423297   -0.5804534940    2.0266300324
 H    0.8416538252    2.0282594933    0.0602342709
 H   -0.8763466623    1.9463727383   -0.3659757656
 H   -0.3804201922    1.7167412846    1.3132425594
 H   -0.1742675394   -1.0767990767   -1.8901964752
 H    1.2332462015    0.0138596063   -1.8051203297
 H    1.0776669354   -2.5732049950   -0.5440161664
 H    2.6310479801   -1.2670876850    2.0118336909
 H   -1.2375304891   -1.7990051143    0.3643985584
 H   -0.6485235642   -0.3698343891    2.6784075843