17

 C   -0.1220508195    1.6250287891   -0.0045860258
 C   -0.0496640855    0.1049111592   -0.0017375931
 C    1.1421029621   -0.5845782634   -0.7057315361
 C    2.0922224473   -0.3767036112    0.5175546685
 O    2.5040208451   -1.7722150532    0.6046329894
 C    1.0996095901   -1.8313220920    0.2604162353
 C    0.3975387563   -3.1251118043    0.0763843322
 O    0.9140419739   -4.2057068973    0.1934655133
 C    0.6856658863   -0.6028165055    1.1600344298
 H    0.8452788871    2.0783999532    0.2364871647
 H   -0.4307230436    2.0010425929   -0.9858029383
 H   -0.8504939760    1.9842685361    0.7301032443
 H   -1.0260091177   -0.3284376405   -0.2448240505
 H    1.4253183304   -0.6092326531   -1.7583781488
 H    2.8403360235    0.3903091552    0.7080632264
 H   -0.6787371201   -3.0089718342   -0.1864007429
 H    0.4510926405   -0.6482796709    2.2238900417