16

 O    0.0863587135    1.3719862064   -0.2933352250
 C    0.0628855987   -0.0188758649   -0.0171403542
 C   -1.3796313012   -0.5409619012    0.0656935732
 N   -2.1346579219   -0.2819325855   -1.1488996821
 C   -2.4371029729   -1.4340542846   -1.8371250553
 O   -2.9287535448   -1.5551911312   -2.9313552325
 N   -2.0632242081   -2.4876396876   -0.9802909434
 C   -1.4362859488   -2.0618140418    0.1757866402
 N   -0.9561452918   -2.7027265750    1.1608124517
 H   -0.1579588411    1.8428454877    0.5102890859
 H    0.5778794674   -0.5034026222   -0.8528636802
 H    0.5919821087   -0.2785836637    0.9078849676
 H   -1.8704353287   -0.0950739812    0.9404873862
 H   -2.0100183618    0.5805952060   -1.6543515938
 H   -2.2330949194   -3.4466457965   -1.2353731833
 H   -1.0695829577   -3.7116570246    1.0548408048