16

 O    1.7107859299    0.8107037219   -0.0052651028
 C    0.3479050941    0.5903926164    0.2363596533
 C   -0.2729210069   -0.1690326030   -0.9291406237
 O    0.3768014633   -0.4352611303   -1.9091080589
 C    0.1741966610   -0.1415183640    1.5576430060
 C   -1.1026077505   -0.7836898379    2.0185908353
 N   -0.0013664154   -1.5858827454    1.5311195427
 C    0.6982191076   -2.4821772765    2.3344953262
 O    0.1924520038   -3.2027674399    3.1558223683
 H    1.8811994383    0.4430024053   -0.8878246728
 H   -0.1913748361    1.5541589392    0.3072898914
 H   -1.3441000775   -0.4341558062   -0.8509815153
 H    0.8192336214    0.2597711272    2.3375132612
 H   -1.2976585881   -0.8109391882    3.0871763781
 H   -1.9906533178   -0.7589070718    1.3932650072
 H    1.7746986129   -2.4970300667    2.0824212038