20

 C    0.0600863796    1.3199080194   -0.2794734105
 O    0.0245566404   -0.0062411730    0.2243076128
 C   -1.2304871951   -0.5743814221    0.2076768433
 C   -1.8927195623   -1.0695068018   -1.0658545693
 C   -1.6108569542   -2.0364861166    0.0590012827
 C   -0.8099055329   -3.2948876092   -0.0661590823
 N   -2.7098810133   -1.9130453473    1.0562374174
 C   -2.0575135886   -1.5230105929    2.3211495490
 C   -2.2668503714   -0.4716438693    1.2985683230
 H    1.1036370234    1.6416486112   -0.2576671472
 H   -0.3125660533    1.3658585577   -1.3118892170
 H   -0.5358642007    2.0052270978    0.3394284487
 H   -2.9175622965   -0.8051525260   -1.3128337619
 H   -1.2175686622   -1.1550815576   -1.9125995218
 H    0.0524692589   -3.1367444550   -0.7199331508
 H   -0.4369689781   -3.6299946929    0.9074282028
 H   -1.4176162228   -4.1013780909   -0.4910919858
 H   -2.7350981002   -1.5397327540    3.1695495936
 H   -1.0490688546   -1.8722674060    2.5285400708
 H   -3.0043169960    0.3165746385    1.4164905425