19

 C   -0.0662470621    1.5126204497    0.0683754091
 C   -0.0022935252   -0.0071219265   -0.0322588866
 O   -1.2446039437   -0.5535366835   -0.3979545981
 C    1.1370873557   -0.5297639094   -0.9370627872
 O    1.5696289274    0.3746865542   -1.9219445361
 C    2.0152814245   -0.7638774012    0.3192637531
 C    0.7290600123   -0.7323974648    1.1858411852
 C    0.7655591102   -0.0200062059    2.5038489754
 O    0.0784310972   -0.2975825714    3.4559192213
 H    0.9066476808    1.9526571614    0.3017328517
 H   -0.3997302531    1.9231798342   -0.8873251167
 H   -0.7713925389    1.8157858764    0.8514784479
 H   -1.9348017414   -0.1299763653    0.1244805301
 H    0.8142846945   -1.4836486014   -1.3724275473
 H    2.0857016779   -0.1027966331   -2.5775415970
 H    2.6263141438   -1.6671546548    0.3598358212
 H    2.6496838502    0.1075695886    0.5116674646
 H    0.2730736387   -1.7153646207    1.3168982877
 H    1.4819576712    0.8344743233    2.5494548816