21

 C   -0.1415823709    1.6029938326    0.0281967214
 C   -0.0150784023    0.0675861660    0.0198362133
 C    0.7681918564   -0.4802349181    1.1725940977
 C    2.1198687692   -0.7779224864    1.2858491961
 C    3.1865006527   -0.6339097806    0.2430093801
 C    2.2617865880   -1.2373526882    2.6121379438
 N    1.1102267200   -1.2307818236    3.2760010630
 N    0.2098091289   -0.7619267341    2.3855949648
 C   -1.1805425642   -0.6667415217    2.7748828559
 H    0.8453771182    2.0739532931    0.0029268697
 H   -0.7094062349    1.9510609889   -0.8404245435
 H   -0.6525997796    1.9569734727    0.9290813920
 H   -1.0158080098   -0.3804496252   -0.0014194082
 H    0.4756620218   -0.2447972591   -0.9083765072
 H    3.6342082729    0.3678182625    0.2378362965
 H    3.9984704468   -1.3474170850    0.4136575775
 H    2.7972919828   -0.8165171487   -0.7644044419
 H    3.1616953127   -1.5773703144    3.1057092930
 H   -1.5575447796    0.3542492151    2.6595653697
 H   -1.8082864818   -1.3425859026    2.1839380750
 H   -1.2373186275   -0.9542153433    3.8240251614