21

 C    0.0141587240    1.4943041520    0.1277576332
 C    1.4508261567    2.0202376737   -0.0205727453
 C    2.2114556120    1.2461196020   -1.1014964918
 C    1.3271534703    0.5766353681   -2.2285512341
 C    2.3973258725   -0.1853707888   -3.0104011101
 C    3.1483820874   -0.7391708022   -2.0522403430
 C    2.4742213519   -0.2688368722   -0.7652778453
 C    0.9578801108   -0.4920399881   -1.1230782195
 C   -0.0294477779   -0.0322976090   -0.0460259162
 H   -0.4253231342    1.7994118431    1.0828059256
 H   -0.6042119628    1.9499682887   -0.6544156651
 H    1.4348742190    3.0895473124   -0.2618427438
 H    1.9997733472    1.9297019625    0.9268049472
 H    3.0873824856    1.7949392921   -1.4591197210
 H    0.5694130964    1.1300449713   -2.7852230848
 H    2.4890630116   -0.2380686872   -4.0861395977
 H    4.0232447388   -1.3692867823   -2.1283773268
 H    2.8861734081   -0.5779097127    0.1977864129
 H    0.7179397353   -1.4904212285   -1.4999178722
 H    0.2186662689   -0.5400080742    0.8961711770
 H   -1.0461765416   -0.3506562906   -0.3044771194