19

 C    0.0030415266    1.5416427984    0.0025114073
 C    0.0340547347    0.0358172807    0.0289439202
 C   -1.2675929048   -0.7798655995   -0.1918163866
 C   -0.7346283974   -2.0999669298    0.4127320039
 C   -0.4493855880   -1.6731529995    1.8762907256
 C    0.6559195879   -0.8281719240    1.2270497522
 C    0.8134551294   -1.9389782164    0.1021271728
 C    0.9847575013   -0.7841283943   -0.8640552838
 O    1.7251882467   -0.5217112854   -1.7689566838
 H    1.0060202496    1.9609998480    0.1290068577
 H   -0.3850579978    1.9019058792   -0.9562383454
 H   -0.6382113575    1.9424818001    0.7950271179
 H   -2.1248477199   -0.3877010315    0.3646050014
 H   -1.5409264663   -0.8457285098   -1.2497800801
 H   -1.2617782985   -3.0232166449    0.1752057435
 H   -1.2511896852   -1.1792950275    2.4353123628
 H   -0.0262802206   -2.4829545679    2.4765698460
 H    1.5080913318   -0.4009282676    1.7524959107
 H    1.4713233679   -2.8011638084    0.1769795077