23

 C   -0.0764966254    1.5051670387   -0.4905324619
 O   -0.3150263107    0.1104872419   -0.5224063667
 C    0.7290828901   -0.6231439489   -1.1146888637
 C    0.3793205901   -2.1176075050   -1.0158658279
 C    0.4627614763   -2.6239144779   -2.4694144492
 C   -0.4474509197   -3.8071908590   -2.7916523423
 C    0.2214249584   -1.3269568966   -3.2751523793
 C   -1.2413639802   -0.9568517288   -3.5258457685
 O    0.8877270103   -0.3263577475   -2.4911485188
 H    0.8349084060    1.7415956928    0.0803930145
 H    0.0274863960    1.9182309743   -1.5004980150
 H   -0.9337032770    1.9663707984    0.0051640077
 H    1.6793815317   -0.3470934830   -0.6332711296
 H    1.0549967089   -2.6523764223   -0.3447793059
 H   -0.6333718254   -2.2097546323   -0.6133601133
 H    1.5003918031   -2.9192422800   -2.6671229818
 H   -1.4964761273   -3.5767095977   -2.5813228853
 H   -0.3700151284   -4.0953168134   -3.8457266643
 H   -0.1743573413   -4.6809968705   -2.1912408900
 H    0.7504850316   -1.3577942560   -4.2340869652
 H   -1.8124474421   -0.9217671901   -2.5943197761
 H   -1.2898280931    0.0340933671   -3.9861625147
 H   -1.7165718919   -1.6712244441   -4.2057918027