22

 C   -0.1729039065    1.5894928664   -0.1255994738
 C   -0.0869493455    0.0625981171   -0.0426713565
 C    0.8079114457   -0.5347371713   -1.1350724162
 C    0.8260596029   -2.0690310735   -1.1667898381
 C    1.4443874496   -2.7017911970    0.0839289245
 N   -0.4961694459   -2.6600936611   -1.5751785742
 C    0.0887144715   -3.3885184279   -2.7334596524
 C    1.4143661403   -2.6614095640   -2.4662327010
 O    2.4645926191   -2.5700391487   -3.0284491037
 H    0.8153002714    2.0495975386   -0.0145585776
 H   -0.5795237056    1.9102210747   -1.0909704908
 H   -0.8190387017    1.9946499977    0.6594462889
 H    0.2856853751   -0.2233720243    0.9484822951
 H   -1.0895561875   -0.3709651959   -0.1389058998
 H    0.4549999613   -0.1790738073   -2.1108061158
 H    1.8393328515   -0.1759324256   -1.0251804122
 H    0.8405957851   -2.4821183590    0.9703676199
 H    1.5145964940   -3.7902712186   -0.0151700950
 H    2.4532419953   -2.3143513795    0.2551967023
 H   -0.8856754644   -3.2791210627   -0.8730711881
 H    0.1749598401   -4.4782871292   -2.6263113921
 H   -0.3902714759   -3.1732968088   -3.6949989735