19

 C    0.0192366531    1.5184086646    0.0235929255
 C   -0.0665052835    0.0273384632   -0.0262620192
 C   -0.1120546158   -0.7764786189   -1.1026375719
 C    0.0444551128   -2.1926942013   -0.6095757185
 O    1.4397795818   -2.2623852047   -0.1137835810
 C    1.2347478281   -1.8939476019    1.2380733521
 C    0.2333793573   -2.9615517537    1.7254719434
 C   -0.6980704959   -2.2019441533    0.7554644161
 C   -0.0128644541   -0.8623605532    1.1761085537
 H    0.9732003261    1.8448227384    0.4573853962
 H   -0.0640875350    1.9587078520   -0.9738051241
 H   -0.7716182639    1.9447613143    0.6533396746
 H   -0.0699725675   -0.4752420874   -2.1421799364
 H   -0.1250379136   -3.0111904013   -1.3078454727
 H    2.1795735937   -1.6551063627    1.7235648341
 H    0.4896471835   -4.0017137644    1.5130618309
 H   -0.0731422071   -2.8344091598    2.7665501631
 H   -1.7825116660   -2.3061864351    0.7307686273
 H   -0.2833707540   -0.4490866350    2.1475868168