21

 C   -0.2180714679    1.4984611604   -0.0123111198
 C   -0.0910150973   -0.0070424675   -0.0106894665
 C    0.4170504672   -0.8148023858   -1.2482930919
 C   -0.2776450784   -2.0052044540   -0.5301765185
 C    0.5910367151   -2.1643457808    0.7334645212
 C    0.7487316673   -0.6579697461    1.1166004150
 C   -1.3426670251   -0.9408676230   -0.0790146854
 C   -2.2289044255   -1.2152197299    1.0998263417
 O   -2.1323948166   -0.7070475856    2.1910300191
 H    0.7677474850    1.9743456275   -0.0693499609
 H   -0.8088494005    1.8523963733   -0.8642346460
 H   -0.7047240825    1.8466216417    0.9047713355
 H   -0.0821611509   -0.5267410522   -2.1771575623
 H    1.4987142834   -0.8800604703   -1.4027366422
 H   -0.5753419619   -2.9080037412   -1.0636816656
 H    0.0966368487   -2.7474999378    1.5155913416
 H    1.5447681644   -2.6500153466    0.5085344492
 H    1.7889672769   -0.3206825648    1.0710261704
 H    0.3527388524   -0.4290548512    2.1062241778
 H   -1.9868887436   -0.6934166827   -0.9329370386
 H   -3.0348079703   -1.9611533733    0.8963210463