17

 C   -0.1152022149    1.6147528221    0.1712388782
 C    0.0040131588    0.1208380996    0.1483795027
 O    0.8634800027   -0.4038583361   -0.9063992423
 C    1.6912725140   -1.1319667951    0.0330601007
 C    0.7248268722   -0.8125823635    1.1859821500
 O    1.2162870006   -0.2889960345    2.3783674468
 C   -0.5211596963   -1.7442711874    1.2420293127
 C   -1.2261830041   -0.8138343825    0.2270276340
 O   -2.3051226915   -0.8159944453   -0.2862620277
 H    0.8724301924    2.0803595511    0.2308702572
 H   -0.6127736673    1.9600927681   -0.7404603524
 H   -0.7092213552    1.9402619117    1.0305544995
 H    1.8194131882   -2.1824035874   -0.2523153844
 H    2.6717458419   -0.6551625050    0.1534512496
 H    1.4548729987   -1.0147359936    2.9650550305
 H   -0.4004754259   -2.7916308170    0.9528138168
 H   -1.0208028044   -1.6930662851    2.2157305879