19

 O    0.3897353017    0.9523770962   -0.7913967333
 C    0.0382083023   -0.1659332394   -0.0147924497
 C    0.4635085604   -0.0907153379    1.4738919916
 C   -0.5577309265   -0.9502194266    2.2601193717
 C   -1.5543320468   -1.5065618214    1.2113366954
 O   -2.8460258482   -1.7716765786    1.6997229335
 C   -1.4834671794   -0.4862482817    0.0387683497
 C   -2.2625495859    0.7096822760    0.3344613578
 C   -2.8821167521    1.7035072360    0.6163863022
 H   -0.1405401330    1.6968327936   -0.4800081425
 H    0.5310964745   -1.0162063795   -0.4988558001
 H    1.4972919400   -0.4196278282    1.6029168957
 H    0.4220088298    0.9550032725    1.7946751882
 H   -0.0955467149   -1.7601162210    2.8293213031
 H   -1.1135660820   -0.3372497013    2.9766910096
 H   -1.1914893255   -2.4663948487    0.8275545640
 H   -3.2516146537   -0.9224676526    1.9158394774
 H   -1.8353985009   -0.9260497374   -0.8991874183
 H   -3.4456178198    2.5763585001    0.8388833241