23

 C   -0.2342577193    1.3376535327   -0.1787483863
 O    0.0235553986   -0.0446817917   -0.1404341677
 C    0.5315111805   -0.4758833526    1.1055544410
 C    0.7730369131   -1.9745450577    1.0195004560
 C    1.8567067961   -2.4060554417    0.0200906538
 C    2.1441352285   -3.8288755814    0.4960505318
 O    2.0081746991   -3.8013254475    1.9142936028
 C    1.2345765346   -2.6659714546    2.3287868775
 C    2.0873594575   -1.8198932621    3.2740302658
 H    0.6784418147    1.9301848919   -0.0059040552
 H   -0.6233262408    1.5715202209   -1.1727970260
 H   -0.9815746207    1.6359184668    0.5741041535
 H    1.4656400910    0.0606508665    1.3411636371
 H   -0.1879646611   -0.2426208973    1.9103429813
 H   -0.1741301277   -2.4336997515    0.7110402451
 H    1.5228288712   -2.3527636798   -1.0174626248
 H    2.7481419413   -1.7760281448    0.1237731127
 H    1.4249477652   -4.5391091216    0.0576112852
 H    3.1526774461   -4.1803833926    0.2546450789
 H    0.3612318751   -3.0351692259    2.8841804207
 H    2.9503773114   -1.3877407853    2.7580045819
 H    1.5039553994   -1.0089250391    3.7230048023
 H    2.4642163563   -2.4543539517    4.0808774323