18

 C   -0.0515573336    1.3971979733   -0.6561865035
 O   -0.1875303636   -0.0013592949   -0.7463891816
 C    0.9385410887   -0.6982247984   -0.2628456015
 C    0.6681427677   -2.1894461697   -0.4288492198
 C    0.6771449410   -2.6477734350   -1.8984715176
 O    2.0199469380   -3.0786816315   -2.0881739972
 C    2.3606580304   -3.6784784952   -0.8684255060
 O    1.7512993678   -2.9150589112    0.1586967416
 H    0.0822595726    1.7266816694    0.3860536681
 H    0.8054000374    1.7626181042   -1.2435099700
 H   -0.9675776167    1.8419638251   -1.0524876272
 H    1.8480350387   -0.4276359478   -0.8246763321
 H    1.1225725300   -0.4736470649    0.7997543001
 H   -0.2718397645   -2.4471709284    0.0723756538
 H   -0.0271432734   -3.4764609419   -2.0630370484
 H    0.4594641617   -1.8411231845   -2.5996816541
 H    1.9941973723   -4.7205360719   -0.8240013390
 H    3.4483939854   -3.6566506267   -0.7505048756