19

 C   -0.2537271772    1.5869223333    0.1258488784
 C    0.0269439815    0.0872920141   -0.0053005682
 C   -1.2416939765   -0.6948042363   -0.3819782308
 C   -1.8116561712   -0.2893566025   -1.7246902191
 O   -2.9417064688    0.0818574695   -1.9100597502
 C    1.2950190610   -0.2046576218   -0.8882320933
 C    2.0699907792   -0.4917953297    0.4064548616
 O    3.2295278468   -0.6223748886    0.6663379468
 C    0.7849999859   -0.4758791012    1.2471141404
 H    0.6498366045    2.1313956409    0.4199295006
 H   -0.6062153041    2.0145841202   -0.8187769229
 H   -1.0212506878    1.7762188197    0.8838167707
 H   -0.9978773478   -1.7657175660   -0.4421442141
 H   -2.0223009545   -0.5681552853    0.3749787123
 H   -1.0896138249   -0.3599996964   -2.5721073230
 H    1.2095535708   -1.1065947126   -1.5047701945
 H    1.6777951169    0.6063810569   -1.5134088340
 H    0.8001656817    0.1448161462    2.1470787629
 H    0.4784194644   -1.4892860405    1.5293383463