20

 C   -0.1127929751    1.5692668346   -0.0504212357
 C    0.0187557396    0.0494102733   -0.0445593501
 C    1.2294683863   -0.4870864866   -0.8765468765
 C    1.9515718476   -0.7406369144    0.4503177519
 O    3.1040156751   -0.8666744285    0.7616342515
 C    0.6560145082   -0.5700905963    1.2601944660
 C    0.6764728152    0.1828467128    2.5687376636
 C    1.6994726731   -0.1107044256    3.6042361718
 N    1.7117334806    1.1803830067    2.8915196787
 H    0.8326796250    2.0607244222    0.2021948065
 H   -0.4195806637    1.9233744303   -1.0400138153
 H   -0.8592550823    1.9074616642    0.6746029723
 H   -0.9355815420   -0.4091378857   -0.3124747266
 H    1.0204391672   -1.4200083338   -1.4097913729
 H    1.7228157233    0.2056591860   -1.5638669966
 H    0.2245713223   -1.5675913857    1.4234935739
 H   -0.3131758890    0.4814847171    2.9124485631
 H    1.4362119285   -0.0549731796    4.6568305089
 H    2.4715660789   -0.8319812108    3.3541107243
 H    2.4514663712    1.1479134697    2.1935505814