20

 C   -0.1603754433    1.5492852394   -0.4756542914
 C   -0.2687366071    0.0282685499   -0.4093817928
 C   -1.4009124451   -0.4691551813    0.4779386205
 O   -2.0660559763    0.2822138836    1.1580458057
 C   -1.6819218750   -1.9605276315    0.4311161571
 C   -2.7178463118   -2.5686543811    1.4067426953
 N   -3.5765850818   -3.0923720924    0.2793271940
 C   -4.0050377298   -1.9004914479   -0.4743516780
 C   -2.6367583234   -2.4120717005   -0.6930228945
 H    0.6832933351    1.8510336480   -1.1024476261
 H   -1.0722174041    1.9878097182   -0.8897358535
 H   -0.0222018683    1.9720107399    0.5223013489
 H   -0.4010169530   -0.4103498321   -1.4082476005
 H    0.6609785252   -0.4181184748   -0.0272756654
 H   -0.7461514854   -2.5246224077    0.4014548783
 H   -2.3295450014   -3.3986481167    1.9986313930
 H   -3.2264615840   -1.8518153907    2.0556243534
 H   -4.7442404208   -2.1280336628   -1.2360186211
 H   -4.1582540239   -0.9638424819    0.0557001791
 H   -2.3238376159   -2.8872390275   -1.6174033020