27

 C   -0.2314221160    1.7171560270   -1.0059466869
 C    0.0162206552    0.2864060230   -0.5245794464
 O   -1.1778094724   -0.2777719024    0.0188014182
 C    0.4965182120   -0.6284600705   -1.6528659550
 C    0.8291339649   -2.0810662246   -1.2263679566
 C   -0.4199198630   -2.9672330481   -1.3659978401
 C    2.0558085526   -2.6318479090   -2.0044965249
 C    3.3532792506   -1.9154328141   -1.5941331811
 C    2.2478606373   -4.1470012466   -1.8347846760
 H    0.6846208299    2.1661493919   -1.4036787364
 H   -0.9957644648    1.7292922793   -1.7895042715
 H   -0.5796921878    2.3510512558   -0.1817661715
 H    0.7990508524    0.3055437904    0.2535690782
 H   -1.4685589597    0.2826556020    0.7448853784
 H   -0.2718914543   -0.6456278873   -2.4370560585
 H    1.3742777200   -0.1480209297   -2.0967463140
 H    1.1071442297   -2.0657069485   -0.1616950608
 H   -0.6753346075   -3.1154796842   -2.4231479276
 H   -0.2775058839   -3.9532913938   -0.9159607999
 H   -1.2699511918   -2.4888902430   -0.8769425339
 H    1.8800548464   -2.4368021376   -3.0736775214
 H    3.2923283801   -0.8288538640   -1.7033097547
 H    3.5928216492   -2.1282526785   -0.5450050539
 H    4.1982673091   -2.2579219979   -2.2006433651
 H    1.4140846778   -4.7203532837   -2.2463630050
 H    3.1595967213   -4.4766425309   -2.3442448673
 H    2.3488843826   -4.4141303448   -0.7754845263