19

 C   -0.0974174596    1.5834216449    0.0060405148
 C    0.0215902072    0.0595602412   -0.0152942381
 C    0.8397151600   -0.5125786908   -1.2081988736
 C    1.6076402355   -1.6923879083   -0.6137231547
 C    1.2022827520   -1.9604773550    0.7888204858
 C    2.6296717886   -1.4146582838    0.5024431932
 C    2.2471338735   -0.1785220729    1.2443800598
 O    2.8754859712    0.6626583300    1.8285817657
 C    0.7383572449   -0.5387478126    1.2144292768
 H    0.8877111255    2.0543832871    0.0856049450
 H   -0.5780075412    1.9525205160   -0.9058765012
 H   -0.6960496654    1.9214765402    0.8582244592
 H   -0.9861158048   -0.3750026399   -0.0480064156
 H    0.1857669677   -0.8416253047   -2.0216275698
 H    1.5203187923    0.2384795570   -1.6244669876
 H    1.8914179632   -2.5236417048   -1.2505644878
 H    0.9451766771   -2.9063218333    1.2429672835
 H    3.5868007091   -1.9215819880    0.5239015069
 H    0.2216116733   -0.4075249320    2.1655384079