18

 C    0.0183766956    1.5975370329   -0.0287094790
 C    0.0384383407    0.0909076067    0.0663419456
 C   -1.2783140616   -0.7007425123    0.3242010418
 N   -0.6060544088   -1.6890778072    1.2260016164
 C    0.1249505350   -2.7142716357    0.4136644829
 C    1.3108261459   -1.7512798272    0.1327639243
 C    0.6444671136   -0.8182913712    1.2015591351
 C    0.9260347296   -0.6979210242   -0.9140243404
 O    1.2997312965   -0.4697910408   -2.0299559013
 H    1.0302244187    2.0144899874   -0.0114886763
 H   -0.4470791580    1.9101639687   -0.9695768523
 H   -0.5502051236    2.0392223477    0.7961703623
 H   -1.9858820428   -0.0982002327    0.9038135181
 H   -1.8048510556   -1.1302959260   -0.5349751020
 H    0.4296109905   -3.5423298496    1.0600938089
 H   -0.4281423629   -3.1179866558   -0.4407754289
 H    2.3315733532   -2.1335324202    0.1318326960
 H    1.0979848141   -0.4729058206    2.1285202687