16

 O   -0.0916774217    1.4771413662   -0.0890158063
 C   -0.0366710685    0.0799390362   -0.0750702058
 C   -1.3614275605   -0.6507156832   -0.1039511213
 C   -1.7892598773   -0.7916119744   -1.5690130157
 C   -0.7300404503   -0.1063766872   -2.4294187175
 C    0.3014475007   -0.6838661369   -1.4148932252
 C    1.6659986510   -0.9385078164   -1.7798177241
 N    2.7733507772   -1.1319221163   -2.0554926315
 C   -0.7888719482   -1.7491154056   -0.9748468152
 H    0.7954930085    1.8256144809    0.0491272557
 H    0.6010475426   -0.3034619474    0.7310018830
 H   -2.0698062189   -0.7534078983    0.7064906469
 H   -2.8205197278   -0.9937031806   -1.8237957015
 H   -0.6315947727   -0.5856414820   -3.4054550383
 H   -0.7473933624    0.9817530736   -2.5262612148
 H   -0.7510678817   -2.8208426786   -0.8580912183