18

 C   -0.0606124768    1.5306487212    0.0206693806
 C    0.0318582700    0.0247328749    0.0273628164
 C    0.9792246085   -0.7837202129   -0.9242413707
 C    0.6559693775   -1.8984132930    0.1065631752
 C    0.6833533086   -0.7924464377    1.1954397441
 O   -0.7458580436   -2.1417863180   -0.0900793335
 C   -1.2590734520   -0.7894700831   -0.1561350044
 C    1.4023879259   -3.1366188554    0.2055925197
 N    2.0417685531   -4.0948645065    0.2913455790
 H    0.9232404586    1.9888264001    0.1597518293
 H   -0.4696696601    1.8952467594   -0.9281298234
 H   -0.7140352656    1.8880196500    0.8242873132
 H    0.6612554735   -0.9682846136   -1.9524600911
 H    2.0146959593   -0.4440334996   -0.8809769359
 H    1.6907063509   -0.4535775080    1.4401124884
 H    0.0961902915   -0.9849373660    2.0957688114
 H   -1.9901742118   -0.6289820819    0.6444637265
 H   -1.7432306074   -0.6216948297   -1.1249814249