17

 O    0.0823082134   -0.1919876370    0.2043017439
 C   -0.0589558853    1.0058741081    0.0149885152
 N   -1.3492584414    1.5277391360    0.1915736786
 C   -1.9079045763    2.7501869643   -0.1875090385
 C   -1.4311348012    3.9505299464    0.1464575249
 C   -0.2378756638    4.1278596225    1.0411631728
 N    1.0456326786    4.1435950390    0.3507198054
 C    1.5158193148    3.0811073551   -0.3551731294
 C    1.0754260571    1.8073180892   -0.4833355485
 H   -1.9937558352    0.7611492098    0.3295792609
 H   -2.8181098832    2.6656457164   -0.7789809317
 H   -1.9204891990    4.8331189176   -0.2516971636
 H   -0.3133751575    5.0626416452    1.6031456095
 H   -0.2130588686    3.3071016068    1.7690049968
 H    1.4292317916    5.0431442270    0.1164697301
 H    2.4591047643    3.3075080143   -0.8473830198
 H    1.7749484017    1.1439012491   -0.9793608965