20

 C   -2.0454867840    0.1163063890   -0.5086307318
 C   -0.6584752609   -0.3747122447   -0.1420716781
 O   -0.1343201273   -1.0892773074   -1.2795300435
 C    1.1127441301   -1.5799642820   -1.1421237571
 O    1.7737847677   -1.4593269225   -0.1360268486
 C    1.5302155721   -2.2798610299   -2.3947022701
 C    2.9992708641   -2.3656254507   -2.6869222199
 N    2.2560360636   -3.5593699809   -2.3630001855
 C    2.5247261227   -4.2326209060   -1.0941617958
 H   -2.0072332654    0.7864604398   -1.3719975136
 H   -2.7047349304   -0.7214607939   -0.7524840664
 H   -2.4797478634    0.6631833756    0.3335024438
 H    0.0196139437    0.4493124925    0.1012079836
 H   -0.6752561393   -1.0485687626    0.7203045343
 H    0.8172441047   -2.1936493542   -3.2081576359
 H    3.3396201893   -2.2712039058   -3.7150413836
 H    3.6564218858   -1.9436348292   -1.9283540231
 H    2.7763485853   -3.5569900618   -0.2693895321
 H    1.6443347312   -4.8195847052   -0.8141128721
 H    3.3545605903   -4.9267780799   -1.2585668345