19

 C   -0.2234173676    1.4901372180   -0.0851908719
 C   -0.0985486209    0.0012344178    0.1150504871
 O    1.1870226226   -0.5936614369   -0.0987685587
 C    0.6303107166   -0.6453629374    1.2208961759
 C    1.3538379958    0.0996092638    2.2907436502
 C    0.8539842804    0.0580975381    3.7084248639
 C    2.1473101499   -0.6576800133    3.3579514637
 C    2.2015612698   -2.0900965709    3.3689855946
 C    2.2543253751   -3.2919710038    3.3859819590
 H    0.5974374003    2.0375454390    0.3822050348
 H   -0.2222106283    1.7278196434   -1.1541118702
 H   -1.1676638150    1.8517804944    0.3364176274
 H   -0.9175620336   -0.5755420518   -0.3217977177
 H    0.2998383217   -1.6409330370    1.5211675422
 H    1.8183029055    1.0227399519    1.9637317338
 H    0.9189546869    0.9577240732    4.3094989165
 H   -0.0039297888   -0.5696784326    3.9222715009
 H    3.0624331332   -0.1689761823    3.6790089186
 H    2.3060593164   -4.3522862136    3.3963838699