18

 C   -0.0453771757    1.4384201224   -0.4180863793
 C    0.0720635101   -0.0491776020   -0.2056205989
 O    1.1255946238   -0.6359965887   -0.1005123366
 C   -1.2747906249   -0.7948231710   -0.1288385303
 O   -2.3340660797   -0.1911215880   -0.2364812035
 N   -1.2007746735   -2.1256221923    0.0606542757
 C   -0.1469362847   -3.1394036911    0.2258740601
 C   -1.2657910115   -4.2126639348    0.3537284430
 C   -2.3103550327   -3.0731095789    0.1708364719
 H    0.9483766684    1.8846598259   -0.4600577750
 H   -0.5998721612    1.6392318104   -1.3400036312
 H   -0.6364239510    1.8832112538    0.3884786183
 H    0.5109432863   -3.2336991144   -0.6414832071
 H    0.4740352129   -2.9863336087    1.1118582175
 H   -1.2690274566   -4.9627600194   -0.4373944058
 H   -1.3061411222   -4.7145726160    1.3206786035
 H   -2.9641125025   -2.8763347053    1.0265151647
 H   -2.9268486055   -3.1244815218   -0.7322733173