20

 C   -0.1058665596    1.5384853001   -0.0629300810
 C    0.0146691033    0.0324388125    0.0253837962
 C    1.3316425801   -0.6654888969   -0.2281651611
 C    0.7268938856   -0.6885771020    1.1514287061
 C    1.3730214554    0.0801002675    2.2751723406
 O    0.4320147229    0.3162840817    3.3395573277
 C   -0.4451794009   -0.6907102616    3.5742508934
 N   -0.6450291007   -1.7568126117    2.9250996804
 C    0.1230785560   -1.9697117404    1.6982949697
 H    0.8183641888    2.0452362986    0.2304795239
 H   -0.3265339114    1.8447148925   -1.0912365384
 H   -0.9102639613    1.9140352198    0.5785166075
 H   -0.8631385671   -0.4938367343   -0.3433905053
 H    1.3401720736   -1.5901487100   -0.7971774200
 H    2.2064293063   -0.0413840081   -0.3900427741
 H    2.2204626804   -0.4835767033    2.6887223371
 H    1.7331224311    1.0648536282    1.9741136280
 H   -1.0249881956   -0.4679791632    4.4686371134
 H   -0.5406353535   -2.4313302750    0.9580609254
 H    0.9091956067   -2.7106247645    1.9055718404