25

 C   -0.5780058239    1.4422334178    0.4292447614
 C    0.0390532119    0.0965686550    0.0387362806
 C    0.7424593636   -0.6023551455    1.2063199373
 C    1.3656582231   -1.9518756708    0.8215242433
 C    2.0494015878   -2.6132859195    1.9940126271
 O    1.2110313473   -3.1930760854    3.0044187659
 C    2.0833272025   -4.0604843249    2.2660339154
 C    1.4412857060   -5.1331957395    1.4187842693
 C    0.8720118370   -6.2691808702    2.2783040853
 H    0.1861517891    2.1359115681    0.7973766247
 H   -1.0755646641    1.9167744176   -0.4223582573
 H   -1.3218391980    1.3200435379    1.2243217697
 H   -0.7430421496   -0.5635194587   -0.3594992232
 H    0.7550947467    0.2449889279   -0.7808580688
 H    1.5234216291    0.0577652382    1.6090724457
 H    0.0290830992   -0.7653901164    2.0239799178
 H    0.5894284180   -2.6095665669    0.4182324081
 H    2.1059160835   -1.8041973750    0.0228303881
 H    2.8728457531   -2.0250358274    2.4095481401
 H    2.9291169411   -4.4203788963    2.8594916173
 H    0.6452659312   -4.7008432366    0.8060767649
 H    2.1978053857   -5.5286271589    0.7281675300
 H    1.6564808115   -6.7451029669    2.8769163388
 H    0.1134998364   -5.8845141727    2.9664299347
 H    0.4103217914   -7.0419142108    1.6566478537