17

 C   -0.1040270482    1.5617237074    0.0633512861
 C    0.0129361985    0.0335372417   -0.0103723814
 C    0.8310926362   -0.4770049697   -1.1832643410
 C    1.8253307796   -1.2892995063   -0.8222077193
 C    1.8893577575   -1.4194329940    0.6628043904
 N    2.1595857232   -0.1276895466    1.3370205734
 C    0.7541707048   -0.5878438992    1.1869617612
 C    0.0214082125   -0.9613076417    2.3616680382
 N   -0.5781496857   -1.2401826633    3.3117785762
 H    0.8849902801    2.0107509888    0.1804026837
 H   -0.5632218352    1.9579079399   -0.8473674978
 H   -0.7270392504    1.8622239981    0.9112929165
 H   -0.9978224024   -0.3949864026   -0.0526348219
 H    0.6127570356   -0.1665604132   -2.1990889271
 H    2.5307250174   -1.7727275609   -1.4861206411
 H    2.1978541612   -2.3377189473    1.1503044142
 H    2.4531534954   -0.3027004111    2.2976968597