18

 C    0.1479577530    1.4886890645    0.0652327774
 C   -0.0503353666    0.0076315255   -0.0585622413
 C   -0.2377232946   -0.6283985416   -1.2357487500
 C   -0.2577589276   -2.0830959681   -1.3598034270
 O   -0.4823070242   -2.6557838669   -2.4095432682
 C    0.1181074466   -2.8915398710   -0.1086567249
 C    0.0178916899   -2.1165706745    1.1972111796
 C    1.1244648475   -1.2577518958    1.7218328862
 N   -0.1012960467   -0.6600156963    1.1724775638
 H    1.0880773928    1.7034494774    0.5875143962
 H    0.1746858733    1.9700839199   -0.9138123955
 H   -0.6541117590    1.9313132986    0.6651638163
 H   -0.3320604543   -0.0658577338   -2.1577805238
 H   -0.5354551273   -3.7667435911   -0.0815383422
 H    1.1313030201   -3.2756033682   -0.2757964259
 H   -0.6342673194   -2.5600203801    1.9458729220
 H    1.2730010262   -1.1410403916    2.7914177158
 H    2.0234898402   -1.1802730467    1.1140900515