14

 N    0.0937546719    1.3767167783   -0.0781868705
 C    0.0281502365    0.0128585794    0.0040404409
 N   -1.0910849836   -0.6078035475   -0.0429028497
 C   -1.1566488997   -1.9615787607   -0.0411748398
 C   -2.2110302938   -2.8317577808   -0.0737735337
 O   -3.5231561575   -2.5324258852   -0.1213284536
 N   -1.7642975384   -4.1348012181   -0.0502749679
 C   -0.4729484190   -4.0269546127   -0.0050747307
 O   -0.0131046301   -2.7640787450    0.0041832908
 H    0.9105421439    1.8335264681    0.2919706692
 H   -0.7786133681    1.8708297902    0.0397900364
 H    1.0011479570   -0.4823574840    0.0628016137
 H   -3.9942054212   -3.3740996839   -0.1367665002
 H    0.2582287520   -4.8194096181    0.0244123550