21

 C   -0.0458104654    1.5377688329   -0.0518432802
 C    1.3144613080    0.8685631310   -0.0427356059
 C    0.0541753087    0.0432992435    0.0231453971
 C   -0.3427099711   -0.6883245680    1.2935444820
 C    0.5856694938   -1.8539973866    1.6928561540
 O    1.2140299586   -2.5325719170    0.6198546551
 C    0.3915208857   -2.8666275983   -0.4824590900
 C    0.3757277699   -1.7513243715   -1.5265203578
 O   -0.3650868834   -0.6011839923   -1.1551333595
 H   -0.3676658579    2.0824139148    0.8290923491
 H   -0.3883964828    1.9479557023   -0.9946308981
 H    1.8690321279    0.8574775492   -0.9739904349
 H    1.9307668051    0.9466104289    0.8465152437
 H   -0.3797883870    0.0121328290    2.1354752842
 H   -1.3670781868   -1.0477718688    1.1454627697
 H    1.4160356733   -1.4803736133    2.3007244489
 H    0.0192890449   -2.5647763786    2.3166747824
 H    0.8305619914   -3.7620711577   -0.9397344054
 H   -0.6321751856   -3.1195448488   -0.1687604172
 H    1.4197131865   -1.4849182990   -1.7508072119
 H   -0.0938008236   -2.1152052818   -2.4472401052