18

 C   -0.0410359341    1.4355833737    0.3125977464
 C   -0.0537696280   -0.0167460628    0.2385920897
 C   -0.0838926613   -1.2193714210    0.1769414299
 C   -0.0803623570   -2.6517385945    0.0855279591
 O   -0.7539384858   -3.4020270990    1.1257213486
 C   -1.2957018549   -3.4563229550   -0.1887483371
 C   -2.6595850887   -2.8683848517   -0.3821397762
 C   -3.7325958538   -3.2353804113    0.5801099958
 N   -3.1825754144   -1.8707502147    0.5510899701
 H    0.5436534377    1.8652259135   -0.5080830163
 H   -1.0563357234    1.8411239642    0.2489882303
 H    0.4019033001    1.7818156320    1.2528007043
 H    0.8739993003   -3.0943823773   -0.1996733823
 H   -1.1372157104   -4.4079020970   -0.7022705615
 H   -2.9217815753   -2.6987166860   -1.4248991645
 H   -4.7599631219   -3.3287969521    0.2404029640
 H   -3.4573374386   -3.8838515768    1.4076496440
 H   -2.5158088406   -1.7643264741    1.3137024655