20

 C   -0.7170313898    1.1364175559    0.1151826174
 C    0.0165254171   -0.1845189784   -0.0354777983
 C    1.2969740027   -0.2725897759   -0.9079903808
 O    1.9970815056    0.9654028417   -0.8122161697
 C    1.8474520049   -1.3273276360    0.0884545685
 C    0.8446610277   -0.7888041810    1.1525161445
 N    1.4273613240    0.1976589831    2.0363478328
 C    1.2180442753    0.2213768165    3.3789372572
 O    0.5574235203   -0.5801215437    4.0067438470
 H   -0.0413491133    1.9398750456    0.4146841650
 H   -1.1856306621    1.4300564885   -0.8299209322
 H   -1.5049586009    1.0533570460    0.8707526522
 H   -0.6747376353   -0.9619301695   -0.3788619408
 H    1.1764094885   -0.5687712341   -1.9575527394
 H    2.8676805308    0.8428860316   -1.2047606030
 H    1.6066916504   -2.3499530769   -0.2141606012
 H    2.9114652702   -1.2637743525    0.3324472789
 H    0.3392365522   -1.5164504068    1.7857231733
 H    1.9659995535    0.9364435200    1.6092235996
 H    1.7397813583    1.0759036259    3.8552555590