17

 C   -0.1551940500    1.4113527080   -0.0516061401
 N    0.1529652037    0.0007954734    0.0795592892
 C    0.7009689383   -0.6483679469   -1.0135702455
 C    1.3234317650   -0.1486041133   -2.1171149210
 O    1.7385969604   -1.2072431792   -2.9272387773
 C    1.3614482684   -2.3378369479   -2.3052776741
 O    1.6366639571   -3.5068468187   -2.9158310910
 C    0.7156123263   -2.0901251766   -1.1357801130
 N    0.0828997276   -2.9700288629   -0.2191845232
 H    0.7728903785    1.9816124096   -0.1744845953
 H   -0.8048488671    1.6393265574   -0.9125967502
 H   -0.6424809709    1.7636039578    0.8606154271
 H   -0.5789013252   -0.5559591102    0.5023898931
 H    1.5693656185    0.8333690783   -2.4752464931
 H    1.9551861004   -3.3095941102   -3.8043674383
 H   -0.2008615706   -3.8286746413   -0.6779841325
 H    0.7011725796   -3.2288319972    0.5450163453