21

 C   -0.1173983587    1.5150386281    0.0567121561
 C    0.0857464153   -0.0050287428    0.0051629912
 C    0.7364217502   -0.4932364484   -1.2700784696
 C    0.0483095672   -0.3893037162   -2.6658509700
 C    0.9652634345   -1.5608268146   -3.0465363612
 C    2.4343507262   -1.2527625197   -2.5466827049
 C    2.1751916826   -0.0450556108   -1.6294648788
 O    2.3583747622   -2.3543278552   -1.5889216396
 C    0.9583138024   -2.0601731441   -1.5897711998
 H    0.8372949539    2.0468819466   -0.0099641160
 H   -0.7478566196    1.8591395377   -0.7701627536
 H   -0.6012251795    1.8153327886    0.9912176671
 H    0.6995911616   -0.3213501854    0.8591532730
 H   -0.8853540976   -0.5031777631    0.1269892533
 H   -0.9980924929   -0.7106405763   -2.6414098666
 H    0.1278892937    0.5579287070   -3.2074607257
 H    0.8376501596   -2.2068533794   -3.9131069581
 H    3.3153101294   -1.2864493316   -3.1862050411
 H    2.2043485846    0.9255385363   -2.1323606479
 H    2.8722972424   -0.0474418820   -0.7880749968
 H    0.3085086025   -2.8128957546   -1.1440805210