18

 C    0.1346552446    1.3260986565    0.1654441239
 O   -0.1568187605   -0.0392226332   -0.0894228839
 C    0.5146318008   -0.5412271340   -1.1839169531
 C    0.0708087318   -0.3418993751   -2.6402146858
 C    0.4593329221   -1.8273413471   -2.9307658474
 C    0.8768472479   -2.0070485100   -1.4651988007
 C    1.9360356399   -0.9877611009   -1.1035576466
 O    2.8904291625   -0.5137905247   -2.0119180299
 H    1.2073890004    1.4797774260    0.3469137236
 H   -0.1732238421    1.9697999548   -0.6703758632
 H   -0.4273038244    1.6112677110    1.0575873396
 H   -1.0069129664   -0.1795184532   -2.7087116154
 H    0.5977373494    0.4271855694   -3.2093286504
 H   -0.4002857487   -2.4406488895   -3.2063957076
 H    1.2534265256   -1.9744706337   -3.6673888203
 H    0.7149066986   -2.8912425532   -0.8597755778
 H    2.2861255386   -1.0820775940   -0.0745871451
 H    3.5128350299   -1.2270242692   -2.1901284199