20

 C    0.2407498064    1.3545701776   -0.3800497213
 C    0.0555573060   -0.0240761004    0.2822672308
 C    0.4802724453   -0.0192466981    1.7633783639
 N    1.8797287524    0.3303292005    1.9637270116
 C    2.8853383028   -0.5512277427    1.7296926226
 O    2.7303881714   -1.6753864331    1.2978939953
 C   -1.4160584737   -0.4300921284    0.1743837727
 C   -1.8113660159   -1.2460010325   -1.0401476094
 O   -2.2194928543   -0.1016670480    1.0192457193
 H    1.2841489328    1.6728758246   -0.3046272261
 H   -0.0233031516    1.3323572409   -1.4416090138
 H   -0.3892505989    2.1050207855    0.1093746858
 H    0.6709196874   -0.7582356288   -0.2477513526
 H   -0.1402747269    0.6852507306    2.3201843795
 H    0.3141081506   -1.0142661208    2.1861934330
 H    2.1148878457    1.2371295037    2.3319595563
 H    3.8790030757   -0.1285195717    1.9799798579
 H   -1.4196571259   -0.7987212688   -1.9599505119
 H   -1.3651083279   -2.2449218781   -0.9625559209
 H   -2.8966778415   -1.3372252121   -1.0975894427