11

 O    0.0150212782   -0.0513893588    0.0028711043
 C   -0.0138614139    1.1618390488    0.0091289100
 C   -1.2656083678    1.9333901260    0.0304192799
 C   -1.2442189155    3.2790554271    0.0373686801
 N   -0.0343419246    3.9353329814    0.0245923551
 C    1.1213334713    3.2028430602    0.0051923030
 N    1.1879798830    1.9215194678   -0.0026260031
 H   -2.2009244393    1.3890055388    0.0402154186
 H   -2.1279447136    3.9056246607    0.0527116547
 H    0.0065149631    4.9413251595    0.0294801708
 H    2.0346996791    3.7973753287   -0.0037887334