26

 C   -0.0767553032    1.5368736526    0.1593336201
 C    0.0141710063    0.0206844425   -0.0466171582
 C    0.7428504426   -0.4636721945   -1.3261328637
 C    0.0671504162    0.0967433590   -2.5910315661
 C    2.2245582625   -0.0473880029   -1.2992648329
 C    0.6261365681   -2.0062881763   -1.3359920552
 N    1.2845643406   -2.6315219209   -2.4802400161
 C    2.5898263386   -3.2430655490   -2.2526631540
 C    1.3798020627   -4.0858260380   -2.4474396926
 H    0.9109507113    2.0030962116    0.2277825197
 H   -0.6217204968    2.0268922609   -0.6530248018
 H   -0.6070197200    1.7610315156    1.0904396149
 H    0.5118042859   -0.4248531091    0.8255450405
 H   -1.0041206479   -0.3916619213   -0.0555820010
 H    0.2125406419    1.1773949803   -2.6808012167
 H    0.4829256481   -0.3805742906   -3.4816617217
 H   -1.0119657007   -0.0968316475   -2.5792185152
 H    2.7364796863   -0.4523800248   -0.4181970366
 H    2.7470263522   -0.4077212646   -2.1893873302
 H    2.3315705029    1.0411008133   -1.2744524311
 H    1.0107314002   -2.4088228949   -0.3799798410
 H   -0.4371913443   -2.2734251940   -1.3878071977
 H    3.3173426277   -3.1245364977   -3.0509038623
 H    3.0064800927   -3.1977791742   -1.2473961633
 H    0.9905885800   -4.6019340404   -1.5705569363
 H    1.2027191360   -4.5954942949   -3.3905390215