15

 C    0.0311032809    1.5356503981    0.0254424978
 C    0.0472102643    0.0808553442    0.0357406047
 C    0.0561105986   -1.1231688540    0.0474592232
 C    0.0433195912   -2.5664605056    0.0589916151
 C    0.2283166808   -3.3090169578    1.4016841510
 O   -0.8704581657   -2.9591026895    2.2218122571
 C   -1.0543968199   -4.0463138581    1.2872368752
 C   -1.3286052471   -3.3619517139   -0.0463268249
 O   -2.1450829120   -3.4753245962   -0.9037418963
 H    0.8637518799    1.9408244672   -0.5599755946
 H   -0.8988786861    1.9170202786   -0.4103930002
 H    0.1104251414    1.9384765172    1.0410788866
 H    0.6967104185   -2.9863658174   -0.7183575604
 H    1.1491418140   -3.6267208784    1.8747638873
 H   -1.3781840486   -5.0016422945    1.6812406786