17

 C   -0.2237985200    1.4543769057   -0.2050532373
 C   -0.0642991189   -0.0425999387   -0.0905536799
 O    1.0077783704   -0.6007710906   -0.1760496476
 C   -1.3068078984   -0.8674966913    0.1398494472
 C   -1.3291227980   -2.2409958515   -0.4963537112
 C   -1.1410411835   -2.1096603699    0.9889515417
 O   -2.4553810685   -0.0389775610    0.2115033210
 C   -3.6938412197   -0.5283045247    0.4133108910
 O   -4.6499956345    0.1856536099    0.4710153824
 H    0.7546380164    1.9044669538   -0.3724757495
 H   -0.9052211127    1.7043576815   -1.0244099185
 H   -0.6802356360    1.8596251545    0.7036848533
 H   -2.2800270282   -2.6042894369   -0.8695793590
 H   -0.4623780528   -2.4928939673   -1.0961077386
 H   -0.1473976532   -2.2727134888    1.3895827451
 H   -1.9615499534   -2.3826404395    1.6429392387
 H   -3.7374400389   -1.6244723051    0.5172865111