15

 O   -0.7139816212    0.8965399242    0.4141607367
 C    0.2421931604    0.9685343837   -0.3132179500
 C    1.3645818255    1.9584952859   -0.1604520403
 C    1.4651778703    3.0289894742   -1.2741713884
 O    0.2883003420    3.8315249975   -1.1866962731
 C    1.3651126231    4.1105890295   -0.2855177489
 C    1.2517621321    3.1251057987    0.8997014823
 C    0.0070339552    3.2574185077    1.7563976824
 O    0.0385813014    3.2185301422    2.9603419858
 H    0.3549914504    0.2845680000   -1.1852675426
 H    2.3095762953    1.4140281425   -0.0523920369
 H    1.9698046735    2.9730976095   -2.2306407984
 H    1.7730066035    5.1137819434   -0.2910205194
 H    2.1263400937    3.1438496276    1.5528811596
 H   -0.9284897451    3.4461423332    1.1979478713