17

 C    0.0642000604    1.4828686578    0.0289476224
 C   -0.0909379511    0.0035332545    0.0212623735
 C   -1.1594042917   -0.8279512067   -0.1105885674
 C   -0.5954454977   -2.1334391539   -0.0271146721
 N    0.7053428501   -2.0795288091    0.1506767875
 O    1.0296664503   -0.7255477514    0.1758951547
 C   -1.2848000605   -3.4386899581   -0.1195888366
 C   -0.7890668678   -4.4621578584   -1.0898532488
 N   -0.6055247644   -4.6560210530    0.3492669100
 H    0.7269853567    1.8111649730   -0.7782877712
 H   -0.9068599587    1.9638700335   -0.1007740808
 H    0.5003739747    1.8255217383    0.9728604374
 H   -2.1932341762   -0.5581311134   -0.2490049192
 H   -2.3485550304   -3.4034092221    0.0995837892
 H   -1.4966779508   -5.1383723444   -1.5619732956
 H    0.0698520433   -4.1857769035   -1.6944942759
 H    0.3478628038   -4.4076817130    0.6079009130