17

 C    0.2710701666    1.5046979898   -0.1015350768
 C   -0.0673381392    0.0170329667    0.0983733200
 C    0.5432345399   -0.5717098491    1.3198025252
 C    0.0730935644   -1.1157790816    2.4674134504
 N    1.1364148210   -1.5007861741    3.2780765272
 C    2.1920350016   -1.1786398470    2.6012305057
 C    3.6203408593   -1.3540991389    2.9711593387
 O    1.9168419334   -0.6070935282    1.3968016621
 H    1.3523325252    1.6494144967   -0.1763135801
 H   -0.1883641730    1.8848201598   -1.0186678390
 H   -0.0921054025    2.1038805112    0.7387294207
 H   -1.1515063887   -0.1166280551    0.1724573755
 H    0.2574278518   -0.5499010683   -0.7839499286
 H   -0.9523083966   -1.2612068634    2.7692616017
 H    4.1421288118   -1.9878853778    2.2463610535
 H    4.1424620835   -0.3919605131    3.0022897578
 H    3.6744737114   -1.8202243877    3.9551799057