15

 O    0.0152120157    1.4787122521   -0.1697526416
 C    0.0948800798    0.0789006448   -0.0996936079
 C   -1.3071937786   -0.5559319371    0.0286539713
 C   -1.3675875733   -2.0717497874    0.0176093945
 O   -0.8043522244   -2.8297994731   -0.7232828688
 C   -2.2910115060   -2.4755250685    1.1710976499
 O   -2.5601290202   -1.2770614264    1.9076838605
 C   -1.9823082346   -0.1870705645    1.3366411934
 O   -2.0089296827    0.8931002271    1.8601325526
 H   -0.4826320886    1.7729081524    0.6061666569
 H    0.5560952539   -0.2781222848   -1.0241106474
 H    0.7226448161   -0.2616855284    0.7389232783
 H   -1.9212828855   -0.1720572518   -0.7971432281
 H   -3.2285051271   -2.8981164887    0.7935988133
 H   -1.8131469946   -3.2085892257    1.8275273733