20

 C    0.2522208507    1.4954773967   -0.2663941652
 C    0.0656027007    0.0024823762   -0.0470657664
 O    0.6736248537   -0.6981954487   -1.1386473383
 C    1.2076897514   -1.9565316859   -0.7090225939
 C    2.4430309516   -2.2241790406   -1.5614071035
 O    2.1295757488   -2.2034882569   -2.9412350753
 C    1.4436564733   -1.7955832446    0.7802974848
 N    2.2022407840   -0.5653357714    1.1006373735
 C    0.7288910060   -0.5710571155    1.1949559989
 H    1.3159269732    1.7425315291   -0.2350233064
 H   -0.1524728572    1.7901670419   -1.2384390171
 H   -0.2707397578    2.0649397597    0.5087501072
 H   -1.0091441922   -0.2424109814   -0.0021657201
 H    0.4663374523   -2.7555285969   -0.8741776264
 H    3.2089921537   -1.4797481971   -1.3026456939
 H    2.8395380347   -3.2213409907   -1.3399486315
 H    1.6699064209   -1.3689028836   -3.0905946071
 H    1.5293992533   -2.6701437333    1.4159733458
 H    2.5968714172   -0.6522354526    2.0339462307
 H    0.2440302517   -0.4733104642    2.1605436241