20

 C   -0.0350501210    1.5469507228    0.0169947784
 C   -0.0047935164    0.0058806939    0.0678578023
 C    0.7146160234   -0.4904836741    1.3371312207
 C   -1.3738982158   -0.5800352324   -0.0577739797
 C   -2.0068136365   -1.3129594671   -1.0230049854
 N   -1.5211543412   -1.7050819998   -2.2837077835
 C   -3.3429694932   -1.5477292234   -0.5463527423
 C   -3.4216161915   -0.9420334030    0.6649558047
 O   -2.2491494744   -0.3456269056    0.9805496711
 H    0.9772823954    1.9594936455    0.0832584743
 H   -0.4923669051    1.9007923034   -0.9114247660
 H   -0.6195899487    1.9444380886    0.8525547046
 H    0.5651692644   -0.3456746964   -0.8031257395
 H    1.7250088915   -0.0732754656    1.3994354319
 H    0.1650336306   -0.1849742338    2.2324879291
 H    0.7907302711   -1.5818352861    1.3471523709
 H   -0.5107484373   -1.6751619443   -2.3380860456
 H   -1.8307534296   -2.6348682379   -2.5388256001
 H   -4.1274858151   -2.0885073799   -1.0531649878
 H   -4.2095213209   -0.8505361750    1.3945888220