21

 C   -0.0858969224    1.5165473367    0.1093331413
 C    0.0332396761   -0.0038535142    0.1391250683
 C   -1.3505107554   -0.6998630988    0.2779358572
 C   -1.0732521987   -1.3835002036    1.6565266695
 C    0.2313610515   -2.1185452620    1.2829088524
 C    0.7931387680   -0.6730612071    1.2824436029
 C    2.0351153542   -0.4377699865    0.4078362838
 O    1.1474577658   -0.3754597430   -0.7570529782
 C   -0.1328737569   -0.4125274421    2.4997074493
 H    0.8688329101    2.0092035476    0.3139590045
 H   -0.4089644044    1.8187867155   -0.8928453098
 H   -0.8267157255    1.8889983558    0.8225184436
 H   -2.1729376580    0.0201945027    0.2796023106
 H   -1.5565800722   -1.4516797445   -0.4884705034
 H   -1.9079514297   -1.8906144016    2.1417297078
 H    0.6534378024   -2.7076744755    2.1016022653
 H    0.2576667001   -2.6816790247    0.3473901631
 H    2.5727450706    0.5070282364    0.5506290707
 H    2.7490125951   -1.2630844975    0.3340684390
 H   -0.4528124806    0.6134579378    2.6934208896
 H    0.1688822100   -0.8944664215    3.4324081526