15

 O    0.3901141995    0.2178777769   -0.6561767812
 C    0.4110575894    1.4038834301   -0.5408150234
 O    0.8118230255    2.0100522035    0.6025055602
 C    0.8628760156    3.4361581763    0.6069979806
 C    2.2363125958    3.9255184092    0.1795342621
 O    2.4961260441    3.7344115014   -1.2311465769
 C    2.7003542470    5.1411214723   -1.4931625641
 C    2.4020331240    5.4440675794   -0.0207418307
 O    2.3069738031    6.4120196677    0.6662317071
 H    0.1051527030    2.1222224381   -1.3229532294
 H    0.0897146574    3.8524200172   -0.0502628404
 H    0.6595453538    3.7550344769    1.6325861239
 H    3.0125750081    3.4619350729    0.8023859966
 H    3.7227597608    5.3703440844   -1.8177900423
 H    1.9864742829    5.5528672138   -2.2169618222