19

 C    0.1943380743    1.5560794668   -0.0580498689
 C    0.0577804046    0.0628966852    0.0416204136
 C    1.1656190322   -0.8856005262   -0.3826042926
 C    0.6480033517   -0.9823659623    1.0109422117
 O    1.5309761416   -0.8631643021    2.0646911879
 C   -0.6666579874   -1.7555457484    1.0383653423
 C   -1.2705894287   -0.7331392943    0.0022208552
 C   -2.4491154535    0.0057627945    0.5750629209
 O   -3.5051851361    0.1684130126    0.0206825874
 H    1.2034548723    1.8671949803    0.2305260665
 H    0.0199612193    1.9057251628   -1.0825495908
 H   -0.5136328277    2.0803490202    0.5932733349
 H    0.9912158388   -1.6740176309   -1.1127555154
 H    2.1412035779   -0.4140298576   -0.4508095763
 H    1.0457399197   -0.5486858355    2.8360554497
 H   -0.6398365167   -2.8056699715    0.7317483727
 H   -1.1754004280   -1.6865182912    2.0068894455
 H   -1.5475280656   -1.1442700883   -0.9726627948
 H   -2.2776005386    0.4040712760    1.6054506204