21

 C   -0.0208778149    1.5364067518    0.0269731708
 C   -0.0462365930    0.0431705575   -0.0327576886
 C   -0.0920926680   -0.7568566307   -1.1082812665
 C    0.0851250631   -2.1902947889   -0.6468933145
 C    1.5710726047   -2.2692228297   -0.1153987418
 C    1.2869755243   -1.8384962339    1.3301032468
 C    0.2624239381   -2.9260326367    1.7492760863
 C   -0.6447815178   -2.1926597982    0.7392389250
 C    0.0202678862   -0.8558353554    1.1729540909
 H    0.9126699814    1.9021472816    0.4743514113
 H   -0.1123695026    1.9804548611   -0.9684609118
 H   -0.8358024137    1.9273036167    0.6497976818
 H   -0.0863588342   -0.4425775801   -2.1461598414
 H   -0.1933871760   -2.9696670665   -1.3566461735
 H    1.9816643701   -3.2833312843   -0.1498203374
 H    2.2370081722   -1.6038471499   -0.6690588446
 H    2.1333311969   -1.5645638678    1.9595778376
 H    0.5266479362   -3.9726360294    1.5697711250
 H   -0.0964051684   -2.8036416278    2.7748042372
 H   -1.7304664440   -2.3024848403    0.7166455402
 H   -0.3007369707   -0.4409009295    2.1300955671