17

 C   -0.5021917861    1.3747196782    0.0342344668
 C    0.0751043079   -0.0318351230   -0.0494348572
 C    1.4145410191   -0.2171512086   -0.8386434501
 C    1.9986540935   -0.9552188671    0.3850366576
 O    3.0125286254   -1.5534094195    0.5984110629
 C    0.7707676616   -0.6163044979    1.2031363076
 C    0.7545350211   -0.0912546240    2.5993448926
 N    0.2254648434   -1.4226798820    2.2964787067
 H    0.2512964892    2.0906626822    0.3796923809
 H   -0.8615913777    1.7098408215   -0.9441789729
 H   -1.3501205739    1.4203442640    0.7271715805
 H   -0.6847903844   -0.7291833544   -0.4199355005
 H    1.3725206941   -0.8023872252   -1.7602373901
 H    1.9382730284    0.7224245606   -1.0441067317
 H    1.6789158860   -0.0864489362    3.1699854779
 H    0.0650696136    0.7196567194    2.8207784789
 H   -0.7919876113   -1.3942782581    2.2554267401