16

 C    0.0905084615    1.5486877599    0.0728989557
 N    0.0060137660    0.1081974141   -0.0532449506
 C    0.3914390689   -0.5964706712    0.9324812859
 N    0.3597804535   -1.9693888510    0.9328925352
 C   -0.0796766994   -2.7689339133   -0.1020193386
 N   -0.0971323788   -4.0903656591   -0.0717687777
 C   -0.6052002265   -4.3895751815   -1.3023900773
 N   -0.8953830519   -3.3563138260   -2.0717168177
 N   -0.5472108737   -2.3073113729   -1.2749675842
 H    0.7274092033    1.9546480428   -0.7213752047
 H   -0.9035151516    1.9920943804   -0.0560636789
 H    0.4935718361    1.8813346965    1.0422858051
 H    0.7826277044   -0.1810805110    1.8691506986
 H    0.6809460330   -2.4686971695    1.7460258574
 H   -0.7638193610   -5.4044466657   -1.6348751384
 H   -0.6298846740   -1.3333593926   -1.5324761497