17

 C    0.2963860170    1.3257659035    0.1645698510
 N    0.1076728427   -0.1089938564    0.0927266042
 N   -0.0160670950   -0.7038931592   -1.1133122517
 C   -0.2070814833   -1.9912120208   -0.8395739644
 C   -0.2104816047   -2.2341778247    0.5468057500
 C   -0.0051507623   -0.9940034217    1.1205290406
 C    0.0793032177   -0.5931127510    2.5684768116
 C    1.4012736259   -0.1186535054    2.9812294339
 C    2.4863250328    0.2779975903    3.3119478877
 H    1.1341061022    1.5679221149    0.8230170337
 H    0.5064702634    1.6732896807   -0.8460758714
 H   -0.6054224193    1.8269141972    0.5344081453
 H   -0.3325761967   -2.6959965978   -1.6483830636
 H   -0.3355886654   -3.1717659878    1.0646116110
 H   -0.6663667237    0.1817784512    2.7946971952
 H   -0.1996996776   -1.4619950725    3.1741377651
 H    3.4478257362    0.6171790294    3.6090527019