17

 C   -0.0390252639    1.5022622459    0.2645175560
 C    1.3058258062    2.1257270891   -0.0598801533
 C    2.4744869246    1.7741367955    0.4838299372
 C    2.6892785656    0.7324803078    1.5140402093
 N    1.6499675589    0.5054456787    2.5318054544
 C    1.8877893954   -0.5592706775    1.5431807036
 C    0.8385727902   -0.8624480399    0.5433082415
 C   -0.0065201653    0.0106334367   -0.0121662721
 H   -0.3029867553    1.6896066334    1.3091313074
 H   -0.8123264266    1.9681651691   -0.3518698782
 H    1.3138867770    2.8910577582   -0.8319101169
 H    3.3800163634    2.2585550703    0.1263945569
 H    3.7212751192    0.6324915553    1.8428942962
 H    2.0817363188    0.2575205792    3.4170945629
 H    2.4424747523   -1.4285370341    1.8893884841
 H    0.7997720292   -1.8999954861    0.2202068245
 H   -0.7040183798   -0.3611777815   -0.7585434734