19

 C    0.0445999524    1.4994154469   -0.3418501068
 C    1.2979762398    0.7519375862   -0.0182522297
 O    1.8354124887    0.9756232919    1.2507467758
 C    1.9616979095   -0.2301937525    1.9980501521
 C    0.6031461534   -0.8124583702    2.3456409708
 O   -0.1120514956   -0.0077306300    3.3055748372
 C   -1.1567357434    0.2919872478    2.3607175962
 C   -0.4988804252   -0.5803535405    1.2661036628
 C   -0.0215958778    0.0116500710   -0.0502389953
 H   -0.3047535001    2.1994486821    0.4077464588
 H   -0.1206781020    1.8118622965   -1.3668723659
 H    2.0397564330    0.5682931887   -0.7952752314
 H    2.5593870290   -0.9718265704    1.4440355603
 H    2.4953113152    0.0303225017    2.9167718138
 H    0.7147795437   -1.8472193026    2.6962490148
 H   -2.1372664726   -0.0573546010    2.7074230939
 H   -1.2193918731    1.3653249372    2.1503441154
 H   -1.0769632591   -1.4827868128    1.0638976359
 H   -0.1952233258   -0.6180646899   -0.9166634286