25

 C   -0.2224556540    1.4898219369   -0.0386010664
 C    0.1252601265   -0.0011591303   -0.0950692657
 C    0.7768824304   -0.5145211743    1.1817533185
 C   -0.0809327593   -0.6140359035    2.4771769227
 C    0.5911434339   -1.9742593546    2.7926993676
 O    1.6774481198   -1.7033173875    3.6765034774
 C   -0.2907554229   -3.1032511018    3.3215056367
 C    0.4413047512   -4.4423725656    3.4621329838
 C    1.0662125714   -2.0371391615    1.3066440668
 H    0.6752606662    2.0993069484    0.1141591825
 H   -0.6989813964    1.8249391492   -0.9651858588
 H   -0.9104380020    1.7049704279    0.7862207102
 H   -0.7855368208   -0.5836680560   -0.2931899041
 H    0.7964221524   -0.1901706007   -0.9439279610
 H    1.6887891243    0.0552109062    1.3881114642
 H    0.0459055535    0.1544685097    3.2420987881
 H   -1.1464321869   -0.7321224538    2.2537163204
 H    2.2757839137   -2.4571664883    3.6471547518
 H   -0.6912142545   -2.7966461248    4.2960010303
 H   -1.1485955411   -3.2225231294    2.6486348587
 H    0.8571793780   -4.7748828057    2.5041953285
 H    1.2630720157   -4.3741522395    4.1836631784
 H   -0.2340522728   -5.2255354330    3.8185345058
 H    0.3876351762   -2.6310103300    0.6843129087
 H    2.0915833377   -2.3770604880    1.1336117549