20

 C    0.3098275515    0.7981275835    1.1217024170
 C   -0.0174312410   -0.0328845944   -0.1039514537
 C    0.6881491621    0.2524020115   -1.3649717912
 O    1.0687246258   -0.8617651989   -0.5609740556
 C   -1.3664495393   -0.7107100301   -0.0819161675
 C   -1.4700062361   -1.8817981297    0.8985897961
 O   -2.7197543684   -2.5259208495    0.8162661163
 C   -2.5787433173    0.0931684458   -0.3811555840
 N   -2.1360319682   -0.9655047014   -1.3094672358
 H    1.3183724996    1.2103243308    1.0409178133
 H   -0.4012168687    1.6224203828    1.2345508580
 H    0.2661634430    0.1902991857    2.0304061644
 H    0.2524462680    0.0020196433   -2.3312343936
 H    1.3986776610    1.0785835822   -1.3950002508
 H   -0.6378099726   -2.5720587991    0.6880531634
 H   -1.3576515554   -1.5284860697    1.9293926895
 H   -2.8984551463   -2.6095143284   -0.1320611875
 H   -3.5035781049   -0.1243322090    0.1432879131
 H   -2.4443415717    1.1279744775   -0.6856286618
 H   -1.6932649710   -0.5659519629   -2.1301877195