16

 N    0.2040498051    1.4233293808   -0.0235846698
 C    0.0651746637   -0.0049414476   -0.0205599462
 C    1.0278896130   -0.5850635268   -0.9585142404
 N    1.7788857586   -0.9941343110   -1.7355358586
 C   -0.0378925256   -0.6305521374    1.4404674089
 N   -1.4570815907   -0.1372124852    1.3981233993
 C   -1.4153710337   -0.6573335065   -0.0090023829
 C   -1.0752057736   -2.1376495688    0.1485869763
 C   -0.1524777118   -2.1227033245    1.1199325786
 H    0.1739955875    1.8051058418   -0.9623871665
 H   -0.5402818288    1.8258669884    0.5366751662
 H    0.6094989673   -0.2772227491    2.2416054139
 H   -2.0681100039   -0.7028639591    1.9879993188
 H   -2.1892984110   -0.3336342790   -0.7044330784
 H   -1.4402798917   -2.9549346867   -0.4559867941
 H    0.4438583556   -2.9218837193    1.5342764048