15

 C    0.0529864285    1.4538804520    0.1234496652
 C    0.0334029548   -0.0239460655   -0.0154701989
 N   -0.2499903956   -0.7400580777   -1.0545996880
 C   -0.1341847167   -2.0618325019   -0.6328694526
 C    0.2274010678   -2.0617653852    0.6678749933
 O    0.5558229641   -3.0406234601    1.5289508912
 C   -0.0734207024   -3.0537575087    2.7495824538
 N    0.2973378366   -3.8923083329    3.6059385743
 O    0.3468381432   -0.7675399497    1.0918951177
 H    1.0441440531    1.8111035313    0.4214340635
 H   -0.2119359444    1.8971234850   -0.8367499686
 H   -0.6616722960    1.7913405900    0.8815838101
 H   -0.3117804286   -2.9007699819   -1.2841358189
 H   -0.8613898087   -2.2988932203    2.8299390806
 H   -0.2612553158   -3.8024499843    4.4521455274