17

 O   -0.9664908433    1.2705827752    0.4513385285
 C   -0.0346213865    1.2652786102   -0.3202264307
 C    1.1845536455    2.1000980236   -0.2123813881
 C    1.1484721723    3.6287227957   -0.1713269373
 C   -0.0242067481    4.1637673314    0.6609045589
 C    0.5687504032    3.4187853309    1.9025124392
 C   -0.3334928779    2.5425146181    2.7456462156
 O   -1.3882555789    2.9278516063    3.1791240480
 C    1.6812917377    2.8387930866    1.0132734122
 H   -0.0571105699    0.6089992203   -1.2186852252
 H    1.9963232437    1.7427755940   -0.8415788276
 H    1.6985315480    4.1876527964   -0.9182213185
 H   -0.0056210726    5.2494146558    0.7642682124
 H   -1.0251332813    3.8486499583    0.3625731142
 H    1.0108397361    4.1522388539    2.5875402994
 H    0.0682142534    1.5348972575    2.9918846689
 H    2.7113766387    2.6985646759    1.3196991401