19

 C   -0.2538979398    1.5769934954   -0.0432769479
 C   -0.4082166679    0.0766595397    0.2204652787
 C    0.6826926282   -0.4889261305    1.1151527832
 C    0.7892199406   -2.0639048090    1.2477234294
 C    2.1740985327   -1.8788441579    0.6576370314
 N    3.3642870713   -2.3398668856    0.3603567457
 C    4.0451304477   -1.1847799085   -0.0020440725
 C    3.2646160834   -0.0482359594    0.1067039280
 N    2.0462200968   -0.5436513535    0.5144328365
 H    0.6908767977    1.7907788376   -0.5534229003
 H   -1.0642896188    1.9490200790   -0.6764144894
 H   -0.2692235854    2.1492903229    0.8906780135
 H   -1.3724509844   -0.1223475132    0.7052442728
 H   -0.4094741730   -0.4754757224   -0.7269070290
 H    0.6969740944    0.0201483745    2.0851874997
 H    0.7536933242   -2.4374402176    2.2738505680
 H    0.0696974256   -2.6156538803    0.6369325479
 H    5.0716308681   -1.2336889136   -0.3347014400
 H    3.4655956986    0.9901088025   -0.0934540656