19

 C   -0.2266172899    1.5523230452    0.1515006602
 C   -0.0240934837    0.0529815269    0.0206069371
 C    1.2126997561   -0.4529905148   -0.7761392535
 O    1.6914663477   -1.2275808921    0.3419192104
 C    0.6656293547   -0.6990059704    1.1789709708
 C    0.9426995932   -0.2360195766    2.5709638587
 C    0.0989467155   -1.4790956568    2.3182940071
 C   -1.2842845165   -0.6742628197   -0.3996298954
 O   -2.3653888822   -0.1601973067   -0.5280356373
 H    0.6916535952    2.0393730978    0.4897891408
 H   -0.5214310458    1.9867017413   -0.8082440157
 H   -1.0259029528    1.7762647272    0.8633744939
 H    1.0090469417   -1.0829620511   -1.6498122121
 H    1.9091894747    0.3459794388   -1.0566917734
 H    1.9533276431   -0.3838367275    2.9363314852
 H    0.4506436802    0.6599302332    2.9349606174
 H   -0.9680967274   -1.4277100878    2.5107345459
 H    0.5518043032   -2.4433045821    2.5228622787
 H   -1.1382083571   -1.7642542148   -0.5773565888