20

 C   -0.4377141735    1.7199406119    0.0407378509
 C   -0.3143775628    0.2077803741   -0.1624059930
 N   -1.5745019409   -0.5066146271    0.0691433177
 C   -2.4468733836   -0.6679221820   -1.0864065588
 C   -1.8384603917   -0.9010689212    1.3410593261
 O   -1.1030830377   -0.6418247500    2.2873224343
 C   -3.0819692714   -1.7761180532    1.6296593349
 C   -3.6137164673   -1.6406170112    3.0357740771
 O   -3.5286190614   -2.5560081594    0.8201287163
 H    0.5178885919    2.2084121086   -0.1737380550
 H   -1.1936421922    2.1561857924   -0.6203288245
 H   -0.7106583753    1.9374526702    1.0760055296
 H    0.0070079012   -0.0212355370   -1.1840164993
 H    0.4261662314   -0.1982429720    0.5288365747
 H   -2.0611156215   -1.4368129105   -1.7666215250
 H   -3.4494434411   -0.9561339794   -0.7860381554
 H   -2.4981407964    0.2803898403   -1.6327870511
 H   -3.9597571882   -0.6143392646    3.2049250895
 H   -4.4340264168   -2.3426463296    3.1865922556
 H   -2.8070073826   -1.8129858503    3.7519511352