16

 C   -0.1223504510    1.3649473396   -0.0299044700
 N   -0.0232952278   -0.0684405393    0.1236836008
 C    0.6057478647   -0.6391727242    1.1772791952
 N    1.1545906880    0.0583751014    2.1074961828
 C    0.5758849619   -2.1559537255    1.1131358064
 O    0.0327273074   -2.7360358756    0.1936082182
 C    1.2357253669   -2.9669460766    2.2163251162
 O    1.1042454419   -4.3360983109    1.9824749503
 H    0.8713428297    1.8241579180   -0.0814461131
 H   -0.6688980981    1.5870953791   -0.9480196569
 H   -0.6466754232    1.8158851243    0.8202129062
 H   -0.4229010638   -0.6950500419   -0.5546539133
 H    1.5791879217   -0.5331802148    2.8167581903
 H    2.2962587439   -2.6724850043    2.2752187245
 H    0.7779599535   -2.6807562406    3.1772881616
 H    0.6106685842   -4.4133564288    1.1510234108