17

 C   -0.1972331458    1.5941422015    0.4707644062
 C   -0.1729376200    0.0956613497    0.3068440273
 N    0.8926976394   -0.5016724708   -0.4832524252
 C    0.8763481246   -0.7921876510    0.9592178206
 C    2.0057698925   -0.2524282199    1.8092108253
 C    0.3287610204   -2.1379540022    1.3043501375
 O   -0.2763017744   -2.8428082238    0.5261885686
 C    0.5427748242   -2.6023820382    2.6891524332
 N    0.6996809148   -2.9702724569    3.7741021487
 H    0.8089821942    2.0154793503    0.4907276753
 H   -0.7288323743    2.0442073743   -0.3744778657
 H   -0.7220641525    1.8797237769    1.3878464800
 H   -1.1535814452   -0.3703833436    0.2221855060
 H    0.5374417981   -1.3199397831   -0.9784710563
 H    2.3256410128    0.7208504992    1.4377741791
 H    1.7036166543   -0.1455034528    2.8550334927
 H    2.8722592767   -0.9204186094    1.7731667067