23

 C   -0.1047736178    1.5368067113    0.0203124296
 C    0.0770012640    0.0195789173    0.0235562130
 C    1.0262503977   -0.5321737962   -1.0902620137
 C    2.0044796980   -1.3305813005   -0.2064466047
 O    2.9936895547   -2.0904698685   -0.8304211847
 C    2.2996050688   -0.3205924880    0.9458896376
 C    0.7945866762   -0.5786180018    1.2711336575
 C    0.2046728190   -0.2957458562    2.6334807047
 C    1.0530285456   -2.0397557735    0.7814326383
 H    0.8480057008    2.0620954814    0.1477797703
 H   -0.5395202111    1.8717238897   -0.9276318531
 H   -0.7750856079    1.8627282321    0.8225913082
 H   -0.9135668661   -0.4434554840   -0.0660982649
 H    0.5178692028   -1.1716271021   -1.8179104956
 H    1.5330873571    0.2712672974   -1.6391013284
 H    3.4482782252   -1.5299500760   -1.4683951218
 H    2.9656698607   -0.7477551194    1.6992844173
 H    2.6193909585    0.6937081521    0.6881456202
 H    0.2164111215    0.7751928981    2.8638294275
 H   -0.8369783985   -0.6348293982    2.6903557664
 H    0.7647428944   -0.8091447774    3.4218447929
 H    0.2114174769   -2.6067859284    0.3708305834
 H    1.5960217096   -2.6381465892    1.5168868599