19

 C   -0.1286214928    1.5769020765    0.0518651966
 C   -0.0907221780    0.0473084630    0.0502075802
 C    0.8299441594   -0.5239320489    1.1471879265
 C    0.8900839745   -2.0132398021    1.1782321220
 C    1.9073145068   -2.8632592311    0.9192019496
 N    1.4285340325   -4.1643260608    1.0757954284
 C    0.0905812278   -4.1664647925    1.4463925062
 O   -0.6343625173   -5.1153372926    1.6729145366
 N   -0.2154481764   -2.8102565058    1.4949923382
 H    0.8690359685    1.9976462354   -0.1161596835
 H   -0.7874559855    1.9586023556   -0.7337626142
 H   -0.4927316863    1.9646582489    1.0098711481
 H   -1.1062399899   -0.3464922686    0.1831602334
 H    0.2514026644   -0.3213091418   -0.9238845455
 H    1.8479103281   -0.1454398202    1.0007857868
 H    0.4994437991   -0.1414020061    2.1241357045
 H    2.9252945190   -2.6543261705    0.6386558177
 H    1.9491991271   -5.0160273994    0.9697303528
 H   -1.1312057311   -2.4878810288    1.7528976054