20

 C    0.0570945178    1.5100070949   -0.0134216012
 C   -0.1656848061    0.0250792203   -0.2424441162
 O    0.9276017444   -0.4804066282   -0.9874556583
 C    0.8806693827   -1.8526961662   -1.1809882287
 C    0.0872657419   -2.4582867768   -2.3895968075
 N    1.1164381892   -1.8090909282   -3.2921629820
 C    1.9210879573   -2.4359081942   -2.1637410503
 C    1.0338037639   -3.7000838269   -2.2767419073
 O    1.0008963165   -4.5709138274   -1.1761251051
 H    0.9853064963    1.6766415839    0.5405201777
 H    0.1297457788    2.0363533831   -0.9690907997
 H   -0.7721690097    1.9369782518    0.5586620091
 H   -0.2472316088   -0.5089998871    0.7196036982
 H   -1.1087487490   -0.1439612798   -0.7867706753
 H    0.7621401407   -2.3976176708   -0.2389584763
 H   -0.9806469971   -2.4237967298   -2.6119976850
 H    1.2291517311   -2.3796530863   -4.1388106173
 H    3.0080943366   -2.3660513430   -2.1166974419
 H    1.1593083448   -4.2353524037   -3.2283701107
 H    0.3031233986   -5.2176890457   -1.3216429022