17

 C   -0.0082421535    1.5506852722    0.0488250987
 C   -0.0129662983    0.0337054008    0.0094241086
 O    0.7091018568   -0.4406501626    1.1369220894
 C    0.7977597382   -1.7868171342    1.2474471149
 C    0.3055510515   -2.8038512852    0.4509735156
 N    0.6960985084   -3.9666621607    1.0407437103
 N    1.4124275079   -3.7709970626    2.1720942590
 C    1.4743978014   -2.4562239983    2.2983699848
 O    2.1149253955   -1.8501165873    3.3199946915
 H    1.0158008084    1.9323221321    0.0152624644
 H   -0.5582453395    1.9521094862   -0.8073695418
 H   -0.4799842594    1.9120566430    0.9666062526
 H   -1.0414359761   -0.3584411061    0.0379561092
 H    0.4577915377   -0.3384700703   -0.9137271333
 H   -0.2720147883   -2.7884259999   -0.4575845269
 H    0.5154180454   -4.9046665359    0.7345374232
 H    2.4780233040   -2.5504561010    3.8763061598