15

 O   -0.1676874254    1.3512847186    0.0617811947
 C   -0.0033778678   -0.0077964026    0.0367849035
 C   -0.2231463187   -0.8669667291   -1.2175855309
 N    0.5552122011   -2.1067339781   -1.0125791794
 C    0.0347047368   -2.0547535750    0.3957459374
 C   -1.1097038719   -1.0371645276   -0.0065157748
 C    0.8358922632   -0.8612511744    1.0045288971
 C    2.2905473208   -0.8587317363    0.9187582893
 N    3.4447401035   -0.8178928457    0.8688617216
 H    0.5584290275    1.7610629447   -0.4234685122
 H   -0.4192347248   -0.4198064227   -2.1835109718
 H    0.0636111793   -2.8619005473   -1.4897686406
 H   -0.0629080042   -2.9883091368    0.9425235343
 H   -2.1707343769   -0.9617456123    0.1870841646
 H    0.5184821873   -0.6660349155    2.0320496172