27

 C    0.1047705216    1.5389078180   -0.3084751129
 C    0.0126024459    0.0609573716    0.0809322684
 C   -1.4030101959   -0.5111742729   -0.0533773972
 C   -1.4944789498   -1.9909670739    0.3491586495
 C   -2.8718334644   -2.6124411808    0.1552522860
 C   -3.9706114569   -2.0024591180    1.0102245540
 C   -3.2591435488   -3.0839722521   -1.2316914657
 C   -3.0018704028   -4.0963731302   -0.1379959084
 C   -1.8389464298   -5.0626348979   -0.2106938938
 H    1.1260279002    1.9186726066   -0.2033716443
 H   -0.2026622993    1.6939625470   -1.3488060211
 H   -0.5460870289    2.1552899786    0.3217954160
 H    0.7014547757   -0.5257520778   -0.5415696313
 H    0.3584328407   -0.0673663020    1.1154221435
 H   -2.0878705840    0.0880513275    0.5598429411
 H   -1.7459966001   -0.3977916256   -1.0908836055
 H   -0.7515197691   -2.5498258491   -0.2305764663
 H   -1.1960433914   -2.0947365783    1.4027198831
 H   -4.1313094770   -0.9448061787    0.7749301566
 H   -4.9231916203   -2.5189789398    0.8555451905
 H   -3.7247050709   -2.0712557794    2.0772108254
 H   -4.2765788442   -2.9250570579   -1.5747998256
 H   -2.5124597583   -3.0026596461   -2.0167248241
 H   -3.8978320751   -4.5458595799    0.2857286972
 H   -0.9697409243   -4.6316198326   -0.7148290077
 H   -1.5188216953   -5.3841773709    0.7871394665
 H   -2.1235481872   -5.9603364052   -0.7711747438