20

 C    0.0899116413    1.5292343163    0.0162306199
 C   -0.0764410600    0.0277538128    0.0162725294
 C   -0.8951319075   -0.6480900323    1.0578095666
 N    0.5834610637   -0.7327305115    1.1001883301
 C    1.2422943730   -1.8892544547    0.5159628706
 C    0.5832511000   -3.0376764623   -0.2174700434
 O   -0.7815501278   -3.3261061172   -0.1092696881
 C    1.1120830673   -1.8639741207   -1.0048123946
 C    0.1532264596   -0.7105333117   -1.3168073507
 H    1.0693188626    1.8167236008   -0.3835724212
 H   -0.6792565528    2.0076350255   -0.6015693892
 H    0.0079188007    1.9264143878    1.0312219693
 H   -1.3147118901   -0.0483030299    1.8628524081
 H   -1.4576012994   -1.5320277963    0.7959105578
 H    2.1861005500   -2.1193353637    0.9993717936
 H    1.2083921477   -3.9318800949   -0.2543667164
 H   -1.0794081968   -3.6543346301   -0.9647913700
 H    1.9576553902   -2.0197977896   -1.6666469231
 H   -0.7888151759   -1.0567729370   -1.7565789300
 H    0.6159157340   -0.0365653214   -2.0431994288