25

 C   -1.5915013384   -0.3408330773   -0.0662725516
 C   -0.0888084903   -0.0974006842    0.1327427025
 C    0.4130979364   -0.7844891454    1.4054275470
 O   -0.2189440420   -0.1608227623    2.5176069740
 C    0.7622960178   -0.4558262001   -1.1011798842
 C    0.7382619194   -1.9483790627   -1.4517285190
 C    0.4953167279    0.4284296985   -2.3649187265
 C    2.0250668919    0.6192230704   -2.5393659111
 C    2.2270652264    0.1006261459   -1.0914228888
 H   -1.9698989200    0.1941382594   -0.9429347774
 H   -1.8138596056   -1.4050163295   -0.2015851486
 H   -2.1438924486    0.0037371745    0.8109085463
 H    0.0505952280    0.9791290809    0.3055090206
 H    0.1752401173   -1.8594392924    1.3753737832
 H    1.5085172357   -0.6907400415    1.4752037830
 H    0.0298809926   -0.6409684308    3.3123577902
 H   -0.2770442734   -2.2977383548   -1.6649509447
 H    1.3444941081   -2.1460275840   -2.3421254258
 H    1.1441994495   -2.5625944218   -0.6406731459
 H   -0.0506915806   -0.0394530507   -3.1891118243
 H   -0.0085266728    1.3647142093   -2.1064106066
 H    2.4494002196   -0.0536137549   -3.2891113826
 H    2.3761542019    1.6305736978   -2.7562104663
 H    2.3469918638    0.9191222014   -0.3747888411
 H    3.0303743154   -0.6229805657   -0.9253633324