21

 C    0.0394056071    1.4501734417   -0.1600798033
 N    0.0997337818    0.0133845231    0.0549340419
 C    1.4121287401   -0.6192013004    0.0096626286
 C    0.6621363018   -0.5328378358    1.2956178137
 C    1.1633589503    0.3121874912    2.4491866208
 C    0.0265042606    0.7446232270    3.3897933476
 N    0.4932799449    1.4853038141    4.5519117509
 C    0.7914146586    0.8811775951    5.7331176028
 O    0.6654888992   -0.3035907709    5.9608109732
 H    0.9081872236    2.0153239076    0.2149227111
 H   -0.0332925858    1.6368194182   -1.2364788716
 H   -0.8638778584    1.8537519436    0.3101971081
 H    1.4791546801   -1.5545498217   -0.5403215829
 H    2.2840584220    0.0279432635   -0.0916827412
 H    0.1317400019   -1.4276149768    1.6227530061
 H    1.8800309608   -0.2802546427    3.0299853873
 H    1.7054441515    1.1924566033    2.0879613429
 H   -0.7036369900    1.3589370329    2.8528298247
 H   -0.4935328382   -0.1391427906    3.7684761609
 H    0.6932247004    2.4681930278    4.4585491858
 H    1.1590786378    1.6070036798    6.4860356325