15

 N   -0.1243305366    1.3136756878   -0.3470693432
 C   -0.1032671268   -0.0577435819   -0.1313655571
 C   -1.1287512171   -0.9907680272   -0.0229877699
 C   -2.6112630076   -0.7691125060   -0.1521599987
 C   -2.9481327995    0.1881936807   -1.2105714700
 N   -3.1583505455    0.9827526149   -2.0241378058
 C   -0.4643873752   -2.2044976694    0.2738408337
 N    0.8484189326   -2.0641023803    0.3520841694
 N    1.0447372665   -0.7407901438    0.1000357832
 H    0.6966115227    1.6662459937   -0.8224555088
 H   -0.9585493793    1.6229414004   -0.8321279242
 H   -3.1120535828   -1.7179474763   -0.3740362774
 H   -3.0609057317   -0.3970748042    0.7793178317
 H   -0.9108212715   -3.1771768670    0.4287535193
 H    1.9807232818   -0.3734700215    0.1229972879