18

 N   -0.1170432063    1.1810450387   -0.3351024160
 C   -0.0395602934   -0.0362231042   -0.0426306192
 O    1.0259090254   -0.7883182657    0.4035599986
 C    0.1877851249   -1.9815372324    0.5199537648
 C   -1.0289712946   -1.1887023291   -0.0096221626
 C   -2.2449909293   -1.0306078289    0.9002851782
 C   -3.2600744671   -0.0137882834    0.3362298765
 C   -4.4184924396    0.1561606537    1.2035570461
 C   -5.3628467686    0.2756323624    1.9376164225
 H    0.7774942978    1.6574021659   -0.2081128675
 H    0.5647418106   -2.7881899327   -0.1126182048
 H    0.1236012773   -2.3097782692    1.5608863015
 H   -1.3361360624   -1.4952507062   -1.0143835502
 H   -2.7337988752   -2.0028776168    1.0291335083
 H   -1.9233071537   -0.7028673974    1.8950799264
 H   -2.7547909261    0.9471903993    0.1848417039
 H   -3.5915603915   -0.3439221870   -0.6573460967
 H   -6.2023238682    0.3947393330    2.5764356601