13

 C   -0.0043462771    1.5308646516    0.0137706628
 C    0.0638794012    0.0224328051   -0.0127934105
 O    0.7333229041   -0.4361098227   -1.1887870660
 C    1.7800535746   -1.2162614886   -0.8347471877
 N    2.5392525670   -1.7817583238   -1.6622898153
 C    1.8311204187   -1.2398723823    0.6739638338
 O    2.6141839770   -1.8038656210    1.3758322045
 O    0.8013524270   -0.4749540022    1.1093844966
 H    1.0037809267    1.9525588356   -0.0044055594
 H   -0.5572700954    1.8855366658   -0.8594122944
 H   -0.5179872910    1.8618211909    0.9196146993
 H   -0.9305894245   -0.4374938025    0.0140183190
 H    3.2491769917   -2.3039330359   -1.1453905627