23

 C    0.0439208474    1.6040280651    0.0419433281
 C   -0.0214241764    0.0739946001    0.0334626992
 C    0.6717977901   -0.5516676238    1.2392414268
 O   -0.0453592580   -0.1604323996    2.4103091918
 C    0.6204930252   -0.5903465898    3.5866064880
 C    0.7810891763   -2.1057355789    3.5794807740
 O    1.4339131436   -2.5355155283    2.3946823051
 C    0.7945142719   -2.0852427564    1.1934855339
 C   -0.5275306023   -2.8168575664    0.9411890949
 H    1.0805974234    1.9556057580   -0.0055963669
 H   -0.4915379784    2.0261349494   -0.8136430690
 H   -0.4033329675    2.0001004223    0.9570133195
 H   -1.0672282692   -0.2519650790    0.0189142476
 H    0.4471228899   -0.3194953802   -0.8774962069
 H    1.6999568628   -0.1542660326    1.3122672807
 H    1.6118369020   -0.1127284473    3.6550171238
 H    0.0142711891   -0.2623549493    4.4370685243
 H    1.4084051764   -2.4351463867    4.4140725327
 H   -0.2046732380   -2.5833594042    3.6842545202
 H    1.5048126300   -2.3482141330    0.4010094614
 H   -1.3234812694   -2.4550222640    1.5970361349
 H   -0.8544476731   -2.6739241571   -0.0926330276
 H   -0.3896723558   -3.8881590784    1.1104021334