19

 C    0.2941431671    1.4634491170    0.2957734588
 C   -0.3511008051    0.1930164795   -0.2874383004
 C    0.4191028534   -0.3959391619   -1.3778516821
 C    1.0724870365   -0.8780873227   -2.2691034743
 C    1.8481875031   -1.4256127619   -3.3711981665
 O    1.2320998509   -1.1925369826   -4.6236555943
 C    3.3831140676   -1.1401373596   -3.3104292740
 O    3.6725393535   -2.5230443292   -3.0415403732
 C    2.2988882299   -2.9040495045   -3.2333744014
 H    1.2901970162    1.2469536473    0.6909019638
 H    0.3957162513    2.2359794267   -0.4712453469
 H   -0.3200805135    1.8628237557    1.1080116650
 H   -0.4766811352   -0.5541340122    0.5065863307
 H   -1.3630113216    0.4234693989   -0.6444515921
 H    0.7761678204   -0.3459551951   -4.5752667114
 H    3.7756438413   -0.8084913691   -4.2799824366
 H    3.7314943904   -0.4791031443   -2.5101922932
 H    1.8960863387   -3.4625058413   -2.3830811066
 H    2.1414891453   -3.4617320707   -4.1645912254