21

 C    0.1674138471    1.4076260795    0.1353963642
 O   -0.1317899181    0.0501826892   -0.0848756220
 C    0.5872545584   -0.5473038017   -1.1570305265
 C    2.0681334172   -0.6812147718   -0.8768598944
 C    2.6099191776   -1.8577892335   -0.5737933070
 C    1.7891433785   -3.1099012060   -0.4626534908
 O    0.4007346218   -2.8682857250   -0.4458707587
 C   -0.0168640593   -1.9339930326   -1.4348403951
 C   -1.5371140087   -1.9457521630   -1.4550037858
 H    1.1915199596    1.5591388095    0.5059249102
 H    0.0391752285    2.0080272617   -0.7802937501
 H   -0.5314557785    1.7717379112    0.8927727936
 H    0.4495233423    0.0708557006   -2.0628667457
 H    2.6860777023    0.2090378499   -0.9486338740
 H    3.6800748184   -1.9624810371   -0.4105431155
 H    2.0579738259   -3.7969974265   -1.2891003746
 H    2.0228421591   -3.6375907827    0.4699357530
 H    0.3681559651   -2.2525398837   -2.4197817503
 H   -1.9271682986   -1.6411883142   -0.4828738446
 H   -1.9157003215   -1.2538040288   -2.2134873366
 H   -1.8966328670   -2.9514627952   -1.6870808693