20

 C   -0.0101125719    1.5301681610    0.0229919156
 C   -0.0484195702   -0.0028693827   -0.0332705279
 C   -1.4400914657   -0.5545635974    0.0657545537
 N   -2.5534404697   -0.2343104980   -0.9533072693
 C   -3.2394031389   -1.1830111693    0.0276505835
 C   -1.9381213436   -2.0409257404   -0.0184750240
 C   -1.6322424789   -2.8401457367   -1.2755330425
 C   -2.5531124481   -0.3369007492    1.1184767234
 O   -2.7929228280    0.3045829437    2.0969687496
 H    1.0202302738    1.8951566457   -0.0079122349
 H   -0.5421235340    1.9687971113   -0.8275687730
 H   -0.4758027292    1.8978940090    0.9420830854
 H    0.4172231349   -0.3623308736   -0.9590103259
 H    0.5370180949   -0.4212934171    0.7950385527
 H   -2.8979636339    0.7227110171   -0.8351950956
 H   -4.2733588890   -1.4952118046   -0.1061556615
 H   -1.7532987661   -2.6226892959    0.8893167817
 H   -1.8310300530   -2.2561889107   -2.1750816288
 H   -0.5816434095   -3.1499757554   -1.2851287911
 H   -2.2415701538   -3.7493506068   -1.3071490212