21

 C    0.0308924987    1.4167208728   -0.0133659763
 O   -0.0007760078    0.0042175787   -0.0225368054
 C    0.6319925319   -0.5607101819   -1.1291001994
 C   -0.0545527011   -0.4370022962   -2.5172584230
 C    0.3119383341   -1.9149833640   -2.8173505124
 C    1.8012392864   -2.1119208573   -3.1965787550
 C    2.2068512760   -1.9645642553   -1.7084974236
 C    2.1821841491   -0.4955328667   -1.2083534613
 C    0.6940716725   -2.1135637000   -1.3046164908
 H    1.0600991096    1.8045279251    0.0109862395
 H   -0.4784449479    1.8448694437   -0.8894472941
 H   -0.4889703816    1.7449460798    0.8896109505
 H   -1.1345323725   -0.3314252268   -2.3745820814
 H    0.2962873182    0.3304770111   -3.2150807814
 H   -0.4294075100   -2.5110520690   -3.3495293197
 H    1.9779686423   -3.1343137022   -3.5443085909
 H    2.2425585897   -1.4166419701   -3.9196598718
 H    3.0099272503   -2.6010462173   -1.3369253295
 H    2.6485673601    0.2689314230   -1.8385510130
 H    2.5901609274   -0.4289040782   -0.1949553127
 H    0.2708341145   -2.8378437993   -0.6137340181