20

 C   -0.0208942398    1.5566645002    0.0247063447
 C   -0.0108350581    0.0285743530   -0.0234560518
 O   -1.3523785910   -0.4799544264   -0.0414959160
 C    0.7387956310   -0.5054248166   -1.2658284753
 N    0.7399863622   -1.9618289139   -1.3532226551
 C    1.3696808522   -2.5797924496   -0.1810253595
 C    0.8121170360   -2.0846406145    1.1546220925
 O    0.5707499094   -2.8268348038    2.0764695738
 C    0.6182338467   -0.5741949062    1.2455290328
 H    0.9952677955    1.9622501435    0.0579917991
 H   -0.5123080572    1.9685831342   -0.8653541473
 H   -0.5637542923    1.9075028746    0.9071797877
 H   -1.8279734199   -0.0383125975   -0.7540873351
 H    0.2705230910   -0.1003488935   -2.1721031654
 H    1.7780312036   -0.1501316793   -1.2565963122
 H   -0.2300403707   -2.2649223222   -1.3856117447
 H    1.2651008980   -3.6664163791   -0.2243224697
 H    2.4457295594   -2.3489851534   -0.2063988285
 H    1.6117697343   -0.1277964782    1.3883462396
 H    0.0129361097   -0.3463931912    2.1262253905