19

 C   -0.3609647207    1.1163684737   -0.5428117074
 N   -0.1447284709   -0.3180940274   -0.4325162424
 C   -1.0022003330   -1.0111870121    0.5148822980
 C    0.8812537367   -0.8832518322   -1.1315000495
 O    1.6292861577   -0.2469436247   -1.8594859781
 C    1.1076223557   -2.3992848292   -0.9886879924
 O   -0.0222210571   -3.2012235278   -1.3334013891
 C   -0.3187247544   -3.2700155672   -2.6532018983
 N   -1.3557075043   -3.8822165098   -3.0247809136
 H   -0.1870138938    1.6089308201    0.4223693973
 H    0.3323361383    1.5143411228   -1.2814107928
 H   -1.3929335587    1.3213398760   -0.8507465488
 H   -2.0496798408   -0.7582605474    0.3137850957
 H   -0.9040905466   -2.0897092154    0.4233926363
 H   -0.7751018209   -0.7063573939    1.5455879574
 H    1.9645244262   -2.6320783971   -1.6265820745
 H    1.3544206908   -2.6673090211    0.0419072665
 H    0.4168353196   -2.7647687235   -3.2921872281
 H   -1.4253636137   -3.8622226836   -4.0401283062