11

 O   -0.1223929318    0.0090911249    0.0019065921
 C   -0.0142976576    1.2114969748    0.0076010197
 C    1.2560756688    1.9030549133   -0.0010854078
 C    2.3033774746    2.5044234694   -0.0081206552
 C    3.5233621454    3.2068516702   -0.0163182747
 N    4.7384100186    2.7283277857   -0.0319916678
 C    5.4868263533    3.8726152467   -0.0322243851
 N    4.8008892002    4.9869647137   -0.0165848983
 O    3.4832951124    4.5557068147   -0.0055463905
 H   -0.8937518138    1.8838391191    0.0200507414
 H    6.5668049800    3.8775586574   -0.0435558436