19

 C    2.4846042155    0.1606290314   -0.8735844692
 C    1.5396401585   -0.7902501178   -0.1808659132
 O    2.1195517295   -1.7543948756    0.7038632976
 C    1.1871876657   -0.8203732328    1.2543083260
 C    1.6677934965    0.1122053032    2.3647713917
 C    2.4818743524   -0.6776234684    3.3990927815
 O    2.5040727000    1.1894274236    1.9546330615
 C    0.4592431961    0.7180103869    3.0960765089
 O   -0.6485832091    0.2517213022    3.1373717077
 H    3.2746352044    0.4953444255   -0.2024072428
 H    2.9423068733   -0.3447679639   -1.7303513796
 H    1.9435132442    1.0313704492   -1.2634419058
 H    0.7848530058   -1.2189691961   -0.8455742461
 H    0.2245312394   -1.2637634426    1.5102571953
 H    3.3686230388   -1.0786066392    2.9039387415
 H    2.7914478944   -0.0225950500    4.2180710739
 H    1.8944145977   -1.5060683900    3.8023459948
 H    2.0410434663    1.6961042329    1.2788838051
 H    0.7227836205    1.6695670514    3.6120371211