15

 N   -0.2038778960    1.3560738313   -0.4115030895
 C   -0.0985493647    0.0125360600   -0.0986017647
 C   -1.0376092449   -0.9984571090    0.0388537898
 C   -2.5346401930   -0.8974210725   -0.0076024825
 C   -2.9646016931   -0.3246859134   -1.3473214425
 O   -2.9265265601    0.8567436862   -1.6020181185
 N   -0.3782829811   -2.1727154726    0.2576312073
 N    0.9010189323   -1.9626390275    0.2872316824
 N    1.0813882555   -0.6333842628    0.0607199333
 H    0.2689536144    1.9880269545    0.2208900642
 H   -1.1620677128    1.6359511768   -0.5899562437
 H   -2.9529117338   -1.8954943673    0.1429606311
 H   -2.9113580039   -0.2300349493    0.7775648341
 H   -3.2843897905   -1.0578101680   -2.1168758191
 H    2.0149487317   -0.2610131161   -0.0064759417