14

 C   -0.0278860991    1.4178735373    0.0100182551
 C   -0.0014067367   -0.0352357657    0.0041316392
 C    0.0236364169   -1.2396546055   -0.0010605040
 C    0.0342379688   -2.6565280781   -0.0053850835
 N    1.1565034695   -3.3593048193   -0.1133754307
 N    0.6926833068   -4.6417326598   -0.0722843763
 C   -0.6468724063   -4.6366233275    0.0548096274
 O   -1.3385870790   -5.7773282838    0.1178535241
 N   -1.1145324353   -3.4141096187    0.1019320160
 H    0.9862018459    1.8298443422    0.0477063727
 H   -0.5144511589    1.8091702751   -0.8904193013
 H   -0.5771527487    1.8000938840    0.8775184927
 H    1.3254230733   -5.4213249627   -0.1341608959
 H   -2.2692446574   -5.5343190973    0.2066986945