21

 O   -0.3941149513    1.3062814253    1.0869161211
 C   -0.1003773550    0.2027253472    0.2660981504
 C    0.5320327160   -1.0221472608    0.9867184893
 C   -0.8213706181   -1.7826898501    0.8877580773
 C   -1.6503638796   -1.7637914241    2.1709510202
 O   -2.1395492508   -0.4524971999    2.4500279588
 C   -3.1752425889   -0.0878106804    1.5374815445
 C   -2.7258308579   -0.1217048921    0.0528101167
 C   -1.3197532082   -0.7030849256   -0.1332425605
 H   -0.8545813879    0.9546910253    1.8646987326
 H    0.4664309949    0.6028540096   -0.5788501297
 H    1.3290058974   -1.4963586952    0.4078534565
 H    0.9080856725   -0.8190982768    1.9944800054
 H   -0.7567727509   -2.8069636364    0.5094575113
 H   -2.5045451572   -2.4554812112    2.0970287335
 H   -1.0495970311   -2.0605357306    3.0371464050
 H   -4.0279457614   -0.7650388432    1.6958739890
 H   -3.4856305684    0.9160402248    1.8357688677
 H   -3.4464467535   -0.7086464379   -0.5261906115
 H   -2.7365968652    0.8915507689   -0.3604836834
 H   -1.1991198155   -1.0515894567   -1.1628169043