19

 C   -0.0302299488    1.5156636609    0.0085719669
 C   -0.0077855614    0.0063596278    0.0107069068
 C   -0.0206573533   -0.6971504164   -1.1942726956
 C   -0.0003087508   -2.0893885131   -1.2213012872
 C    0.0335504399   -2.7979791445   -0.0259861695
 C    0.0468433570   -2.1120972442    1.1864118033
 C    0.0265139161   -0.7186226039    1.2165847847
 C    0.0412703529    0.0205294910    2.5347706534
 O    0.0741962555   -0.8995562607    3.6102829738
 H    0.8536942324    1.9385000234    0.5021146149
 H   -0.0571191187    1.9056620709   -1.0118852069
 H   -0.9050632075    1.9124615414    0.5385490213
 H   -0.0471524327   -0.1407768704   -2.1268740762
 H   -0.0109354510   -2.6133590452   -2.1714672852
 H    0.0496934877   -3.8830210507   -0.0322460170
 H    0.0731408666   -2.6522985455    2.1239321033
 H    0.9151957217    0.6938529050    2.5664502742
 H   -0.8489218967    0.6696904320    2.5998557810
 H    0.0851590910   -0.3981967178    4.4298033540