18

 N    0.0178942916   -1.1474692210    0.1750263466
 C    0.0260404343    0.0058059969    0.0962173035
 C    0.0147157265    1.4524870788   -0.0379176760
 C   -1.2164705366    2.0465641195   -0.7177735670
 C   -0.8884152535    3.2619391997   -1.6014952506
 C    0.1296560263    4.2024997842   -0.9468174915
 C    1.4730299258    3.4882002649   -0.7435893527
 C    1.3192419965    2.1646132446   -0.0321733089
 O    0.4868533129    2.1480597222    1.1270874285
 H   -1.7096369422    1.2702818376   -1.3097945816
 H   -1.9147100757    2.3271069061    0.0791744155
 H   -0.4840746081    2.9128260707   -2.5606148868
 H   -1.8156819815    3.7961316428   -1.8309712303
 H    0.2806449208    5.0896915990   -1.5692301141
 H   -0.2499365892    4.5491235178    0.0206121234
 H    1.9504750464    3.2940062417   -1.7130986949
 H    2.1680901251    4.1147188208   -0.1722149306
 H    2.2207495707    1.5590485037    0.0636620475