20

 C   -0.3016647220    1.5117078382   -0.0217296046
 C    0.0190618975    0.0331637269    0.0644813830
 C    1.3279452998   -0.6215685181   -0.3118577884
 C    2.6025178328    0.2170958172   -0.3784677660
 C    2.7367831027    0.9118151975    0.9981527471
 C    1.8177723298    0.1362072249    1.9824366597
 O    1.1049030587    0.9809873167    2.8825546413
 C    0.8491426660   -0.6560485635    1.1270778645
 H    0.5684033627    2.1553968298    0.1086082054
 H   -0.7357583440    1.7437862845   -1.0010950162
 H   -1.0303790366    1.7932933030    0.7447266298
 H   -0.8378437820   -0.5766897609   -0.2165809942
 H    1.2879776240   -1.5103418055   -0.9333792296
 H    3.4528197210   -0.4508775497   -0.5541221917
 H    2.5973379185    0.9384457844   -1.2036353683
 H    3.7751357581    0.9307113682    1.3437458886
 H    2.3985649553    1.9503569663    0.9629498708
 H    2.4214490740   -0.5829029166    2.5587137913
 H    1.7471585092    1.4098315853    3.4571071927
 H    0.4420683545   -1.5609968786    1.5651478949