14

 N   -0.1090333805    1.3027729729   -0.0958521077
 C    0.0642741138   -0.0455763948   -0.0091907961
 O    1.1244534940   -0.6200526866    0.0720828916
 O   -1.1449493203   -0.6686452380   -0.0592774536
 C   -1.0586339867   -2.1029520774   -0.0267484474
 C   -2.4020459895   -2.6506195137   -0.0049272283
 C   -3.5037084794   -3.1485084640    0.0144846677
 C   -4.7459401406   -3.7026652866    0.0359465764
 C   -5.8476762206   -4.1959462826    0.0552290168
 H    0.6895340063    1.8744925215    0.1169207914
 H   -1.0274257880    1.6910047598    0.0333403242
 H   -0.5051440971   -2.4573693920   -0.9042243139
 H   -0.4899500309   -2.4169248599    0.8557547459
 H   -6.8171677006   -4.6285591188    0.0716416330