23

 C    0.0882466107    1.4351759376    0.3009881445
 C   -0.0088193467   -0.0580702040   -0.0273876575
 C   -1.4532188991   -0.5103505908   -0.2176822468
 O    0.6765745352   -0.3591289338   -1.2408703041
 C    2.0805178036   -0.5461355152   -1.1300311724
 C    2.4315475732   -1.9817550929   -0.6382398941
 C    2.7884734257   -2.7158623491   -1.9070185539
 C    2.9176671208   -1.8911041173   -2.9437994286
 C    2.6656095377   -0.4543924407   -2.5610154481
 H    1.1278404334    1.7568281193    0.4141668895
 H   -0.3659557207    2.0259544271   -0.5008678279
 H   -0.4333697874    1.6604358078    1.2370223168
 H    0.4356989429   -0.6350382376    0.7991068512
 H   -1.9059759517    0.0217570850   -1.0605468767
 H   -1.4946428048   -1.5817687351   -0.4309162042
 H   -2.0468813025   -0.3068308435    0.6787568219
 H    2.5085273264    0.2189282580   -0.4700887295
 H    3.2755396440   -1.9730750610    0.0656058081
 H    1.5859549253   -2.4308220711   -0.1048647846
 H    2.9353863522   -3.7899267011   -1.9372858468
 H    3.1898000611   -2.1868880949   -3.9509104724
 H    1.9513796314    0.0544669290   -3.2164379048
 H    3.5934623192    0.1328694244   -2.5806638194