16

 C   -0.0637840859    1.4963616218    0.1125076483
 C    1.2892371711    0.8310365503   -0.0197733885
 C    0.0212452900   -0.0009316062    0.0271996170
 C    0.0586923003   -0.6318283082   -1.3796621865
 O   -0.2295718619    0.3503239730   -2.3807252573
 C    1.0059971875    1.0785626918   -2.5319065832
 C    1.8516191462    0.4623941053   -1.4087084081
 O    1.4347177775   -0.9187560000   -1.5609660303
 H   -0.2911648392    1.9211352041    1.0856124891
 H   -0.5003383438    2.0324385029   -0.7206875351
 H    1.9789533673    0.8634067950    0.8148912464
 H   -0.2341671696   -0.6310391308    0.8711393629
 H   -0.5555659257   -1.5158804737   -1.5433454353
 H    1.4383911922    0.8777335202   -3.5182397640
 H    0.8282257719    2.1521033406   -2.4200432291
 H    2.9309976422    0.5443407939   -1.5186431765