16

 C   -0.1738341985    1.2192302975   -0.4052210520
 C    1.2433510772    1.0682575677    0.0552777029
 N    0.3116260143   -0.0336453868    0.1529582838
 C   -0.1143471131   -0.5288771349    1.3772604310
 N    0.8047448951   -0.7064792220    2.3321328914
 C    0.3759599275   -1.2545568511    3.4700436987
 N   -0.8615358908   -1.6379896805    3.7749275365
 C   -1.7683549760   -1.4445809739    2.8051011772
 C   -1.4542257974   -0.8938927563    1.5774387503
 H   -0.8398145951    1.8188869514    0.2113460366
 H   -0.4134585014    1.2048243782   -1.4644403523
 H    2.0402510127    0.9473936987   -0.6722134388
 H    1.5319906306    1.5542661286    0.9826836716
 H    1.1305487988   -1.3984146420    4.2407065047
 H   -2.7885987109   -1.7471758178    3.0303432065
 H   -2.1975867530   -0.7531357369    0.8022266619