15

 O   -0.0821227457   -0.0452696116    0.7903424643
 C    0.0259495157    0.9578308769    0.1486367007
 C   -1.0680174052    1.9961205869   -0.0212626650
 C   -1.5442604157    2.1390469889   -1.4777644912
 C   -0.6090313452    2.6552278731   -2.5690772166
 O   -1.0387012779    3.0889171460   -3.5982117166
 O    0.7460444175    2.5253108620   -2.4365502344
 C    1.3902392132    2.4203032528   -1.1846477941
 O    1.1936101690    1.1894242053   -0.5289821012
 H   -1.9037918553    1.6548291067    0.5907843216
 H   -0.7494277772    2.9629913757    0.3827962190
 H   -1.8822823533    1.1587377754   -1.8378017988
 H   -2.4214155591    2.7884943427   -1.5167248706
 H    2.4544355514    2.4613634654   -1.4132465365
 H    1.1171567380    3.2614198539   -0.5397061705