18

 O    0.0306953934    0.0242635968    0.1948661081
 C   -0.0228887896    1.2091010076    0.0047139206
 C   -1.2965706871    2.0461392759   -0.2142348123
 N   -0.8802541746    3.3568788331   -0.7057222305
 C   -0.1088127510    4.2369863741    0.1973942314
 C    0.2596908440    3.7810765808    1.6078974027
 C    1.3713995361    2.7218211543    1.4054301590
 C    1.1582833705    2.1914016404   -0.0426938427
 C    0.5987780902    3.3916506800   -0.8053438285
 H   -1.9319027024    1.5608325921   -0.9622617163
 H   -1.8770872587    2.1004548727    0.7145300482
 H   -0.3057216010    5.2912148349    0.0272821952
 H    0.6117218136    4.6301858074    2.1995850806
 H   -0.6051687590    3.3698395636    2.1413771347
 H    2.3537553473    3.2018830403    1.4559360942
 H    1.3562228018    1.9197285499    2.1497326742
 H    2.0486076930    1.7229729799   -0.4616252150
 H    1.0371584835    3.7473021062   -1.7315231537