23

 C   -0.3683611094    1.5815046819    0.1324409397
 C   -0.0697691329    0.0871058808    0.0722531684
 C    0.4319593506   -0.5207296332   -1.2473017794
 C    1.8049869395   -0.0093588426   -1.5925284897
 C    1.6738695864   -1.0935907858   -0.5540201964
 C    2.3247712422   -2.4410020216   -0.6958109805
 C    1.2093628916   -0.4977761844    0.7872053396
 C    2.1546632406    0.4192436525    1.5425754076
 O    1.4972784150    0.8265989223    2.7386790524
 H    0.4433923533    2.1825185341   -0.2899496646
 H   -1.2753427443    1.8158400403   -0.4357518994
 H   -0.5154334064    1.9020766650    1.1677823229
 H   -0.9474024540   -0.4606179123    0.4281660358
 H   -0.1961281473   -0.9916205292   -1.9958029560
 H    2.1905635302   -0.3469159403   -2.5501121000
 H    2.1116957828    1.0010047704   -1.3358415052
 H    2.3609990420   -2.7539096222   -1.7447551429
 H    3.3562220556   -2.4324465224   -0.3216680172
 H    1.7781479509   -3.2091910597   -0.1361618308
 H    0.9108750643   -1.2946096141    1.4764638949
 H    3.0862189508   -0.1260855287    1.7688354593
 H    2.4309946381    1.2907599847    0.9314110169
 H    2.0602113603    1.4626326848    3.1895495047