16

 C   -0.3483674175   -1.2899227058   -0.0226463414
 C   -0.2048474460   -0.0958201624   -0.0309164984
 C    0.0017293932    1.3093435105   -0.0390495204
 C   -0.5047314292    2.4188573899    0.8127562691
 C    0.9627553294    2.7988551724    1.2813257252
 C    1.3450412535    2.1060782068   -0.0330435423
 C    1.3698638708    2.9144072702   -1.1092136241
 C   -0.0273041803    2.9243848570   -1.7154549375
 N   -0.8741641144    2.2983535002   -0.6580857903
 H   -0.4830106639   -2.3431374335   -0.0176846415
 H   -1.3645085403    2.3935608318    1.4739200542
 H    1.2428126323    3.8495810499    1.3841272974
 H    1.1644916190    2.2556061852    2.2109090184
 H    1.9925146276    3.8035873729   -1.1554368528
 H   -0.3220533015    3.9631053729   -1.9030743035
 H   -0.1989881025    2.3562946418   -2.6379393419