23

 C   -1.4094878451    0.7304966107    0.5002668212
 C   -0.3268047582   -0.2898044722    0.2127175315
 O    0.5425022750    0.1304771221   -0.8669385828
 C    1.7163473618   -0.2614019403   -0.1351115288
 C    0.9042767115   -0.4997157487    1.1574783538
 C    1.1066705335    0.4413308966    2.3331016568
 C    0.2144440288    0.1360844001    3.5246568778
 C    2.5100494342    0.9140594771    2.6431822132
 C    1.4913824379    1.8833633641    2.0957426181
 H   -0.9946762331    1.6760889433    0.8552802441
 H   -1.9668059434    0.9245355009   -0.4222868088
 H   -2.1172392169    0.3511824521    1.2443942007
 H   -0.7954418159   -1.2530672992   -0.0417664117
 H    2.1748436798   -1.1702824172   -0.5481095446
 H    2.4720186319    0.5322006870   -0.1229005234
 H    0.9760487597   -1.5275317328    1.5278642351
 H    0.3757206112   -0.8879403640    3.8826723095
 H    0.4235657890    0.8154991737    4.3568310651
 H   -0.8468609963    0.2369335945    3.2753714012
 H    2.7934493810    1.0023071535    3.6867343083
 H    3.3215651444    0.6048184551    1.9928601607
 H    1.6087056486    2.2287660280    1.0742475915
 H    1.0850986506    2.6324537256    2.7674512015