21

 C    0.0356027394    1.3624183078    0.0618358599
 O    0.0309171662   -0.0454719749    0.0199823209
 C    0.6057025442   -0.5647284753   -1.1544619871
 C    0.5620398958   -2.0921094389   -1.0729125691
 C    1.1534377125   -2.7101073510   -2.3416805677
 O    1.0686250075   -4.1099234950   -2.2292100681
 C    1.6056735856   -4.7872561403   -3.3412925666
 C    1.3567814291   -2.5593965005    0.1381686735
 O    0.9165396457   -3.1835823714    1.0629478896
 H    1.0584775931    1.7688932460    0.0213654225
 H   -0.5398132831    1.7965095444   -0.7709459665
 H   -0.4269134169    1.6607352046    1.0051590985
 H    0.0597177602   -0.2169685972   -2.0478314517
 H    1.6498274104   -0.2173565686   -1.2604277693
 H   -0.4716584782   -2.4256992673   -0.9469988422
 H    0.6047583875   -2.3518273652   -3.2292229302
 H    2.2058090048   -2.3950390284   -2.4655319880
 H    1.0749758684   -4.5283947868   -4.2710317480
 H    2.6743149905   -4.5600490816   -3.4809894600
 H    1.4925694377   -5.8574826655   -3.1552936980
 H    2.4343531494   -2.2621940249    0.0980968175