18

 C    0.0321412654    1.5272423102   -0.0990086837
 C    0.0108737643    0.0728829397   -0.0613654968
 C   -0.0181930180   -1.1310604843   -0.0330479347
 C   -0.0454478792   -2.5630499270   -0.0115926159
 C   -0.4317603182   -3.3327888677    1.2356715218
 C   -0.7725127063   -2.6281035893    2.5258567494
 C   -1.3861325955   -3.3241344999    0.0516865396
 C   -2.6201862130   -2.5962448780    0.1166294400
 N   -3.6241764251   -2.0233377611    0.1667293964
 H    0.6459157356    1.9404831035    0.7089328454
 H    0.4405457881    1.8919226434   -1.0478071534
 H   -0.9786891849    1.9356509193    0.0063861955
 H    0.6876141888   -3.0452935415   -0.6524568313
 H    0.0910575467   -4.2774532139    1.3561645393
 H   -1.2912658542   -1.6853234942    2.3409942403
 H   -1.4155499378   -3.2558720311    3.1504035771
 H    0.1396195934   -2.4071657433    3.0890268059
 H   -1.4435529003   -4.2278119948   -0.5456437849