15

 C    0.1338494736    1.5160031258    0.0067934069
 C   -0.0639806689    0.0018655413    0.0038005681
 C   -1.4971281993   -0.4362375004    0.0143220184
 N   -2.4907210638    0.3939850485    0.0242738230
 C   -3.7267579973   -0.2009741104    0.0328207118
 N   -4.0043358210   -1.4675463072    0.0319135161
 C   -2.9508006551   -2.3535874208    0.0213152925
 O   -2.9945581865   -3.5415695332    0.0186451543
 O   -1.6368203256   -1.7607204422    0.0123050584
 H    1.2013757449    1.7504801588   -0.0014557910
 H   -0.3296378735    1.9755904723   -0.8690100520
 H   -0.3148061352    1.9701809115    0.8930869725
 H    0.4069347338   -0.4633328087   -0.8718426228
 H    0.4214469940   -0.4687472115    0.8685403698
 H   -4.5686570300    0.4894854862    0.0411176039