14

 C   -0.0158890178    1.4905080782   -0.0131225973
 N   -0.0089685512    0.0283501560   -0.0130196839
 C   -1.1973327742   -0.6537488482   -0.1289375331
 O   -2.2961104747   -0.1618114670   -0.2356948588
 N   -1.0136956835   -2.0390038881   -0.1115824322
 N    0.1522294329   -2.7084725542    0.0013883792
 N    1.2214750533   -2.0597844418    0.1057653381
 C    1.2175081446   -0.6357343139    0.1062592013
 N    2.2919607058    0.0350587211    0.2114703516
 H    0.5927386908    1.8590448586   -0.8416750777
 H   -1.0484719658    1.8170807264   -0.1137042782
 H    0.4211293019    1.8583593951    0.9177132409
 H   -1.8358442902   -2.6181896624   -0.1919459551
 H    3.0750814080   -0.6131114900    0.2874096751