21

 C   -0.0801227809    1.4340956342    0.0182840537
 N   -0.0121849311   -0.0102305972    0.0165838644
 C    0.0350604846   -0.7977154755   -1.1151852831
 N   -0.0143285287   -0.1931018047   -2.3925210233
 C    0.0591073647   -2.1128198980   -0.7159370641
 C    0.0316657699   -2.1372679454    0.7112956377
 C    0.0420142871   -3.3735088487    1.5604990217
 C    0.0005614350   -0.8251669708    1.1395298412
 C   -0.0180537541   -0.2427881547    2.5143977196
 H    0.8736668017    1.8918477420    0.3100736657
 H   -0.3352152561    1.7621183831   -0.9904830076
 H   -0.8521028066    1.7831209462    0.7105021451
 H    0.9038805912    0.0922031602   -2.7230807880
 H   -0.3911316396   -0.8426641809   -3.0720273819
 H    0.1044266870   -2.9689908957   -1.3735081403
 H    0.8859756559   -4.0277407652    1.3104295907
 H    0.1193555457   -3.1380770088    2.6257722526
 H   -0.8701608758   -3.9685331163    1.4261255563
 H    0.8235282602    0.4399205705    2.6913615486
 H   -0.9365531615    0.3221444675    2.7238788088
 H    0.0465286914   -1.0380727219    3.2598573021