15

 O    0.1628545410    1.4486702110    0.0796231888
 C    0.0383418723    0.0586739991    0.0339524851
 C   -0.0846194470   -0.6831709084    1.3824561180
 C   -1.5212221416   -0.1235431202    1.5345730384
 C   -1.3813847393   -0.6331427870    0.0679645317
 N   -0.7066072962   -1.8669483200    0.6592481611
 C   -2.3621518639   -0.6888035226   -0.9739449889
 C   -3.1658478832   -0.7037187127   -1.8692042798
 H    0.0290015831    1.7965112822   -0.8083935652
 H    0.7295151586   -0.4032431021   -0.6866232335
 H    0.6752015862   -0.8184481320    2.1507828847
 H   -2.1908836851   -0.7141755784    2.1589173537
 H   -1.6213674274    0.9517493045    1.6647463247
 H   -0.0376606439   -2.2427736825   -0.0242293906
 H   -3.8845771736   -0.7282476808   -2.6507412781