23

 C   -0.2177760865    1.5637581330    0.0130192761
 C   -0.0040308428    0.0575773171    0.0012635544
 O   -1.2846492491   -0.5477329187    0.0116761891
 C   -1.3564520393   -1.9831248961    0.0046583944
 C   -0.7257453641   -2.5723439308   -1.2745570009
 C   -0.7011615135   -2.5857585625    1.2651315868
 C   -2.7945995092   -2.2870929561    0.0169951590
 C   -3.9632827377   -2.5738488706    0.0266134883
 C   -5.3812985513   -2.9042967860    0.0374603092
 H    0.7440771862    2.0857323849    0.0054175090
 H   -0.7915251436    1.8754264698   -0.8642786301
 H   -0.7715944818    1.8644751559    0.9067930493
 H    0.5679257497   -0.2321680529   -0.8928888438
 H    0.5876113386   -0.2432208178    0.8788028964
 H    0.3583007294   -2.4273031633   -1.2858976585
 H   -0.9234404849   -3.6459750459   -1.3272317641
 H   -1.1581227550   -2.0957369304   -2.1576356339
 H   -1.1165380699   -2.1187230334    2.1613816067
 H   -0.8976261517   -3.6599669626    1.3101547356
 H    0.3828786338   -2.4404492095    1.2571519189
 H   -5.5359007249   -3.9890233121    0.0358301151
 H   -5.8773107686   -2.5008046236    0.9270651326
 H   -5.8921002637   -2.4960306683   -0.8415438197