16

 C   -0.0730278161    1.4964201229   -0.0741499895
 C   -0.0205930463    0.0431748576   -0.0423373741
 C    0.0215802766   -1.1624736883   -0.0160692666
 C    0.0502844973   -2.5735813049    0.0147734547
 C    1.1408009064   -3.4075910061    0.0257207634
 C    2.6022270377   -3.1473978572    0.0102353507
 O    0.7335089109   -4.6852192354    0.0565754171
 N   -0.6635731178   -4.7351077036    0.0671364061
 C   -1.0493179680   -3.4887100038    0.0423542095
 H    0.9338217240    1.9276994925   -0.0587845709
 H   -0.5745943677    1.8581905923   -0.9788221153
 H   -0.6171914264    1.8948674755    0.7895256575
 H    3.0846873183   -3.5653423856    0.8999587659
 H    3.0730240712   -3.6048843314   -0.8661764511
 H    2.7804075605   -2.0710028334   -0.0150720580
 H   -2.1046075907   -3.2562877609    0.0444249707