15

 N    0.0428533898    1.3921106347    0.0922859592
 C   -0.0227457102    0.0047041607    0.0340617634
 C   -1.2100778203   -0.6795520588   -0.0137354144
 N   -2.4422519182   -0.0011090702   -0.0812235301
 C   -1.1978734256   -2.1217334649   -0.0976908239
 O   -2.2303092710   -2.7914109180   -0.2043146242
 C    0.1470167859   -2.6980740375   -0.0490598267
 N    1.2583832486   -2.0297983314    0.0514814604
 N    1.1522330332   -0.6918216150    0.0786761706
 H    0.8585041532    1.7935644377   -0.3537648725
 H   -0.8066069307    1.8004945485   -0.2838635665
 H   -2.6472978848    0.5255244239    0.7626228852
 H   -3.1626405184   -0.7117649919   -0.2006979814
 H    0.2426931766   -3.7789475550   -0.0717109219
 H    2.0279666919   -0.2110382729    0.2092824628