24

 C   -0.2520688272    1.5163645481   -0.8859868270
 C   -0.0704007200    0.0982797740   -0.3246136763
 C    0.6455912447    0.1412592857    1.0333739587
 C   -1.4158384568   -0.6204835225   -0.2195212544
 C   -2.2883917539   -0.8311810157   -1.4883540722
 C   -2.7362864952   -2.1970668089   -0.9056030084
 C   -1.5048706600   -2.1652222339    0.0482079008
 C   -0.3356130809   -3.0063505243   -0.4619017637
 H    0.7117080981    2.0262263675   -0.9899110116
 H   -0.7311404637    1.5021200680   -1.8700175943
 H   -0.8773271632    2.1232472878   -0.2197236802
 H    0.5640300308   -0.4592619170   -1.0279244974
 H    0.0623829401    0.7187588767    1.7609537268
 H    0.7922836913   -0.8605047130    1.4490031647
 H    1.6291686358    0.6152455439    0.9473894337
 H   -2.0210525609   -0.1074097412    0.5403754693
 H   -3.0620963130   -0.0900610907   -1.7033089687
 H   -1.6733462542   -0.9533282221   -2.3861396370
 H   -3.6817711372   -2.1187497925   -0.3615603475
 H   -2.8027423349   -3.0435224718   -1.5951642595
 H   -1.7134658842   -2.4357177310    1.0881340873
 H   -0.1114950657   -2.7993187216   -1.5141671889
 H    0.5796673855   -2.8305758603    0.1123822773
 H   -0.5759438951   -4.0724919154   -0.3842900615