22

 C    0.6573210324   -0.1186796119    1.2852439723
 O   -0.0976194010    0.0315328460    0.0956922145
 C   -1.3141916269   -0.7057711156    0.0234044478
 C   -2.3271402716   -0.1467432451    1.0141475472
 O   -2.4852675399    1.2469922166    0.8343665283
 C   -1.7475371159   -0.7778822466   -1.4600110167
 N   -1.2366254869   -2.1607528313   -1.5268283398
 C   -2.0070439101   -3.1524116284   -2.2381136139
 C   -1.1527064697   -2.2503275935   -0.0594548354
 H    1.5981888538    0.4123724642    1.1232764079
 H    0.1562955292    0.3165478582    2.1606194469
 H    0.8827044526   -1.1712669109    1.5005637795
 H   -3.3028975871   -0.6155466135    0.8522914832
 H   -2.0201087285   -0.3895585570    2.0457822998
 H   -1.6070977694    1.5850006621    0.6175307803
 H   -2.8387899283   -0.6947461227   -1.5797394479
 H   -1.2521772522   -0.0733462080   -2.1348576726
 H   -2.0361371961   -2.9044785654   -3.3045182889
 H   -1.5342125594   -4.1353180708   -2.1368092389
 H   -3.0522280332   -3.2378049147   -1.8796362046
 H   -0.2225442284   -2.6877133282    0.3191321185
 H   -2.0030165434   -2.7751335834    0.4088970126