17

 C   -0.8724498148    1.0730179427    0.6809984839
 C    0.0369742071   -0.0010080646    0.1171674773
 O    0.4316388282   -0.8571278453    1.2052998625
 C    1.2467410217   -1.8767546665    0.8940930851
 N    1.6690138475   -2.1093619506   -0.2774653671
 C    1.6085934502   -2.7268437040    2.1144880683
 C    1.0325655914   -2.3331005825    3.4514851901
 O    2.3395120325   -3.6762816323    1.9554098104
 H   -0.3545696912    1.6667016314    1.4396992132
 H   -1.1928532117    1.7442797891   -0.1211280299
 H   -1.7636436239    0.6324618716    1.1370367064
 H   -0.4616614167   -0.6094187838   -0.6446480352
 H    0.9376077210    0.4176302275   -0.3441003407
 H    2.2675657831   -2.9372470490   -0.2354070087
 H    1.3773719620   -3.0277067307    4.2176678702
 H    1.3302716656   -1.3098707778    3.7019776624
 H   -0.0610535621   -2.3301149852    3.4030898616