21

 C    0.4445103869    1.1869463919    0.3539101104
 C   -0.3881018271    0.1259619808   -0.3890933865
 C    0.3342303747   -0.5101084340   -1.4864347981
 C    0.9457947815   -1.0159791431   -2.3950858175
 C    1.6690846315   -1.6222600993   -3.4785184901
 C    3.1478834178   -1.9639248903   -3.4178760035
 C    3.5454299465   -2.3995614467   -2.0030551636
 C    2.4788697794   -3.5432704519   -2.0789323255
 C    2.1087119769   -3.0761715985   -3.4910632450
 H    1.3458855125    0.7414633868    0.7838631440
 H    0.7557288140    1.9831400826   -0.3277949951
 H   -0.1394888575    1.6341452576    1.1642046031
 H   -0.7219450596   -0.6403862870    0.3226565090
 H   -1.3039525977    0.5887529760   -0.7794845225
 H    1.3695680702   -1.2772877230   -4.4659476396
 H    3.8224746334   -1.5988127128   -4.1835789589
 H    4.5646980698   -2.7878171295   -1.9517572583
 H    3.4077810024   -1.6501574335   -1.2188235530
 H    2.9362039056   -4.5348067586   -2.0701201125
 H    1.6723457767   -3.5149020237   -1.3411473795
 H    1.8428778119   -3.7175864439   -4.3232883172