21

 O   -0.6680440476    0.8152387470    0.7424713971
 C   -0.1422634096    1.1332126523   -0.2923721991
 C    1.2613299339    1.6776681803   -0.4211229681
 C    1.2927761243    3.0225704707   -1.1480542153
 O    2.6391536388    3.3356092246   -1.4292297935
 C    2.8059747813    4.5593557016   -2.0991340999
 C    2.6797068682    5.8893025235   -1.3006844524
 C    3.9321740822    6.3953253798   -2.0698232760
 C    4.2694463708    4.9183325357   -2.4167259857
 H   -0.6859495533    1.0342991465   -1.2621304054
 H    1.7152962091    1.7511932051    0.5695959864
 H    1.8454521435    0.9650711283   -1.0201971327
 H    0.7086083748    2.9657543000   -2.0836437914
 H    0.8297304858    3.8029191398   -0.5240203806
 H    2.1767599667    4.5852343834   -3.0033514601
 H    1.7540921588    6.4634680840   -1.3826499237
 H    2.9034854017    5.7119011786   -0.2444769519
 H    3.6603272516    6.9725655923   -2.9575383772
 H    4.6743408146    6.9604156580   -1.5035393505
 H    4.9269122407    4.4694120537   -1.6670875364
 H    4.6504985739    4.6854280549   -3.4130997436