17

 O    0.1560439606    0.4671191690    0.9056947616
 C   -0.1927018184    0.1668495618   -0.4386223194
 C   -1.5237504122   -0.5386079837   -0.4287612075
 C   -1.8019522152   -1.6375007270   -1.4159130577
 C   -1.5667483851   -1.9723733087    0.0304602169
 C   -0.5167763049   -2.8148196838    0.7413225970
 O   -1.5673199327   -3.3222217009    1.6331682639
 C   -2.5380786989   -2.5735223674    1.0020933028
 O   -3.7007532292   -2.5198173242    1.2477419132
 H    0.9350662570    1.0316760810    0.8984008607
 H   -0.2650869797    1.0809191122   -1.0472332049
 H    0.5642043783   -0.4807598379   -0.9112302256
 H   -2.3666872678    0.0707773454   -0.1163419828
 H   -2.8131925337   -1.7535875295   -1.7897654018
 H   -1.0202462648   -1.9041424825   -2.1205468033
 H   -0.0695963359   -3.6331110202    0.1721413574
 H    0.2353733228   -2.2587498934    1.3032678095