14

 C   -0.1012544538    1.4539603169   -0.0872329905
 C    0.3622627898    0.0265310582   -0.1413775709
 O    1.3133687765   -0.4590081150    0.3875087424
 O   -0.5129215647   -0.7093080943   -0.9437124860
 C   -0.2972212014   -2.0388889080   -1.0477222084
 C    0.1943523951   -2.7991964926   -2.0581399180
 C    0.0529934876   -4.1140168609   -1.5423292591
 N   -0.4743116801   -4.1337575380   -0.3417861455
 O   -0.7041110287   -2.7924560899   -0.0220327598
 H    0.6131798725    2.0440931656    0.4845272065
 H   -0.2034069894    1.8548277286   -1.0991405847
 H   -1.0875895521    1.5011454072    0.3833831185
 H    0.5919621817   -2.4720061831   -3.0025504873
 H    0.3192774870   -5.0527179748   -2.0078136273