18

 C   -0.0300954664    1.5736802843   -0.0385422680
 C    0.0084345873    0.0437768609   -0.0153094545
 C    0.7007662194   -0.5098077374    1.2339554358
 C    0.7916341677   -2.0489894368    1.2253971952
 O    1.4994656763   -2.5546070166    0.1010702712
 C    1.3641785814   -2.5498800134    2.4798492716
 C    1.8736208679   -2.9413872649    3.5037353165
 C    2.4437834966   -3.3876774491    4.6612555145
 N    2.9301467753   -3.7644033420    5.6466908006
 H    0.9804309131    1.9967203932   -0.0238716074
 H   -0.5308090388    1.9410601435   -0.9392103227
 H   -0.5679201396    1.9731021640    0.8283155078
 H   -1.0144252150   -0.3523887803   -0.0631268251
 H    0.5240995094   -0.3351168530   -0.9037373139
 H    1.7174582002   -0.1025029222    1.3200404348
 H    0.1661281385   -0.1975500424    2.1392827115
 H   -0.2207441105   -2.4606552611    1.1232391512
 H    2.4190344172   -2.2740117767    0.1781941910