19

 N   -0.1077683826    1.3108255301    0.2601563488
 C    0.0086539584   -0.0306700949   -0.0922571510
 O    0.9809162450   -0.4732090497   -0.6768933502
 N   -1.0585338273   -0.8023201257    0.3016225275
 C   -1.0360967783   -2.2441817940    0.1719656530
 C   -2.4228460072   -2.7489334345   -0.1834930123
 C   -2.7177780705   -4.2473179259    0.0381409063
 C   -3.7497805177   -3.7492592321    1.0699448936
 O   -3.3917829175   -2.3698230930    0.8318276484
 H    0.5528630171    1.8913749810   -0.2340773144
 H   -1.0373331018    1.7014596344    0.3062741617
 H   -1.7176167152   -0.4326824766    0.9688199562
 H   -0.3137382357   -2.4924140449   -0.6098908201
 H   -0.7016314665   -2.7261079624    1.1032588853
 H   -2.7227234150   -2.3544329167   -1.1627931045
 H   -3.1244667086   -4.7802781310   -0.8216752581
 H   -1.8838537704   -4.8175154440    0.4528449147
 H   -4.7994824334   -3.9441610100    0.8190679229
 H   -3.5748682930   -4.0444282003    2.1111637423