14

 C   -0.0601114197    1.5086060089   -0.0808564793
 C    0.0398313002   -0.0078222997    0.0641804935
 C    0.7905975574   -0.4294228365    1.3109054970
 O    1.2740159604    0.3136419107    2.1276920010
 O    0.8542268954   -1.7753783876    1.3984452287
 C    1.5460772578   -2.2821516337    2.5457438097
 H    0.9324960880    1.9630682578   -0.1315199793
 H   -0.6081378753    1.7706907735   -0.9900654931
 H   -0.5771058214    1.9502141727    0.7747512612
 H   -0.9514565562   -0.4751473277    0.0989049259
 H    0.5437683906   -0.4622666999   -0.7970904267
 H    1.5041460927   -3.3683526792    2.4628034753
 H    2.5839941693   -1.9393418711    2.5544966866
 H    1.0616672708   -1.9502354983    3.4677082494