18

 C    0.1181644043    1.2497518769    0.1782174520
 O   -0.0203521003   -0.1401753098   -0.0732754308
 C    0.6353061704   -0.5813087559   -1.2519847374
 C    2.0042203467   -1.2473962060   -0.8977585859
 O    2.6747151343   -0.7603283977    0.2344752656
 C    1.2787180861   -2.6211087791   -0.8139087241
 C    0.0851053532   -1.9958115424   -1.5961027861
 O   -1.2272215839   -2.2715456726   -1.2006674235
 H    1.1704943945    1.5307731519    0.3052454823
 H   -0.3127461544    1.8429235283   -0.6404877463
 H   -0.4287231824    1.4645783028    1.0995947825
 H    0.6045576496    0.1969864688   -2.0237147859
 H    2.7112759802   -1.1960247637   -1.7298138740
 H    2.0173988341   -0.7280226904    0.9401331674
 H    1.7756853621   -3.4949463052   -1.2394521560
 H    0.9852306376   -2.8439896242    0.2168197594
 H    0.1598012458   -2.1966955010   -2.6689812161
 H   -1.3919564977   -1.7106736406   -0.4309324830