23

 C   -0.3990121460    1.5387360716    0.0037530323
 C    0.0079576481    0.0705630499   -0.0172822291
 C    1.0605492724   -0.4552948580   -1.0555320702
 C    1.8236376128   -1.1873448936    0.0919643604
 C    3.0251037254   -0.4902867529    0.7711789678
 C    2.8963209829    1.0019769398    0.7635156906
 C    2.0649329907    0.2182617493    1.7434193312
 C    0.8596233324   -0.5544791206    1.1407727745
 C    0.1378537339   -1.4039089914    2.1662951915
 H    0.4544036250    2.2098471696    0.1269510727
 H   -0.9103215825    1.8147108276   -0.9256220547
 H   -1.0918627425    1.7373929624    0.8296452120
 H   -0.9045963814   -0.5300721136   -0.1136924891
 H    0.6426286574   -1.1221238547   -1.8136942751
 H    1.6341154441    0.3180580683   -1.5737048864
 H    1.9061571797   -2.2719707060    0.0119161881
 H    3.9724247745   -0.9731000800    0.9815589186
 H    3.7296837291    1.5275701278    1.2211013891
 H    2.4680395540    1.5328161207   -0.0779204324
 H    2.1797953472    0.3814700640    2.8099862822
 H   -0.4544972859   -0.7825585766    2.8504553522
 H   -0.5437619417   -2.1148879955    1.6864502797
 H    0.8475754506   -1.9760713181    2.7751814339