18

 C   -0.1960224424    1.4957213967   -0.0375023837
 C    0.0891877072   -0.0025838643    0.0330757898
 O    0.7842326583   -0.3222651759   -1.1918686911
 C    0.7612006282   -1.6101971371   -1.6419384620
 O    0.3908010673   -1.8851193478   -2.7548390273
 N    1.1986381890   -2.5405237157   -0.7292750283
 C    2.2021409398   -2.2782446174    0.3002231540
 C    1.7847526827   -1.3153366106    1.3775199457
 C    0.8689994666   -0.3593692001    1.2728466947
 H    0.7409664314    2.0599266098   -0.0549310627
 H   -0.7601298425    1.7274186153   -0.9431448961
 H   -0.7779593685    1.8124212887    0.8330655852
 H   -0.8676888019   -0.5445413975    0.0279168253
 H    1.2349055991   -3.4620578743   -1.1397741857
 H    2.4169241623   -3.2439883401    0.7693038522
 H    3.1528456067   -1.9407530100   -0.1446407831
 H    2.3146397608   -1.4352927444    2.3191745546
 H    0.6452777259    0.2514654947    2.1442201286