15

 O    0.2474083473    1.3454247457    0.2216198549
 C    0.1359268209   -0.0046366714    0.0651924816
 C    0.9153962101   -1.0780838927    0.7867651740
 C   -0.3254921028   -2.0163439403    0.7238483285
 C   -1.1178809157   -0.9591937983    0.0180721132
 C   -0.2633995593   -1.9466900328   -0.8200310620
 C   -0.7421582409   -2.9091663268   -1.7983885545
 O   -0.2044716052   -3.1508033469   -2.8557311602
 C    0.9534791864   -1.0001496215   -0.7488202145
 H    0.0965919209    1.7704931387   -0.6311595099
 H    1.7254574524   -0.9870709545    1.4956012950
 H   -0.6565675264   -2.8438288148    1.3378673476
 H   -2.1876408893   -0.8061316832   -0.0425436553
 H   -1.6809716884   -3.4278808092   -1.4898331526
 H    1.7970426000   -0.8554585822   -1.4083382758