16

 O   -0.1555466745    1.4028675891    0.0654610191
 C   -0.1247167352    0.0065098173    0.0173758816
 C   -0.4844715329   -0.8725791300    1.1953686347
 C   -1.5545984004   -0.1512491970    2.0408561729
 C   -2.5003128960   -0.1151768224    0.7849396536
 C   -1.3921582020   -0.7733834033   -0.0448783438
 O   -1.6283946524   -1.7446380922   -0.9955274997
 C   -2.0636216318   -0.9214074397    3.1629712939
 N   -2.4643323239   -1.5352408975    4.0571759783
 H    0.6380571640    1.7080605165    0.5188925505
 H    0.6644151758   -0.4221158531   -0.6016038267
 H    0.1531380670   -1.6727050876    1.5489677129
 H   -1.2484752913    0.8379404521    2.3915112596
 H   -3.3500117423   -0.7873786891    0.9072081647
 H   -2.8401292037    0.8739540856    0.4715702876
 H   -1.6671760504   -1.3251627787   -1.8625028294