21

 C   -0.0372934868    1.4903582896    0.0851463973
 C   -0.0387691204   -0.0096666474   -0.1557865825
 O   -1.3335204802   -0.5066604397    0.1331637130
 C   -1.4639440547   -1.9041200284    0.0205859468
 C   -2.8228174985   -2.3319210170    0.6038714857
 C   -3.0839639324   -3.7183113580    0.0014522097
 C   -2.3639003253   -3.7048294843   -1.3534772530
 O   -2.4632429973   -4.5424040041   -2.2112005056
 C   -1.4903902244   -2.4476979135   -1.4215125391
 H    0.9507584720    1.9095064081   -0.1269901134
 H   -0.7692658562    1.9829443006   -0.5611684083
 H   -0.2946524726    1.7123622541    1.1246179500
 H    0.2372027249   -0.2300172917   -1.1991633947
 H    0.7068614866   -0.5067870027    0.4874253327
 H   -0.6500867454   -2.3984097618    0.5791596518
 H   -2.8258885821   -2.3146961587    1.6956269462
 H   -3.5735557187   -1.6120212066    0.2593558251
 H   -2.6263229404   -4.5146415388    0.6033323017
 H   -4.1377986280   -3.9803208407   -0.1180882286
 H   -2.0009434923   -1.7178554760   -2.0649722509
 H   -0.5201323179   -2.6665566230   -1.8717357840