15

 N   -0.0023086397    1.3784213835    0.1031892687
 C    0.0590309430    0.0158640663    0.0225977027
 N    1.1747555957   -0.6110840868   -0.0010590890
 C    1.1639600939   -1.9955651183   -0.0178175257
 C    2.3028569396   -2.7829231336    0.0033260538
 N    3.6451301984   -2.4397788136    0.1248449155
 N    1.8219777058   -4.0474812348   -0.0245486504
 N    0.4619766160   -4.0620962114   -0.0730296858
 N    0.0747560361   -2.8218411734   -0.0591923138
 H    0.8553294200    1.8800723770   -0.0726342775
 H   -0.8492531249    1.8338454102   -0.1921453372
 H   -0.9116136773   -0.4867725742    0.0243269269
 H    3.7253110651   -1.4283690066    0.1198311804
 H    4.2340733433   -2.8259719976   -0.6049356018
 H    2.3265312149   -4.9176076767    0.0136549432