15

 O    0.0551514068   -0.0059589008   -0.3912065837
 C    0.0055299905    1.1714853006   -0.1179371174
 C   -1.2881537551    1.9598044705    0.0656004098
 N   -1.3209590349    3.1046167567   -0.8563147453
 C   -0.2403610919    4.0676379386   -0.6375690783
 C    1.1188707129    3.4718683562   -0.2806165201
 O    1.2415218725    2.9716516556    1.0453760583
 C    1.2478485542    2.0152273036   -0.0289291012
 H   -2.1353713608    1.2985452538   -0.1291819113
 H   -1.3587889784    2.3338933079    1.0929930773
 H   -1.2733867207    2.7560411890   -1.8084968812
 H   -0.1429317514    4.6813805694   -1.5384648554
 H   -0.5241499449    4.7431325136    0.1809419478
 H    2.0013462171    4.0083760256   -0.6326871945
 H    2.1888311442    1.4966452495   -0.1993089849