17

 C   -0.0407658443    1.5461676029    0.0644414757
 C    0.0364732316    0.0533421452    0.0315255042
 C   -0.8277749951   -0.9151600686    0.7994809671
 C    0.6905573898   -0.9715013601    0.9673751155
 C    1.2352528550   -1.6339612737   -0.2801266866
 C    1.4633919385   -2.7323881646   -1.0804224967
 C    0.9939862167   -2.2952676826   -2.3567330482
 N    0.4504978851   -1.0733373582   -2.3433280999
 N    0.7013465309   -0.6698428959   -1.0783293208
 H    0.9312257465    1.9943781002   -0.1612806411
 H   -0.7658809754    1.9143395193   -0.6691901270
 H   -0.3626510133    1.8871837675    1.0526062351
 H   -1.3838908871   -0.4872140775    1.6304889898
 H   -1.3347081684   -1.7232360974    0.2821008854
 H    1.1930332197   -0.7899485297    1.9069921324
 H    1.8977079408   -3.6872521710   -0.8348427566
 H    1.0575329991   -2.8346267857   -3.2923804585