14

 C    0.1728336359    1.4767087296   -0.0307038997
 C   -0.0338545395    0.0091534186   -0.0082662280
 C   -1.1282200867   -0.8102547747    0.1050370894
 N   -2.4656837172   -0.4837315038    0.2890313551
 N   -0.7211026758   -2.1253113218    0.0833167797
 C    0.5743235360   -2.0610246991   -0.0435066289
 O    1.0649830660   -0.8060023948   -0.1142302723
 C    1.4901654814   -3.1392592852   -0.1152329389
 N    2.2409335648   -4.0181985886   -0.1765330934
 H    0.9534737331    1.7763787196    0.6764265631
 H    0.4667739185    1.8419271801   -1.0222113227
 H   -0.7526782207    1.9814990037    0.2580017941
 H   -2.7838886174    0.3038082428   -0.2579526341
 H   -3.0646234483   -1.2862538964    0.1487078166