19

 C    0.3038312523    1.3143298168   -0.0758848192
 C   -0.0715585278   -0.1879909740   -0.0327614665
 C    0.5380833430   -0.9877861777   -1.2341285139
 C    1.7774787182   -1.7394988741   -0.6825324185
 O    3.0315314394   -1.1541338769   -1.0385521410
 C    1.5526870280   -1.7180481618    0.8103821503
 C    0.5864114556   -0.8733942750    1.1613317423
 C   -1.5288328763   -0.3170525782    0.0249347693
 C   -2.7265623420   -0.4103651383    0.0788162999
 H    1.3877334061    1.4309571753   -0.1724406388
 H   -0.1757433852    1.8029968145   -0.9286385565
 H   -0.0183066197    1.8261443438    0.8355049309
 H   -0.1984069377   -1.7077301851   -1.5975279974
 H    0.8148349701   -0.3401813848   -2.0691684293
 H    1.8336796654   -2.7536247979   -1.0904820342
 H    3.1390120642   -0.3567410103   -0.5087887264
 H    2.1773258508   -2.2824123165    1.4938393318
 H    0.2734816623   -0.6439615249    2.1741150641
 H   -3.7835980068   -0.5009533650    0.1235251132