10

 O    0.0262076828   -0.0054375825   -0.2199634863
 C   -0.0003217406    1.1921242347   -0.0411104904
 C   -1.2222710568    1.9733479799    0.1730301953
 N   -1.2603418786    3.2436912707    0.3637295847
 O   -0.0598179118    3.9334267366    0.3686541076
 N    1.1478819169    3.3437811535    0.1840323760
 C    1.1943913163    2.0610233528   -0.0092450253
 C    2.4948417889    1.4893579652   -0.1983630376
 N    3.5306905124    1.0012547295   -0.3538695638
 H   -2.1833102394    1.4663670595    0.1757665299