15

 N    0.1341712650    1.4342891535   -0.1041011265
 C    0.0742605407   -0.0154715453    0.0049037793
 C    0.6317822862   -0.5013244101    1.3340547396
 C   -0.2162917255   -1.2774442233    2.0092765999
 C   -1.5059867850   -1.4075918788    1.2651195346
 O   -2.1783748175   -0.1417014633    1.0610116389
 C   -1.3441200470   -0.6443550617    0.0113097857
 C   -1.9911980066   -0.9686390159   -1.2325423251
 N   -2.4616672174   -1.2056630903   -2.2619642153
 H   -0.1551135059    1.7327285518   -1.0308315511
 H   -0.5184925634    1.8423573282    0.5604450761
 H    0.6485254673   -0.4411897502   -0.8277072781
 H    1.6071128209   -0.1720622818    1.6711039042
 H   -0.0436523307   -1.7358220799    2.9743401656
 H   -2.1638650910   -2.2654687127    1.3567052724