18

 O   -0.0817902251    1.4088519393    0.0203724889
 C    0.0340353723    0.0327860059    0.0301088215
 C   -0.1672603561   -0.8118119292   -1.2306108506
 C    0.6457662848   -2.0803565288   -1.4248217325
 C    0.8120760135   -2.5689597663    0.0212995553
 C    1.8672018203   -1.7203566877    0.7730872596
 C    0.6910912516   -0.8011161938    1.1388664055
 N   -0.3073268223   -1.9077650108    0.8512045907
 C   -1.0749535575   -0.9935580714   -0.0458228153
 H    0.6478044173    1.7755700971   -0.4911752505
 H   -0.5494049741   -0.2550529941   -2.0800105968
 H    0.0803186551   -2.7938741597   -2.0360344046
 H    1.6157783365   -1.9236350256   -1.9082506235
 H    0.8590396192   -3.6538651896    0.1251017511
 H    2.2664313231   -2.2283350434    1.6539062571
 H    2.6912998376   -1.3081164778    0.1852933466
 H    0.6372183481   -0.3351639617    2.1270080908
 H   -2.1557949141   -0.9294757722   -0.0302461431