23

 C   -0.0416084125    1.5140123548    0.2530435854
 C   -0.0732868413    0.0046892935    0.2698921969
 C   -1.2417408889   -0.7656917762   -0.1723744495
 O   -0.0798947845   -0.6625598985   -0.9974580426
 C    1.3477002869    2.0963810549   -0.0286218790
 C    1.9128917387    1.8171147919   -1.4330402120
 C    3.0960499326    2.7941526593   -1.5460917720
 C    2.6610841200    4.0576580656   -0.7499911655
 C    1.4066021723    3.6356427035    0.0620004902
 H   -0.7522298878    1.8746250616   -0.5017289884
 H   -0.3997088421    1.8754841469    1.2272423666
 H    0.5867429724   -0.4653475602    1.0028676431
 H   -1.4348023506   -1.7534781107    0.2442878163
 H   -2.1222273594   -0.2381826290   -0.5381374632
 H    2.0518476298    1.6804273768    0.7085094811
 H    2.1953739061    0.7730543962   -1.5873888117
 H    1.1464113872    2.0538452321   -2.1829507779
 H    3.9855582146    2.3490796359   -1.0860160074
 H    3.3591169360    3.0198728067   -2.5832109991
 H    3.4651518788    4.4029259156   -0.0937138436
 H    2.4284852536    4.8913595048   -1.4186872978
 H    0.5014400708    4.0545800780   -0.3953790462
 H    1.4291863673    3.9925095065    1.0962344663