17

 C    0.0038835398    1.5973012294   -0.0704357983
 C    0.0274461196    0.0917145152    0.0303065701
 O   -1.1316190409   -0.5574499667   -0.4247984923
 C    1.2644905126   -0.7243719557   -0.1459286204
 O    2.4312223416   -0.0800482325    0.3280195646
 C    1.8993932463   -0.0492206928    1.6884259719
 C    0.5768089389   -0.6579898146    1.2469511522
 C   -0.1485322208   -1.6908875192    1.9976776897
 O    0.1959462897   -2.0628824287    3.0986455575
 H    0.9702870548    2.0279679440    0.1969583409
 H   -0.2132818770    1.8933280985   -1.1037500796
 H   -0.7728658839    2.0178675874    0.5744299288
 H   -1.1865327254   -0.4336595619   -1.3791573040
 H    1.3614550445   -1.5546330623   -0.8384343213
 H    2.4613396637   -0.7244910911    2.3386271437
 H    1.8902173205    0.9613887472    2.1078251362
 H   -1.0341478639   -2.1140619061    1.4875527801