25

 C   -1.5395832524   -0.6124421821    0.0823864798
 C   -0.1255706288   -0.0216190611    0.0002744982
 C    0.7147191696   -0.5835100130   -1.1669922188
 C    0.3696968712    0.2091159097   -2.4465600018
 C    1.1535066558    1.5207961608   -2.5891783704
 C    2.2297157387   -0.9240915271   -0.8757783035
 C    1.7452101883   -2.1313927140   -0.0154776842
 C    0.8694580313   -2.1501828618   -1.3001554992
 C    2.1976347055   -1.9064835363   -2.0805873971
 H   -2.0896753133   -0.4847745365   -0.8561869187
 H   -1.5076476757   -1.6849196413    0.3007474731
 H   -2.1222716424   -0.1289785984    0.8729719979
 H   -0.2007267968    1.0653670868   -0.1252535749
 H    0.3740970637   -0.1637160488    0.9621385739
 H    0.5193895939   -0.3927998492   -3.3467461000
 H   -0.7032659629    0.4357501171   -2.4291506528
 H    0.8206629506    2.0842701199   -3.4666720752
 H    1.0263331056    2.1684591805   -1.7150040810
 H    2.2256616405    1.3299517424   -2.7029654352
 H    3.0243644864   -0.2184635788   -0.6233902071
 H    2.4589349025   -2.9535488406    0.0832613644
 H    1.2590019187   -1.9326555755    0.9386938023
 H    0.0857471276   -2.8682824451   -1.5515525879
 H    2.1454539230   -1.4901373109   -3.0857000284
 H    2.9207338494   -2.7255252968   -2.0432365832