17

 C   -0.1344375535    1.6143978628   -0.0118723123
 C    0.0061305236    0.0874257670   -0.0514797290
 C    0.8690863397   -0.4715287462   -1.2064344105
 O    1.3856262067   -1.7138179449   -0.7387641285
 C    1.7237416265   -1.5579876686    0.6230665732
 C    0.8360222776   -0.4361342745    1.1627342942
 O    0.8117370552   -0.0036077766    2.2794700557
 C   -1.2906072745   -0.5817273874   -0.0029498281
 C   -2.3574582697   -1.1333292328    0.0526040871
 H    0.8472490587    2.0914059186   -0.0904334357
 H   -0.7644011151    1.9679086654   -0.8318651527
 H   -0.5872498994    1.9164767553    0.9349447711
 H    0.3040682053   -0.6670834590   -2.1184822606
 H    1.6851461912    0.2351223214   -1.4298643445
 H    1.5568838741   -2.4985328586    1.1559750858
 H    2.7776355791   -1.2647812765    0.7612720690
 H   -3.3015245556   -1.6178669553    0.0975176658