19

 C   -0.2128404314    1.4915636584   -0.0492165622
 C   -0.0298916401   -0.0051392425    0.0503678810
 C    1.3134984319   -0.6405982639   -0.1381077825
 C    0.6696467801   -0.6581289994    1.2473766059
 C    1.2282728935    0.2119611802    2.2497142651
 N    1.6557235163    0.8941734645    3.0817769546
 C    0.1261127418   -1.9650324230    1.7683080200
 C    0.7121027859   -2.6462473468    2.9483626088
 N   -0.6312861498   -2.0393756816    3.0216597157
 H    0.6485266836    2.0293659617    0.3565772104
 H   -0.3353031650    1.7901757241   -1.0954759717
 H   -1.1002954011    1.8187517475    0.5015030603
 H   -0.8767636204   -0.5888752380   -0.3015430541
 H    1.3842997263   -1.5968979508   -0.6447674169
 H    2.1700728367    0.0098565232   -0.2746400657
 H   -0.2912680755   -2.5794827196    0.9722820634
 H    0.7300379588   -3.7312166925    2.9944484346
 H    1.5301949326   -2.1511517317    3.4640584204
 H   -0.5758959945   -1.1518021598    3.5181641527