16

 O   -0.0164960527    1.2437357234   -0.3639759742
 C   -0.0555828726   -0.1245519891   -0.0990606209
 C   -0.4378734791   -0.6132393327    1.2921385968
 C   -1.4112566638   -0.7021204875    0.1617451340
 C   -2.6916494596    0.0951490622    0.0290811646
 O   -3.4191731401   -0.6551726212   -0.9521365685
 C   -2.8528033544   -1.8865009027   -1.0986037710
 N   -3.2766381036   -2.8416567402   -1.7952940032
 O   -1.7131108640   -1.9775866028   -0.3644180911
 H    0.7636160347    1.6144612482    0.0621932064
 H    0.6346192297   -0.7459459244   -0.6680246423
 H    0.0069637284   -1.5375385788    1.6435538385
 H   -0.6294580924    0.1357099338    2.0545322444
 H   -3.2702968851    0.1283837910    0.9595754374
 H   -2.5198526671    1.1074759877   -0.3390821799
 H   -4.1574327984   -2.5873366968   -2.2358078810