21

 O    0.3323970868    1.4015947924    0.1211206910
 C    0.1632131102   -0.0040888711    0.0890701257
 C    0.2283872458   -0.5745252483    1.5276613226
 C   -1.3283225385   -0.5758781042    1.5825319712
 C   -1.9477095046    0.6616132618    2.2436904764
 C   -3.3231104809    1.0020983946    1.6456960014
 C   -3.2802618388    1.0606330658    0.1379541625
 C   -2.3706146238    0.4099220384   -0.5916924614
 C   -1.3353685045   -0.4694551458    0.0289289723
 H   -0.2743409963    1.7876760286   -0.5207550785
 H    0.8347135983   -0.4538095771   -0.6550261365
 H    0.6491065734   -1.5834276603    1.5480642235
 H    0.7569515066    0.0520367612    2.2497670329
 H   -1.7884730719   -1.4870621274    1.9767241727
 H   -2.0253498351    0.5152547620    3.3270768346
 H   -1.2841619454    1.5158842251    2.0795129891
 H   -4.0759379895    0.2633940080    1.9600577613
 H   -3.6746942177    1.9622649971    2.0418419601
 H   -4.0447413427    1.6544348681   -0.3582964796
 H   -2.3917402156    0.4828744429   -1.6782038203
 H   -1.3644993056   -1.4671123919   -0.4255555108