25

 C   -0.0662954669    1.5953165503    0.0926772877
 C   -0.0382573363    0.0673029223   -0.0320161686
 C    0.7283939387   -0.4615208229   -1.2598559660
 C    2.1862991304    0.0201477630   -1.2677442213
 C    0.6690027470   -2.0183328396   -1.3500762200
 C   -0.7657228945   -2.5897100791   -1.3178144555
 C    1.3545374129   -2.5061893311   -2.5501528777
 C    1.8807410135   -2.9150028492   -3.5542158616
 C    2.5272809946   -3.4144412789   -4.7603914020
 H    0.9272614188    2.0145706913    0.2741560544
 H   -0.4615454085    2.0585727261   -0.8187405930
 H   -0.7083755385    1.9026323596    0.9242392968
 H    0.4027059108   -0.3649515888    0.8778454988
 H   -1.0726429694   -0.2886251684   -0.0684631144
 H    0.2337470882   -0.0726359341   -2.1618921690
 H    2.7306713829   -0.4003270848   -2.1163404635
 H    2.2498028716    1.1092970559   -1.3340161048
 H    2.7029123209   -0.2885665194   -0.3500521630
 H    1.2040295505   -2.4111228439   -0.4715033389
 H   -1.3775361481   -2.1433748436   -2.1086442718
 H   -0.7432726455   -3.6699476430   -1.4825244307
 H   -1.2519942376   -2.4053608293   -0.3570970285
 H    1.9660551958   -4.2473499359   -5.1987606331
 H    2.6063388304   -2.6329647997   -5.5244814659
 H    3.5410412586   -3.7741376969   -4.5510930486