14

 C   -0.1092255015    1.5246899205    0.0252167449
 N    0.0892609637    0.0841268595   -0.1047046833
 C    0.6763867950   -0.5432869282   -1.2520931539
 C    1.7877263915    0.3047581380   -1.8961764902
 C    2.5052587476    0.2491474510   -0.5181773061
 O    3.6008907007    0.5635451551   -0.1532562339
 C    1.3823911095   -0.5577804543    0.1078116709
 H    0.6859166728    2.1537715052   -0.3953492951
 H   -1.0521564425    1.7858402826   -0.4644852662
 H   -0.2017300374    1.7601918297    1.0888503805
 H    0.1579972321   -1.3716284984   -1.7213589474
 H    2.3826038461   -0.2391162603   -2.6361780158
 H    1.5107082204    1.2778680890   -2.3081953742
 H    1.4690846020   -1.3247938692    0.8697640097