16

 N   -0.0346936711    1.2296005084    0.0138284085
 C    0.0436798652   -0.1135358999    0.1609183899
 O    1.0542416434   -0.7591762364    0.3240978977
 C   -1.3669352285   -0.7437979293    0.0883213330
 O   -2.3695011766   -0.0934425330   -0.0945403913
 O   -1.3076179899   -2.0602224267    0.2609221674
 C   -2.5331140524   -2.7761220032    0.1996679365
 C   -2.6427470290   -3.8289137056   -0.8614772799
 C   -2.4402804684   -4.2131964588    0.5911825963
 H    0.8065853703    1.7800926300    0.0303870605
 H   -0.9345836479    1.6583051407   -0.1264232285
 H   -3.3913265572   -2.1727238474    0.4637232995
 H   -3.6108265964   -3.9868019094   -1.3230249553
 H   -1.7929358652   -3.9444467740   -1.5239754318
 H   -1.4592155195   -4.5774955364    0.8727669007
 H   -3.2660182869   -4.6445865792    1.1451847967