19

 O   -0.0208928615    1.4402283896   -0.0620161048
 C    0.0318210731    0.0248897148    0.0469607345
 C   -1.3818928602   -0.5157867941   -0.1280654297
 C   -1.4607994460   -2.0318865414   -0.0206235777
 C   -1.2368409805   -2.7187380207    1.3602334847
 C   -2.3726473961   -3.7155967113    1.0063371029
 C   -2.8566524373   -2.7152393882   -0.0775784900
 H    0.8674154052    1.7846446688    0.0674294044
 H    0.6924787709   -0.4091027009   -0.7221468548
 H    0.4302605463   -0.2833335039    1.0273436697
 H   -2.0275007735   -0.0537440382    0.6298626777
 H   -1.7609682568   -0.1868386565   -1.1041200930
 H   -0.8000599541   -2.4918173467   -0.7666957050
 H   -0.2467172508   -3.1265819142    1.5795393846
 H   -1.5272298963   -2.0535486257    2.1808951879
 H   -1.9802219845   -4.6350485937    0.5619788808
 H   -3.0751842242   -3.9877929945    1.7974460603
 H   -3.6356364877   -2.0494904942    0.3089890530
 H   -3.1902891660   -3.1168584991   -1.0378364455