15

 C   -0.0379489502    1.5080781684    0.0646341220
 C    0.0141568510    0.0196967948   -0.0046326159
 C    0.0098071993   -0.8280998532   -1.1105354882
 C   -0.0467358096   -0.4671284226   -2.4721913767
 N   -0.0915307197   -0.2297917866   -3.6075903024
 C    0.0744278196   -2.1780619042   -0.6243684803
 O    0.0914568190   -3.3100404818   -1.3666774449
 C    0.1161654755   -2.1206578960    0.7428733208
 N    0.0779517979   -0.7774285920    1.0910390688
 H    0.8483355266    1.9241028477    0.5580148068
 H   -0.0848623091    1.9237842129   -0.9438381172
 H   -0.9194630815    1.8596674062    0.6135781695
 H    0.0554615873   -3.0702518676   -2.2999658965
 H    0.1680789603   -2.9015691061    1.4808627001
 H    0.0967039437   -0.4376505697    2.0371371942