22

 C   -0.0854115194    1.5472353510   -0.0126636748
 C   -0.0123900229    0.0118253018    0.0073069241
 C   -1.4469101777   -0.5340825985   -0.0878965260
 C    0.9162949141   -0.5452028410   -1.0784817436
 C    2.3040622614   -0.5819458578   -0.5362896219
 C    2.2524700326   -0.0848906083    0.9054235956
 C    0.8158946460   -0.5808589772    1.1948209273
 C    0.9860514276   -2.0444378219    0.7412341615
 N    1.5069843304   -1.8349515488   -0.6353224782
 H    0.8966672847    2.0234959314   -0.0067719933
 H   -0.6058471115    1.8887215761   -0.9142248753
 H   -0.6497201594    1.9204348048    0.8493676215
 H   -1.9500349181   -0.1236394400   -0.9702397321
 H   -1.4883779090   -1.6214637294   -0.1707497761
 H   -2.0329946400   -0.2374656481    0.7894014862
 H    0.6895972598   -0.4480148866   -2.1346723135
 H    3.1921458040   -0.5151425178   -1.1531024282
 H    2.9945662432   -0.5743673390    1.5446324249
 H    2.3877762604    0.9942029505    0.9966335075
 H    0.4234420741   -0.4051777337    2.1961819717
 H    1.7258454935   -2.5897884678    1.3354879223
 H    0.0674687962   -2.6327395198    0.7167050401