15

 O   -0.0917101099    0.1170557449    0.4055549782
 C    0.0008888196    1.2527315491    0.0779465830
 O   -0.9854727080    2.0907965599   -0.4076765699
 C   -0.0534403048    3.1909750282   -0.5888186075
 C   -0.0659099478    4.0547503514   -1.7960892758
 C   -0.4548385164    4.6117189321   -0.4303173806
 C    1.0509876678    2.3551801547    0.0042639785
 C    2.1757285672    2.6476954587    0.8931323151
 O    2.3660876257    2.2273558871   -0.4656895113
 H    0.8930381616    4.3309930243   -2.2215180519
 H   -0.8618346983    3.8942197261   -2.5144562947
 H   -1.5065315099    4.8096529573   -0.2556558733
 H    0.2263094004    5.2882161447    0.0754418565
 H    2.4298610743    3.6852680511    1.1015883085
 H    2.4587481987    1.9199813904    1.6506730952