18

 O   -0.0438273997    1.3252990562    0.0118942539
 C    0.0086674482   -0.0818502285    0.0046631669
 C   -0.4981658585   -0.7525837266    1.2671919740
 O   -0.8812823856    0.0640158730    2.3306508926
 C   -1.3249166260   -0.7642145561    0.0058635741
 C   -2.7251864728   -0.1216888017   -0.1244281342
 C   -3.1452126443   -1.3692519480   -0.9189616367
 N   -2.2538679059   -1.4426306693   -2.1037585242
 C   -1.7872710495   -1.9657465960   -0.7906350811
 H    0.8081049014    1.6486342080    0.3267739838
 H    0.8272936500   -0.5160472843   -0.5667963017
 H   -0.0390434304   -1.6758880053    1.6101133312
 H   -0.8540800180    0.9690671237    1.9883717869
 H   -3.2171906450   -0.0316026903    0.8473229262
 H   -2.7840306429    0.8230977883   -0.6687792578
 H   -4.1151140985   -1.8505047235   -0.9245876003
 H   -2.5576246866   -2.2509207777   -2.6486408287
 H   -1.4790520257   -2.9979666519   -0.6744662549