11

 C    0.0562770167    1.3795289763   -0.1019589668
 O    1.4176434733    1.8342001278    0.1097504685
 C    2.0239109653    0.7555416037    0.6602841996
 N    3.2013379034    0.4500772175    1.1331651014
 N    3.0455829620   -0.8946241870    1.3498875018
 N    1.7908339011   -1.4031807193    1.1344249142
 C    1.1824291330   -0.3501017326    0.6610042647
 O   -0.0191110937   -0.0535936992    0.1109713006
 H   -0.5996069851    1.8791729459    0.6199602214
 H   -0.2348510475    1.6004356203   -1.1309438936
 H    3.6276076914   -1.3371282232    2.0433994181