21

 C    0.1005248829    0.7946833844    0.9061005993
 C   -0.3378717854    0.6954581929   -0.5666936675
 C   -1.5124022455   -0.1497844206   -0.7526956015
 C   -2.4789106335   -0.8565741110   -0.8735949878
 C   -3.6409832138   -1.7158616626   -1.0184719593
 C   -3.7264753305   -2.8675733141    0.0020670258
 O   -2.8457397970   -3.1065358900    0.7887652877
 C   -5.0117944261   -3.6848327517   -0.0632727290
 C   -5.0102518223   -4.8933779504    0.8692687401
 H    0.9875816804    1.4286612222    0.9982612779
 H   -0.6962396678    1.2235440976    1.5197740736
 H    0.3365876480   -0.1946377256    1.3063158131
 H   -0.5445289647    1.7004689993   -0.9570976142
 H    0.4914447866    0.3037618232   -1.1697494733
 H   -4.5731164354   -1.1370652398   -0.9523897437
 H   -3.6657149496   -2.1739504652   -2.0185105365
 H   -5.8446559953   -3.0070318524    0.1724601021
 H   -5.1776356371   -3.9843697263   -1.1070989719
 H   -5.9590566349   -5.4331031031    0.8041591317
 H   -4.2017214571   -5.5831071928    0.6133793027
 H   -4.8556835219   -4.5833542940    1.9054364406