25

 C   -0.3020210328    1.4723161787   -0.0452889492
 C    0.0344604748   -0.0170482256    0.0673651293
 C    0.6260016573   -0.6027960944   -1.2186600233
 C    0.9637035957   -2.0968699043   -1.1111833146
 C    1.5816702756   -2.6468621895   -2.3807984071
 C    1.6331890290   -4.1353644388   -2.6951879474
 C    1.0859514995   -5.1904822381   -1.7567854500
 C    0.7158225151   -3.2354200890   -3.4781384286
 O   -0.6573627847   -3.4057854466   -3.2564975560
 H    0.5902952773    2.0628710797   -0.2814907569
 H   -1.0358004697    1.6541993544   -0.8386771685
 H   -0.7200180495    1.8606784664    0.8887664709
 H    0.7432450546   -0.1714181303    0.8918093170
 H   -0.8693734045   -0.5787118572    0.3385803512
 H   -0.0796630812   -0.4475564711   -2.0479477591
 H    1.5310519942   -0.0419885514   -1.4912186990
 H    1.6532186790   -2.2495001060   -0.2697446744
 H    0.0531923201   -2.6533157507   -0.8676057000
 H    2.4393931604   -2.0740169665   -2.7292149648
 H    2.5236389456   -4.4506065135   -3.2335538038
 H    0.1033604037   -4.9176106627   -1.3693212910
 H    0.9748260422   -6.1453930569   -2.2815568684
 H    1.7599809917   -5.3539916144   -0.9088584895
 H    0.9765975639   -3.0165035676   -4.5137751566
 H   -1.0778615673   -2.5417526946   -3.3179175402