17

 C    0.0159395735    1.5679348646    0.1153573113
 C   -0.0361743399    0.0430758845   -0.0793910159
 C   -1.4438256728   -0.4801842254   -0.1247290527
 C   -2.0224647334   -1.0090779148   -1.2252773044
 C   -3.3902548249   -1.4766256009   -1.1798278230
 N   -4.0056987898   -1.9885716436   -2.1777204515
 N   -3.9282076249   -1.2852889307    0.1068168532
 N   -3.3248933916   -0.7572465674    1.1877114756
 N   -2.1261476380   -0.3614018941    1.0957496611
 H    1.0523098381    1.9090107019    0.1904975232
 H   -0.4541644316    2.0868154376   -0.7258724830
 H   -0.5091842340    1.8548118365    1.0299691101
 H    0.4851729675   -0.2422037579   -0.9981478804
 H    0.4812878508   -0.4425041060    0.7565063144
 H   -1.4968320177   -1.1050445144   -2.1676587929
 H   -4.9627743967   -2.2562740757   -1.9433315295
 H   -4.8801654945   -1.5675151545    0.2953156143