15

 O    0.5797321883    1.3007241350    0.0016297284
 C    0.2861300767   -0.0115282363   -0.0610012206
 N    0.2875731412   -0.7617022637   -1.1282750994
 C   -0.0730072302   -2.0177725753   -0.6628108196
 C   -0.2820522541   -1.9971513187    0.6827559695
 N   -0.0461516390   -0.6797890344    1.0755656463
 C   -0.1114052995   -0.1282947595    2.4213982521
 C   -1.4329678585   -0.2507150107    3.0325461313
 C   -2.5106860369   -0.3620688877    3.5498532568
 H    0.7818920556    1.5729546915   -0.9021555611
 H   -0.1585615909   -2.8562615661   -1.3361867151
 H   -0.5820487756   -2.7467734286    1.3949171820
 H    0.6348647954   -0.6236809423    3.0554614575
 H    0.1778688874    0.9237886793    2.3507732322
 H   -3.4677625901   -0.4532767325    4.0014248696