14

 C    0.0417428715    1.5030390340   -0.0142182286
 C   -0.0467303375    0.0109595897    0.0039445673
 C   -0.2261929750   -0.8426620927   -1.0392697695
 O   -0.4249780603   -0.5729963228   -2.3464216094
 C    0.1102331229   -1.4226027360   -3.2967761798
 O   -0.0981803406   -1.2467095585   -4.4509328063
 O   -0.2566065441   -2.1239762999   -0.6486244205
 N   -0.0750065243   -2.1567102455    0.7438942885
 C    0.0374014358   -0.8998861794    1.0965021497
 H    0.9923714829    1.8539602006    0.4007178565
 H   -0.0379309500    1.8774644065   -1.0374408600
 H   -0.7613121875    1.9603078874    0.5733116092
 H    0.7165480901   -2.2237031162   -2.8509197733
 H    0.1837194960   -0.6701230672    2.1436276462