16

 N    0.0301978908    1.2717621731    0.3733999090
 C    0.1300453988   -0.0490382249    0.0780730681
 O    1.1799943148   -0.6432113337   -0.0799989847
 C   -1.2099201130   -0.7583145224   -0.0361444334
 N   -2.3773203893    0.0728317620    0.1211302989
 C   -1.2262544716   -1.8984055547   -1.0168455737
 C   -1.2573543317   -2.2222959498    0.4575432460
 C   -0.1702236937   -2.8815001829    1.1255884947
 N    0.6322974785   -3.4705298171    1.7142189275
 H    0.8731772904    1.8215122836    0.3583271526
 H   -0.8709572352    1.7159514974    0.3005780750
 H   -3.1274536020   -0.1951064039   -0.5038066857
 H   -2.7327068718    0.0550329292    1.0709063642
 H   -2.1337860111   -2.0785029293   -1.5829997484
 H   -0.2932654109   -2.0846215367   -1.5339779962
 H   -2.2284002530   -2.5005679899    0.8563357561