17

 C    1.0777955428    1.0797008259   -0.7069952821
 C    0.0882466597    0.1392709976   -0.0675307530
 N    0.5967101085   -1.1367741250    0.4496717970
 C    0.0460381191   -0.1578453283    1.4022913903
 C    0.9961709589    0.4061662768    2.3817204149
 N    0.5967408229    1.2323352415    3.3547395212
 N    1.7217692154    1.4980009213    4.0067110282
 N    2.8247525369    0.9183616950    3.5556558176
 C    2.3849742778    0.2111755753    2.5142619088
 H    2.0173533866    1.1046882180   -0.1509519786
 H    1.2982710586    0.7650425191   -1.7324923944
 H    0.6724390579    2.0963897588   -0.7436609615
 H   -0.8866462678    0.1133177257   -0.5541747365
 H   -0.0644895262   -1.8911830415    0.2909609904
 H   -0.9448330270   -0.3375743398    1.8132021509
 H    1.7336823158    2.1019002723    4.8124687463
 H    3.0464151102   -0.4005156827    1.9244127206