16

 O   -0.0296792617    1.4351623017   -0.0365561277
 C   -0.0000295444    0.0224881685   -0.0089678931
 C   -1.3920838715   -0.5787060048    0.0406316871
 O   -2.0452114280   -0.1750268290   -1.1795811670
 C   -3.3194823660   -0.5480508607   -1.3245424392
 N   -3.9620316322   -1.2705942474   -0.4345398166
 O   -5.2440958304   -1.4362384046   -0.9680583773
 C   -5.3082449225   -0.8067758950   -2.1495166245
 C   -4.1281462844   -0.2161764793   -2.4517945300
 H   -0.5826171630    1.6843319729   -0.7852362753
 H    0.5416966374   -0.3896654421   -0.8749444761
 H    0.5444042046   -0.2685185990    0.8950701993
 H   -1.3640142964   -1.6726075332    0.0981732432
 H   -1.9604839702   -0.1959358976    0.8945493292
 H   -6.2572858188   -0.8652523709   -2.6602787679
 H   -3.8569959024    0.3594527706   -3.3195791642