21

 C   -0.4104272143    1.4675152235   -0.0996779962
 C   -0.0605060564    0.0007815742    0.0276540046
 C    1.3025858295   -0.6046883582   -0.3115591815
 C    2.5269224466    0.2472934076   -0.6278435034
 O    3.3633815564    0.4672487086    0.4989348558
 C    2.6664487111    1.1000781654    1.5503498868
 C    1.5747069858    0.1903622051    2.1457472460
 C    0.8008018465   -0.6105582935    1.1061661512
 O    0.4001493991   -1.8818629652    1.5642883491
 H    0.4038798596    2.1345541051    0.1888365439
 H   -0.6807373300    1.7137472891   -1.1329854503
 H   -1.2715727483    1.7144804552    0.5315106027
 H   -0.8794684588   -0.6586209164   -0.2495967868
 H    1.2657734474   -1.5675271924   -0.8092961781
 H    3.1535637662   -0.2640708036   -1.3624551371
 H    2.2352331523    1.2172225676   -1.0630887995
 H    3.4096005654    1.3354629478    2.3177954885
 H    2.2449948418    2.0571543279    1.2033619455
 H    2.0601972263   -0.5538464671    2.7849369179
 H    0.9066382637    0.7827875696    2.7851614555
 H   -0.3178309198   -1.7526796605    2.1942706852