20

 C   -0.4130891784    1.5748245770   -0.0213601652
 C   -0.2790223922    0.0871220617   -0.0254256169
 C   -0.1648149256   -0.7344036723   -1.0679401108
 C   -0.0898188530   -2.1694851454   -0.6298414850
 N    0.1068509375   -2.0604283137    0.8214444352
 C   -0.3750706150   -3.1542972053    1.6270872432
 C    0.3468137451   -3.2223451707    2.9652332375
 O   -0.1537573206   -3.5874487533    3.9960645875
 C   -0.2956440388   -0.7181043803    1.2525486605
 H    0.4019351903    2.0457419109    0.5425065802
 H   -0.4038856136    1.9805859921   -1.0362512476
 H   -1.3473385789    1.8880561225    0.4619870145
 H   -0.1516529727   -0.4388870536   -2.1101969020
 H   -1.0193664884   -2.7098722620   -0.8961234811
 H    0.7373797621   -2.7242013891   -1.0965115998
 H   -1.4646195547   -3.1487875619    1.8138492218
 H   -0.1399357114   -4.0979930365    1.1130948885
 H    1.4151117819   -2.9120452311    2.9019532750
 H    0.3898266774   -0.3195023105    2.0154529929
 H   -1.3076726310   -0.7017061587    1.7063916817