18

 O    0.0236485381    1.4655980874   -0.0802600952
 C    0.0252205512    0.0655744355   -0.0465436247
 C    0.2795541793   -0.5569424320    1.3634119517
 C   -1.2582513902   -0.6632027597    1.5297074871
 C   -2.0270733286   -1.5906380423    2.4863912639
 O   -2.6057878898   -0.4155143233    3.1588516222
 C   -1.9318444354    0.4312258628    2.3193697715
 N   -1.8940953120    1.6855432899    2.2416421086
 C   -1.3913644059   -0.5919756736   -0.0133414924
 H   -0.5616212842    1.8019320409    0.6215094890
 H    0.6916210452   -0.2629287196   -0.8469720031
 H    0.7412306223   -1.5467653473    1.2974585814
 H    0.8238580614    0.0597755577    2.0816894906
 H   -2.8139039272   -2.2054242551    2.0427123847
 H   -1.4261095145   -2.1763280219    3.1861949692
 H   -2.4755981048    2.1538061897    2.9354723766
 H   -2.2155315802   -0.0039514835   -0.4226168886
 H   -1.3900849185   -1.5914524956   -0.4586381574