22

 C   -0.2856752080    1.4707787867   -0.2999188446
 C   -0.0947758474   -0.0004796295    0.0573995479
 O    0.6118862783   -0.1521594150    1.2882715163
 C   -1.4212005758   -0.7957037324    0.0969598205
 C   -1.1639883349   -2.3018348208    0.1831286415
 N   -2.2483780830   -0.3656315744    1.2247288907
 C   -3.3684507681    0.4081432661    1.0758059982
 C   -4.2092122182    0.5717474175    2.3339336117
 O   -3.6793012008    0.9211016043    0.0160365199
 H    0.6809762080    1.9819027251   -0.3046717787
 H   -0.7503105896    1.5815617869   -1.2837890289
 H   -0.9395098141    1.9681618462    0.4246483295
 H    0.5498119925   -0.4727374797   -0.6938694042
 H    0.1528002118    0.3938021148    1.9365559389
 H   -1.9966450306   -0.5589446970   -0.8026019968
 H   -0.6205292383   -2.6478752142   -0.7010294261
 H   -0.5507878523   -2.5339661949    1.0600526174
 H   -2.1032174975   -2.8585179970    0.2461688339
 H   -2.1087399461   -0.8396435968    2.1027494596
 H   -3.6613117694    0.3528870585    3.2546724448
 H   -4.5898366294    1.5937745278    2.3716335169
 H   -5.0714270372   -0.1005632921    2.2760410015