22

 C   -0.0460586263    1.4924028123   -0.0480763278
 C   -0.1009683638    0.0086512367    0.2740563767
 O   -1.2745140466   -0.5321817047   -0.3021762425
 C   -1.4240910522   -1.9043755403   -0.0919757323
 C   -1.8739357946   -2.4501278921    1.3191774115
 C   -3.0514449639   -3.1160911008    0.6041224467
 N   -3.8367413696   -1.9950404973    0.0312266925
 C   -2.6718323985   -2.5309732910   -0.7181960710
 C   -2.7983682448   -3.0347297367   -2.1225142713
 H    0.8513230887    1.9449749684    0.3846392146
 H   -0.0282516225    1.6492060693   -1.1303954263
 H   -0.9242904174    2.0031266014    0.3565021509
 H    0.7897247509   -0.5080967318   -0.1241892757
 H   -0.1020406218   -0.1483347345    1.3649061806
 H   -0.5245203782   -2.4470197153   -0.4268817177
 H   -1.1534913068   -3.1388492350    1.7649256483
 H   -2.1683059290   -1.6856567511    2.0418725900
 H   -3.5158758800   -4.0697530807    0.8241224561
 H   -4.6641491408   -2.4019739980   -0.4068175274
 H   -2.8979573994   -2.2039822584   -2.8304608545
 H   -1.9177535183   -3.6177516316   -2.4133427717
 H   -3.6784228352   -3.6780902390   -2.2332425796