12

 C    0.0056171547    1.3949959694   -0.0311732874
 O    0.0212607084   -0.0464966461   -0.0338149438
 C    0.5961904854   -0.6474216527   -1.0420650552
 N    0.7010034942   -1.9348237510   -1.2065871885
 C    1.3742134235   -1.9858995276   -2.3978850276
 N    1.6758413157   -0.8315400704   -2.9500561952
 O    1.1458222066    0.0835860014   -2.0269424631
 C    1.7436414727   -3.2120374118   -3.0319562230
 N    2.0390007888   -4.2070923100   -3.5386236690
 H    1.0252704807    1.7873731047   -0.0247647877
 H   -0.5313857505    1.7721136789   -0.9047281109
 H   -0.5144483403    1.6715538153    0.8840408412