20

 O   -0.4387600360    1.4774338715   -0.6561040922
 C   -0.0093712528    0.2275689630   -0.1316080640
 C   -1.2427989499   -0.5494529971    0.2512615106
 C   -1.9940141018   -1.3624451158   -0.7727327451
 C   -1.2751557283   -2.0559900195    0.3647117210
 C   -0.0721818364   -2.9374836911    0.1043893513
 N   -0.4785850169   -4.2887634780   -0.2580357870
 C   -0.0129639265   -5.4029509156    0.3654975087
 O    0.8074521773   -5.4185137308    1.2590671321
 H    0.3405246040    2.0209820279   -0.8061437501
 H    0.5835201114   -0.3270102963   -0.8749583245
 H    0.6305418778    0.3707342618    0.7538747850
 H   -1.8537408494   -0.0204102438    0.9773016795
 H   -3.0776818423   -1.3332339459   -0.7740968951
 H   -1.5493374417   -1.4308946597   -1.7617796897
 H   -1.9091478868   -2.4400974768    1.1596820193
 H    0.5565049449   -2.5141004753   -0.6883237921
 H    0.5509974410   -3.0412871839    0.9962599732
 H   -1.1773137735   -4.3983598662   -0.9762404460
 H   -0.4772696340   -6.3229037184   -0.0432667751