22

 C   -0.2031469273    1.7259148380    0.0875235530
 C   -0.1933419702    0.2077193871   -0.0276160436
 C    0.1976525353   -0.6560714256    1.2204987509
 C   -1.1298247450   -1.4148567494    1.0885902065
 C   -2.2808619844   -0.4600843778    1.2131030690
 C   -1.5382757108   -0.5331166445   -0.0953833304
 N    1.1492271100    2.2378835651    0.2912636263
 C    1.9138463327    2.5430134826   -0.9133905949
 C    1.3740723431    3.6348919695   -0.0561847935
 H   -0.6780412927    2.1598616635   -0.8137054591
 H   -0.8075222770    2.0395019605    0.9467098369
 H    0.4355540085   -0.0761399358   -0.8778563750
 H    1.0805747889   -1.2721254161    1.0403687397
 H    0.3427674021   -0.1093667011    2.1577983228
 H   -1.2583367321   -2.4833819067    1.2111313351
 H   -3.2674962146   -0.9126406191    1.1993419997
 H   -2.2065689294    0.4109669320    1.8600216376
 H   -2.0450949786   -0.8152551878   -1.0110815582
 H    2.9694091017    2.2877113229   -0.8866100634
 H    1.4315918903    2.3877162006   -1.8780050577
 H    0.5335613534    4.2044400550   -0.4508475975
 H    2.0279909864    4.1913929070    0.6094967657