18

 N    0.0823044741   -1.1705481977   -0.0434758190
 C    0.0636080589   -0.0163095296   -0.0146527300
 C   -0.0051723699    1.4541392456    0.0279141093
 C   -0.8144454995    1.9206319089    1.2563566873
 C   -1.3419111685    3.3686658683    1.1252569633
 O   -0.6428973210    4.1821394908    0.2010073304
 C    0.7544650059    4.3005579049    0.4112689075
 C    1.5171055095    3.2514363339   -0.3923957396
 O    1.3333509419    1.9245624792    0.0740984820
 H   -0.4977334838    1.7918631267   -0.8963995116
 H   -1.6620989007    1.2475286728    1.4202907139
 H   -0.1508110361    1.8126322434    2.1191533342
 H   -2.3706614460    3.3589597329    0.7538466478
 H   -1.3550452079    3.8395486166    2.1200531181
 H    1.0478232240    5.2965578937    0.0582531801
 H    1.0081718876    4.2310144921    1.4788458674
 H    1.2135159572    3.3318626485   -1.4475064750
 H    2.5941638943    3.4351967588   -0.3268068460