16

 C   -0.0533680227    1.5364155443   -0.2437548080
 C   -0.0250523329    0.0387259891   -0.0643782615
 C    0.8517604899   -0.8012572097   -0.8888621242
 O    1.1813940980   -0.5113391661    0.4829751770
 C   -1.2862316709   -0.6193241937    0.5303169810
 O   -1.0699562770   -1.9968607033    0.7682632115
 C   -1.7275370018    0.0753944689    1.7493976678
 C   -2.0790444760    0.6279463954    2.7572095556
 H    0.8904466915    1.8848172240   -0.6693648374
 H   -0.8671163036    1.8271822350   -0.9172552144
 H   -0.2135497913    2.0366131388    0.7146228065
 H    0.5788797039   -1.8342415855   -1.0848598309
 H    1.4991432303   -0.3273797308   -1.6244818720
 H   -2.0869284847   -0.5617026908   -0.2179676898
 H   -0.2309817652   -2.0443196806    1.2490540203
 H   -2.3984642474    1.1094590850    3.6485908284