16

 C   -0.0913591401    1.6297022138    0.0311673788
 C   -0.0509453989    0.1004548801   -0.0203803187
 N   -1.3850147810   -0.5074988561   -0.0076454722
 C   -2.0526718325   -0.7087212232   -1.2829779395
 C   -1.9314439885   -0.7903932185    1.2015190628
 O   -1.4018012028   -0.5819980320    2.2770209113
 C   -3.2744901993   -1.4083853478    1.1649972292
 N   -4.3233616254   -1.8908007443    1.2213864364
 H    0.9257824691    2.0308833303   -0.0070058407
 H   -0.6500326819    2.0484459643   -0.8116525650
 H   -0.5576472165    1.9649271457    0.9608061238
 H    0.4546658977   -0.2456488410   -0.9276196246
 H    0.4913286906   -0.2878938360    0.8437815514
 H   -3.0441184552   -1.1347923965   -1.1291359659
 H   -2.1643474892    0.2425550766   -1.8153285177
 H   -1.4724059962   -1.3922091753   -1.9132300992