12

 O    0.0799976524    1.3453374682   -0.0223509972
 C    0.0750031413    0.0091327731   -0.0027652275
 N    0.0511676068   -0.7659316907   -1.0586334488
 N    0.0564095580   -2.0199132219   -0.5350012483
 C    0.0354974775   -3.1393742532   -1.3723895956
 O    0.0384924518   -4.2739511326   -0.9884674022
 N    0.0826923130   -2.0713816830    0.8162801927
 C    0.0947786394   -0.8096794646    1.1716269270
 O    0.1212950346   -0.3660853567    2.4307117428
 H    0.0629358132    1.6337254169   -0.9443174548
 H    0.0162556431   -2.8040662686   -2.4221443803
 H    0.1299511789   -1.1339566770    3.0178169622