20

 C   -0.1106441930    1.5909586553   -0.0378290965
 C    0.0433893648    0.0780814695    0.0338208899
 C    1.1055188822   -0.6221607170   -0.8226087018
 C    2.4775433413   -0.3452223556   -0.3547383365
 N    1.6932199232   -1.3654568661    0.3734844612
 C    0.7551090874   -0.5877499114    1.2215449012
 C    1.0952198346   -0.0350368784    2.5793885928
 C    0.1031714003   -1.1743488162    2.4169635171
 O   -1.2668627582   -0.9266818853    2.5471818449
 H    0.8435884138    2.1069773465    0.1060096681
 H   -0.5157283388    1.8953229110   -1.0089529481
 H   -0.8027210203    1.9413164805    0.7351131387
 H   -0.9314112218   -0.3977292994   -0.1078625587
 H    0.9094601561   -1.1384133923   -1.7570181118
 H    3.2951866784   -0.7734460266   -0.9266655362
 H    2.7148386130    0.5886164032    0.1491653440
 H    2.0692302744   -0.2638589942    3.0004088347
 H    0.6955084575    0.9421378463    2.8327895189
 H    0.4361795214   -2.1672049129    2.7192275387
 H   -1.4642225864   -0.8233374768    3.4839062393