14

 O   -0.5259368347    0.5496392052    0.6693174177
 C    0.0933458109    0.9559300892   -0.2769269520
 C    1.3238841622    1.8546271054   -0.1745671360
 C    1.2721096922    2.9895542787   -1.1382483142
 C    0.9183971867    4.2995576638   -1.0289884377
 C    1.0380969083    4.8646725999   -2.3408569257
 C    1.4482388505    3.8544032314   -3.1485845937
 O    1.5949655176    2.7045443356   -2.4346198349
 H   -0.1959225335    0.6972959833   -1.3196873127
 H    1.4037060408    2.2151016718    0.8531047446
 H    2.2026685508    1.2305141969   -0.3888171361
 H    0.6133225440    4.8024978150   -0.1246489413
 H    0.8467111958    5.8846604832   -2.6345028582
 H    1.6773793585    3.7839594407   -4.1988613297