20

 C   -0.0314968785    1.5460200451   -0.0440946891
 C    1.4603838199    1.8541742886   -0.0217690965
 C    2.1931751660    1.0448634552    1.1076296749
 C    1.2851894728    0.4472275814    2.1907138204
 C    0.1875665405   -0.4232818465    1.5208289717
 C    0.0298709272    0.0019116844    0.0434598931
 C    1.3320634111   -0.2892519068   -0.7229397970
 C    2.5830774358    0.0789017745   -0.0071857690
 N    2.0489498453    0.9582506038   -1.1048872521
 H   -0.5917245141    2.0011249041    0.7791448833
 H   -0.4678387749    1.8839322288   -0.9896489948
 H    1.7445107238    2.8997083817   -0.1398619198
 H    3.0415728503    1.5894375620    1.5255133306
 H    1.8743544749   -0.1450221075    2.8988692375
 H    0.8345936946    1.2598892086    2.7725206037
 H    0.4627066143   -1.4829448622    1.5601783492
 H   -0.7642488269   -0.3246649377    2.0534945108
 H   -0.8287005423   -0.4914846565   -0.4169090087
 H    1.3655859953   -1.0763986750   -1.4679013205
 H    3.5172870749   -0.4658192159   -0.1076109775