20

 C   -0.1646457380    1.5303748528    0.0486799281
 C   -0.0036239100    0.0226401533   -0.0339065997
 C    0.5247063140   -0.8177795855   -1.1554702939
 C    1.3089928841   -0.3626008890   -2.3699622680
 C    1.9951384064    1.0114432749   -2.2523144598
 C    3.0086766434    0.1821745503   -1.4444802146
 C    2.5705348831   -0.0489415894    0.0126721463
 N    1.2593501277   -0.7185465588    0.1227722972
 O    2.6314882722   -0.9899089380   -2.2257326906
 H    0.7812731543    2.0736110320    0.0305554503
 H   -0.7918325952    1.9168875587   -0.7611241347
 H   -0.6558093398    1.7844288965    0.9926851529
 H   -0.7930258897   -0.4817624595    0.5243177734
 H    0.0514209499   -1.7879783476   -1.3098642865
 H    0.8244659901   -0.6378779610   -3.3095706198
 H    2.4161453465    1.3032965451   -3.2160897334
 H    1.4810068248    1.8545947017   -1.8002432745
 H    4.0759622853    0.4082333312   -1.5195177341
 H    3.2993376234   -0.7155676706    0.4873021058
 H    2.5880278576    0.8952050929    0.5722770456