18

 C    0.2337970648    1.4424582765   -0.1604434632
 N    0.3468734762   -0.0087513270   -0.1643953337
 C    0.5110866261   -0.6172071183    0.9128424608
 O    0.6017895272   -0.1621267370    2.2257678514
 C    0.8461540763   -1.5156332999    2.7509620808
 C   -0.1542442386   -1.9093522852    3.8134361757
 C    0.6801456939   -2.0497533276    1.3234477219
 C    0.0879608272   -3.2752209601    0.7867677374
 O    1.4938577771   -3.0063589461    0.6917798020
 H    0.9771847884    1.8581197582   -0.8489369273
 H   -0.7517150596    1.7250796387   -0.5472233757
 H    0.3685315750    1.8999582233    0.8264698614
 H    1.8783308149   -1.5872796108    3.1087335574
 H   -1.1763003613   -1.8481575475    3.4290233667
 H    0.0356396972   -2.9351150403    4.1464632562
 H   -0.0691003582   -1.2504311612    4.6823541643
 H   -0.1888593222   -4.0804376618    1.4654439897
 H   -0.4591590544   -3.2281631637   -0.1524517157