19

 C   -0.0899707941    1.5208340716    0.0265777337
 C   -0.0727755612    0.0280209544   -0.0855819662
 C    0.7412765827   -0.8036755832   -1.0785438903
 C   -0.1710706195   -2.0258307193   -0.7180160756
 N    0.5104758093   -2.7350428511    0.3784512302
 C    0.4229830247   -1.9320955317    1.3626902610
 N   -0.3711548840   -0.7546388976    1.1964577192
 C   -1.1472092640   -1.0033706293   -0.0392840127
 C   -2.6419616999   -0.9502696115   -0.0476008127
 H    0.8745326051    1.8936944094    0.3895051564
 H   -0.2797218945    1.9808619221   -0.9493079309
 H   -0.8623333535    1.8487849102    0.7264675897
 H    0.5489786332   -0.4478838487   -2.0942027132
 H    1.8160912332   -0.9358032074   -0.9228138988
 H   -0.5058196058   -2.6829585295   -1.5179555659
 H    0.9053948509   -2.0955731431    2.3213361628
 H   -2.9984099166   -0.0837318369    0.5162226360
 H   -3.0243161778   -0.8775388417   -1.0714301702
 H   -3.0676260784   -1.8507815168    0.4085899874