23

 C    0.1180001728    1.5657416984    0.2837781394
 C   -0.0413982176    0.0646433345    0.0268273645
 C    0.6258827890   -0.4337331581   -1.2671683591
 O    2.0312490915   -0.0960602933   -1.2423571681
 C    0.5441721691   -1.9705261499   -1.4265320741
 C    0.3639507997   -2.2296213620   -2.9384055479
 C   -0.1436412846   -0.9040101535   -3.4669962376
 C   -0.6686286809   -0.7650464593   -4.8606672400
 C   -0.0175060062    0.0567841668   -2.5484163444
 H    1.1761217029    1.8386146831    0.3414753896
 H   -0.3485022344    2.1679720542   -0.5037847039
 H   -0.3489842372    1.8512701215    1.2310597661
 H    0.3976047848   -0.4916842868    0.8645206182
 H   -1.1058957624   -0.1982279699   -0.0064995062
 H    2.1259313947    0.7969207155   -1.5876264266
 H    1.4351624147   -2.4408427349   -1.0049878961
 H   -0.3258459228   -2.3468180248   -0.8794484153
 H    1.3101508788   -2.4943291308   -3.4295757926
 H   -0.3290384329   -3.0539717107   -3.1454973298
 H   -1.5316227221   -1.4228310756   -5.0247227636
 H   -0.9742864013    0.2612878517   -5.0811432138
 H    0.0895378000   -1.0614275118   -5.5970226430
 H   -0.2891772657    1.0969272457   -2.7036041756