20

 C    0.0432216814    0.8895467520   -0.0261198473
 N   -0.1441399752   -0.5450890940   -0.0272265836
 C   -1.3395637024   -0.9808092892   -0.1571770885
 N   -2.4685412418   -0.2275527149   -0.3143907226
 N   -1.5243583329   -2.4036049352   -0.2040980734
 C   -0.2995222871   -3.2084701452   -0.2864398977
 C   -2.7504758013   -3.0285997178   -0.0763370716
 C   -2.7418438464   -4.5479862842   -0.0719741833
 O   -3.8188536158   -2.4367776586    0.0295335025
 H    1.1097226191    1.1152062350    0.0538905344
 H   -0.3318353468    1.3683876262   -0.9451696596
 H   -0.4548139833    1.3852923561    0.8254704448
 H   -2.3978082270    0.7326218052   -0.0223490682
 H   -3.3488987611   -0.7116058675   -0.1694259539
 H   -0.0595756209   -3.6758927003    0.6741770546
 H   -0.4033787128   -3.9846255523   -1.0463563932
 H    0.5117169953   -2.5354348909   -0.5494746618
 H   -2.0746204132   -4.9566835331    0.6915403389
 H   -3.7629253819   -4.8740273009    0.1212073976
 H   -2.4175756058   -4.9464522604   -1.0385530281