17

 C   -0.0211790508    1.5047164555    0.0341393709
 C   -0.0192212460   -0.0156115394    0.0324540920
 O   -0.0294366676   -0.6748241063    1.0589332801
 N   -0.0053047424   -0.6292479567   -1.1920314730
 C   -0.0022536283   -2.1014924102   -1.3054795828
 C    0.0151000325   -2.3721418611   -2.8360518165
 C    0.0192837588   -0.9836751568   -3.4372245105
 C    0.0075858237   -0.0632979778   -2.4725147689
 H    0.8678667484    1.9077082924   -0.4617771208
 H   -0.9009474055    1.9053548891   -0.4799133320
 H   -0.0322873157    1.8360111742    1.0718954592
 H    0.8717429318   -2.5047092712   -0.7880019364
 H   -0.8866657301   -2.5068062284   -0.8076800323
 H    0.8969974883   -2.9510129806   -3.1342645492
 H   -0.8579066915   -2.9541897657   -3.1535769980
 H    0.0303419400   -0.7757371301   -4.4970786561
 H    0.0070240743    1.0117800531   -2.5739413857