20

 C   -0.3918538489    1.4578077414   -0.1858807606
 C    0.2500784956    0.0924430355    0.1192671988
 C    0.8802346900   -0.5613274005   -1.0680986866
 C    2.2126309109   -0.8119402409   -1.3773253201
 C    2.3155413169   -1.4542791039   -2.6550023774
 C    1.0175557366   -1.5660338266   -3.0932929555
 C   -0.1351119817   -1.9879227112   -3.9907532756
 C   -1.0560256650   -1.3795992563   -2.8627514985
 N    0.1865325478   -1.0315804315   -2.1551029155
 H    0.3512391120    2.1554608794   -0.5835536158
 H   -1.1898952894    1.3639081152   -0.9299826525
 H   -0.8282531174    1.8969271888    0.7172175663
 H    1.0234880861    0.2158468802    0.8844776767
 H   -0.5092992480   -0.5690002018    0.5595842074
 H    3.0433113643   -0.5493437223   -0.7373659372
 H    3.2216576244   -1.7732638404   -3.1451438716
 H   -0.2107891882   -1.4815030749   -4.9570395868
 H   -0.2616574613   -3.0630576186   -4.1449748241
 H   -1.6608995285   -0.5165377075   -3.1563498635
 H   -1.6824830962   -2.1030531842   -2.3324156880