25

 C   -0.4357688090    1.3100533048    0.1450769698
 O    0.1677469061    0.0539827431   -0.0978936265
 C    0.8484453805   -0.5204564454    1.0278097071
 C    0.1561181309   -1.8296944942    1.4477477877
 C    0.8751724013   -2.4956424927    2.6312782578
 C   -1.3231632968   -1.5914030108    1.7814148963
 C    2.3340781674   -0.6482046965    0.6237823785
 C    2.5897176440   -1.6795874503   -0.4781295940
 O    2.8098662969    0.6344929324    0.2299720605
 H    0.2988738554    2.0550215608    0.4809135606
 H   -0.8739290131    1.6428507693   -0.8003015650
 H   -1.2345291780    1.2452319380    0.8968983363
 H    0.8064621868    0.1868394614    1.8692819386
 H    0.1957941574   -2.5094090826    0.5873178806
 H    0.3364086732   -3.3940208081    2.9489013639
 H    1.8978107478   -2.7961172123    2.3865044328
 H    0.9227408645   -1.8195214048    3.4935722680
 H   -1.8513710063   -1.1501006297    0.9332045968
 H   -1.8179211064   -2.5347612073    2.0343147834
 H   -1.4323067378   -0.9212470303    2.6430638776
 H    2.9185495088   -0.9068794769    1.5128183772
 H    1.9442918001   -1.4849622545   -1.3408774033
 H    3.6317679633   -1.6111462375   -0.8007960484
 H    2.4022620525   -2.7022355723   -0.1369705093
 H    2.2470397804    0.8963906963   -0.5089608571