19

 C   -0.1820342782    1.6003478020    0.0493339762
 C   -0.0354239708    0.0947075362   -0.0335982604
 C    0.8562431231   -0.5690066633   -1.0838513901
 C    2.1204942826   -0.2256963852   -0.2305618152
 N    1.0409725494   -0.5324244916    0.8598162468
 C    1.0785945493   -1.7627425062   -0.1030226241
 C    2.5851819851   -1.6677718315   -0.2130443463
 C    3.6439121716   -2.3936498644   -0.9309987569
 N    3.5946346205   -2.3557043100    0.5570845377
 H    0.7666539996    2.1169972014   -0.1249272973
 H   -0.9011564120    1.9578782648   -0.6956633541
 H   -0.5495611495    1.8923725590    1.0385366209
 H   -1.0044468320   -0.3949980613    0.1278274702
 H    0.7778753824   -0.6064678328   -2.1763238787
 H    2.7006888220    0.6974578650   -0.2084021487
 H    0.4275651533   -2.6198758766    0.0708657048
 H    3.4552276834   -3.3725633985   -1.3634060298
 H    4.4074354949   -1.8127561045   -1.4434881163
 H    4.2840107954   -1.7032768626    0.9230768613