18

 N    0.0320304308    1.4061313494   -0.2853423048
 C   -0.0164477065    0.0112268015   -0.0793919726
 C   -1.0317849159   -0.9131152657   -0.1884038378
 C   -0.4579849445   -2.2000001405    0.0572674608
 C    0.8818684222   -2.0190546804    0.3143411423
 N    1.1339123205   -0.6591284775    0.2364669764
 N   -1.1837425236   -3.4071080918    0.1292402594
 C   -1.7457241074   -3.9561276848   -1.1034657919
 C   -0.5872494869   -4.6108147595   -0.4327255038
 H    0.0846251417    1.9211482963    0.5893924777
 H   -0.7982116100    1.7194923996   -0.7730462455
 H   -2.0713544374   -0.7023757573   -0.3868297176
 H    1.6513554060   -2.7208705217    0.5879495850
 H    2.0427532823   -0.2308364388    0.2375375477
 H   -2.7434988748   -4.3767840507   -1.0173680118
 H   -1.5444523371   -3.4221687104   -2.0295158268
 H    0.3812331516   -4.5127153100   -0.9191863631
 H   -0.7246005909   -5.5203987076    0.1450369765