20

 C    0.0241544513    1.4948586056    0.2111019755
 C    0.1089571740    0.0041741322    0.0614662119
 C   -0.6569184528   -0.9578989165    0.9502123907
 C    0.8438561053   -1.0373051034    0.8919980596
 C    1.3223175029   -1.7757123136   -0.3560811531
 C    0.5208910242   -0.7428402703   -1.2198512672
 O    1.6497791270   -0.8084278690    2.0064410303
 C    1.5287820345   -1.6759997587    3.0389247748
 N    2.2882462951   -1.5669148103    4.0397280812
 H    0.9028945489    1.9853334072   -0.2220270196
 H   -0.8638564025    1.8950024869   -0.2920892632
 H   -0.0311477551    1.7814187013    1.2658585386
 H   -1.0469616529   -0.5072874434    1.8578996197
 H   -1.2805632666   -1.7453362786    0.5306325372
 H    2.4003755439   -1.6762216458   -0.4981085331
 H    1.0459868203   -2.8318395314   -0.4413260027
 H   -0.3027458231   -1.1466853815   -1.8167551209
 H    1.1698513200   -0.1513047962   -1.8699020973
 H    0.7328528427   -2.4160409266    2.8890751454
 H    2.0596572331   -2.2836716779    4.7256434122