17

 C   -0.0499516583    1.5554465599    0.0216937948
 C   -0.0357412269    0.0236003969    0.0131534890
 C   -1.4575599362   -0.5482150774    0.0308708367
 C    0.7598906304   -0.5043981328   -1.2292818816
 C    2.1368058018   -0.0082965529   -1.2789968163
 C    3.2637383244    0.4041959074   -1.3089341553
 C    0.7604310771   -1.9766236288   -1.2740131004
 N    0.7434171103   -3.1313693255   -1.2988666372
 H    0.9611018888    1.9690114498    0.0248962188
 H   -0.5765342808    1.9473459676   -0.8567208004
 H   -0.5723949558    1.9202304307    0.9107823260
 H    0.5012950396   -0.3305334604    0.9007332605
 H   -2.0209829531   -0.2260269638   -0.8530758619
 H   -1.4586613580   -1.6409741292    0.0544574077
 H   -1.9946900887   -0.1899006323    0.9137525566
 H    0.2291324918   -0.1594385281   -2.1289711706
 H    4.2629429737    0.7635020989   -1.3419266865