14

 O   -0.0149072035   -0.0058906989    0.0011218573
 C    0.0008726324    1.1931169119   -0.0089504090
 N   -1.0140150781    2.1432324488    0.0200177512
 C   -0.1213892328    3.2972842147    0.1053072374
 C    0.4402796837    3.6950147606    1.4918138481
 C    0.6410993572    2.5426244370    2.3869307369
 N    1.6453612809    2.7753421468    1.3309030483
 C    1.0676763926    2.3257606314   -0.0108094340
 H   -1.9837936193    2.0314637378    0.2850728450
 H   -0.3136633300    4.1051094736   -0.5987428727
 H    0.5693120949    4.7228582946    1.8148775554
 H    1.0395730370    2.7538618936    3.3744971294
 H   -0.0116244711    1.6760474541    2.3433211844
 H    1.8143886261    2.3519938841   -0.8002860678