15

 N   -0.0030458386    1.3942535038    0.1544365197
 C   -0.0618597096    0.0150272349    0.0600906417
 C   -1.1962505681   -0.7281620044    0.0383261787
 N   -1.1324356437   -2.1145370667   -0.0041238506
 C    0.0497393075   -2.7665163914   -0.0170971816
 O   -0.1007228758   -4.1121936529   -0.0508912153
 C    1.2348151493   -2.0867358424   -0.0020550364
 C    1.2678345756   -0.6477281222    0.0245977923
 O    2.2933375409    0.0400123925    0.0079786755
 H    0.9394187155    1.7078784780   -0.0564520938
 H   -0.7274391155    1.9170085163   -0.3132628698
 H   -2.1945381523   -0.3115024060    0.0569152640
 H   -1.9759115444   -2.6636923686   -0.0151549458
 H    0.7719763802   -4.5190443487   -0.0561790424
 H    2.1763601991   -2.6228741222   -0.0285276963