15

 O    0.1052550681    1.3898131902    0.1414178189
 C    0.0717890616   -0.0231786990    0.1825032298
 C   -1.3491469134   -0.5481406835   -0.0750342843
 N   -1.4126960187   -1.9955273519   -0.0244926403
 C   -1.9556148007   -2.8060269871    0.9077418591
 N   -1.7592757538   -4.0736677574    0.5942562847
 C   -1.0666081423   -3.9804648732   -0.5727056761
 N   -0.8289388344   -2.7473188702   -0.9917512107
 H    0.0686455065    1.6654414591   -0.7798633960
 H    0.7634076938   -0.4835875494   -0.5344494818
 H    0.3914980584   -0.3158341187    1.1879136684
 H   -2.0344171445   -0.1496581472    0.6772870153
 H   -1.6966471067   -0.2219292959   -1.0607273693
 H   -2.4783839801   -2.4310002487    1.7750959256
 H   -0.7317756238   -4.8418201869   -1.1312679032