25

 C   -0.6267575005    1.5557159188   -0.5069866066
 C   -0.4601970474    0.0362355013   -0.3859823193
 C   -1.7568874862   -0.6946437718   -0.1293895007
 C   -3.0547134012   -0.6736791638   -1.0012928348
 C   -3.3724802073   -1.6201098969    0.1900506769
 C   -1.9545323898   -2.2479732462    0.0060511592
 C   -1.6348942249   -3.2038475391   -1.1363430464
 C   -2.7210664466   -0.5335261027    1.1051463952
 C   -2.2818780166   -0.8130369183    2.5363090032
 H    0.3344057705    2.0452396819   -0.6913959754
 H   -1.2980609368    1.8152577605   -1.3322509708
 H   -1.0486752877    1.9830852329    0.4087664549
 H   -0.0038487066   -0.3573209435   -1.3042366954
 H    0.2444820544   -0.1937834110    0.4247754739
 H   -3.6065446814    0.2707297220   -1.0261130755
 H   -3.0004597282   -1.1122155230   -1.9982333090
 H   -4.3093428328   -2.1513528385    0.3715430342
 H   -1.5316875218   -2.6625499448    0.9250839715
 H   -2.0254468735   -2.8857792162   -2.1059717772
 H   -0.5504585083   -3.3243285242   -1.2421306930
 H   -2.0493435450   -4.1965205119   -0.9263109189
 H   -3.2734741398    0.4137075588    1.0822165467
 H   -1.7336276438   -1.7498726958    2.6609149799
 H   -1.6380591736   -0.0050054584    2.9024053599
 H   -3.1545526153   -0.8544133901    3.1979497475