17

 C   -0.9274857066    0.8178878534   -0.1074480651
 C    0.5375662588    0.3749330008   -0.0931211364
 C    1.0070772078   -0.1302217202    1.2333093756
 C    0.3469921920   -0.2551874513    2.4095324355
 O    1.2142868261   -0.7706226575    3.3390129301
 C    2.3793372252   -0.9345228183    2.6628499038
 C    3.5392968035   -1.4876224942    3.4093983449
 N    2.3178657090   -0.5748216309    1.4201216178
 H   -1.1037082627    1.6301108861    0.6056052028
 H   -1.2146192055    1.1764986290   -1.0995931510
 H   -1.5950379338   -0.0095231238    0.1551719588
 H    0.7008953420   -0.4096383298   -0.8430508424
 H    1.1851910240    1.2065988301   -0.3989744087
 H   -0.6520585466   -0.0491304611    2.7507236862
 H    3.3141093375   -2.4825450579    3.8073749482
 H    4.3926855638   -1.5583364320    2.7348501630
 H    3.8048147855   -0.8469785924    4.2567604567