14

 C   -0.0453918298    1.3974861805    0.0465137291
 N   -0.0224146228   -0.0545428603    0.0428775562
 C    0.5268302881   -0.6179935894   -0.9501990002
 N    1.1472275425   -0.1274012470   -2.1017854756
 N    1.6182162707   -1.0942697659   -2.9401158392
 C    1.3078575590   -2.2082931690   -2.3408155938
 N    0.6546944958   -1.9944642446   -1.1483106856
 C    1.6036144678   -3.4992937036   -2.8488905255
 N    1.8229510244   -4.5719458045   -3.2225604463
 H    0.9643390828    1.8402718891    0.0388385240
 H   -0.5976316806    1.8175932138   -0.8103313452
 H   -0.5437150821    1.7465753293    0.9538244462
 H    1.2693200135    0.8370843595   -2.3518670555
 H    0.3128635108   -2.6838252779   -0.5015546287