18

 C   -0.0606288466    1.5628068671    0.0548821889
 C    1.4851211348    1.4696385614    0.0292563311
 C    1.9921161557    1.3100854777    1.4634211201
 O    0.9913508299    1.3705899284    2.5066083025
 C    1.4799632135    0.0968291455    2.1103132722
 C    0.7102583783   -0.7759729143    1.1343330413
 C    1.7855589896   -1.0770499169    0.0462069008
 N    1.3398988006    0.1240235424   -0.7257148481
 C   -0.0013238569    0.0345778909   -0.0130558157
 H   -0.5280731695    2.0579120968    0.9011294975
 H   -0.4471638372    1.9471317283   -0.8915924002
 H    2.0563584543    2.2036565302   -0.5404246666
 H    2.9486873136    1.7450023244    1.7391010541
 H    2.0639942879   -0.4288040352    2.8656943257
 H    0.1638439714   -1.5950389882    1.6066854097
 H    2.8345853076   -1.1079696614    0.3583648949
 H    1.5636200820   -1.9621700583   -0.5574644633
 H   -0.7961844090   -0.5272804290   -0.5126421351