17

 C    0.6440738063    1.4227761053    0.0116445830
 O    0.7789380121   -0.0006178462   -0.0731194634
 C    0.0296184653   -0.5970479772   -1.0266135339
 O   -0.7189319133    0.0073895680   -1.7533622114
 C    0.2889338538   -2.0953663260   -1.0598892069
 C   -0.8456290518   -2.8260231730   -1.7809959789
 C    1.6583942752   -2.3590685796   -1.7182988969
 H    0.9363243868    1.8963740068   -0.9292308870
 H   -0.3893836917    1.7000725054    0.2347753840
 H    1.3060748928    1.7372989359    0.8187145120
 H    0.3483762333   -2.4304712565   -0.0179079443
 H   -1.8055555665   -2.6623066145   -1.2836811349
 H   -0.9423067425   -2.4670101893   -2.8089800723
 H   -0.6488689257   -3.9020993378   -1.8037598059
 H    2.4594264751   -1.8408286902   -1.1854124622
 H    1.8779255595   -3.4308287955   -1.7138660064
 H    1.6594081813   -2.0189974556   -2.7593431446