19

 C   -0.3106560540    1.5291649530   -0.0565583196
 C   -0.0236325871    0.0344414074   -0.0321517449
 C   -1.2774474528   -0.8054186353   -0.2500545196
 O   -1.8145484503   -0.5574479941   -1.5561277894
 C   -3.1157774669   -0.2288394121   -1.6690769344
 O   -3.6412380418   -0.0220691544   -2.7201908493
 C    1.1726410599   -0.4791341845   -0.8746456656
 O    1.7274984937   -1.1715312736    0.2639593964
 C    0.8033727655   -0.5220975980    1.1557537293
 H    0.6047098707    2.1046713726    0.1091526483
 H   -0.7293511409    1.8327250612   -1.0207400851
 H   -1.0273794441    1.8076523761    0.7250737951
 H   -1.0347830283   -1.8718385645   -0.1901708951
 H   -2.0325820014   -0.5784999032    0.5152182506
 H   -3.6293827774   -0.1725837852   -0.6889008301
 H    0.9426058385   -1.1559134250   -1.7040833068
 H    1.8379403807    0.3176985770   -1.2327613084
 H    1.2878386885    0.2560797196    1.7615466913
 H    0.3037848677   -1.2334605171    1.8259710473