16

 N    0.0652726309    1.3591163102    0.1582040808
 C   -0.0140979539    0.0024692940   -0.0089419340
 C   -1.1813604997   -0.6853008893   -0.0543371303
 C   -1.2161374977   -2.1373144200   -0.0637591230
 O   -2.2475134777   -2.7875084595   -0.0375016599
 C    0.1446849611   -2.8403800940   -0.0536387362
 N    1.1719947761   -2.0135252639   -0.6820919706
 C    1.3127466487   -0.7189081182   -0.0379849518
 H    0.8878824201    1.8336469262   -0.1783430912
 H   -0.7879441012    1.8903806134    0.0784455953
 H   -2.1386733612   -0.1721695373   -0.0397907382
 H    0.3688823175   -3.0955076293    1.0017007771
 H    0.0410353905   -3.7799044168   -0.6011684062
 H    2.0629683858   -2.4968139665   -0.6752889442
 H    2.0419756941   -0.1209373633   -0.6001025764
 H    1.6857009067   -0.7713767558    1.0056182689