18

 O    0.4730697425    0.8081980713   -0.6168299018
 C    0.1935361971   -0.2910217123    0.1937365671
 C   -0.0542942988   -0.0774532562    1.7244490145
 C   -1.2919099582   -1.0225432177    1.6351968858
 C   -1.2342677660   -0.8529705823    0.1160814779
 N   -2.1877237384   -0.0945650330   -0.6853385323
 C   -1.9467534856   -1.5351586729   -0.9973147179
 C   -1.2998846760   -1.8505933446   -2.2398003954
 C   -0.7501439912   -2.1480536278   -3.2665748820
 H   -0.3833056515    1.1047098713   -0.9604039955
 H    0.9496344631   -1.0654229534    0.0178129678
 H    0.7481445483   -0.3656640203    2.4056665800
 H   -0.3423752098    0.9580827032    1.9202756297
 H   -1.0719390427   -2.0465906919    1.9497076805
 H   -2.2102623692   -0.6950584525    2.1304837966
 H   -3.0782621739    0.0073674472   -0.2035179431
 H   -2.7345449894   -2.2268030362   -0.7033779327
 H   -0.2602677203   -2.3960351817   -4.1754626291