17

 N   -0.0426436621    1.4126084070   -0.1713635274
 C   -0.0249041466    0.0129724252   -0.0707081321
 C   -1.1057206745   -0.8494268825    0.0497917381
 N   -0.5565410536   -2.0939939508    0.2261870622
 N    0.7799589945   -2.0984018244    0.2055137110
 C    1.1140234971   -0.8210277178    0.0309157519
 C   -2.5640509072   -0.6212173409    0.0503997596
 C   -3.1966500201    0.1823831769   -1.0329550482
 N   -3.4200283448   -1.2684977584   -0.9757285551
 H    0.6689153054    1.7712049591   -0.7951384333
 H   -0.9466655926    1.7723562748   -0.4485552154
 H   -1.0512843190   -2.9599030626    0.3588411493
 H    2.1548930612   -0.5353194727   -0.0171830353
 H   -3.0486827963   -0.5987298000    1.0255259123
 H   -4.0685163322    0.7902245872   -0.8102182142
 H   -2.5538518949    0.5730654250   -1.8172562557
 H   -2.8190552241   -1.7177215050   -1.6638596976