13

 O    0.0353852884   -0.2921349977    0.3151584439
 C   -0.0133992496    0.9133096290    0.2494986255
 C    1.1465695026    1.7621232020    0.1133730491
 C    2.0978687857    2.4972670926    0.0014944901
 C    3.2603999543    3.3437383446   -0.1326911989
 C    3.9225670090    3.4379761978   -1.5316125380
 C    3.5275364744    4.9111303349   -1.4346747837
 O    3.6337310396    5.8965753499   -2.0840022798
 O    2.9314856101    4.7783215241   -0.1998359633
 H   -0.9735274266    1.4646391180    0.2899885354
 H    3.9631701875    3.1717791972    0.6869868771
 H    4.9961558140    3.2507489245   -1.5627785834
 H    3.4212518106    2.8878995531   -2.3280754940