19

 O   -0.0082416466    0.0022408350    0.0089830400
 C   -0.0368660519    1.2032490488   -0.0015743500
 C   -1.2878235504    2.0944001010   -0.0657843001
 C   -0.7310520380    3.5290776779    0.0639614279
 C    0.6398004117    3.4065672489   -0.6468886770
 C    1.1908397434    2.1546217320    0.0392689206
 O    1.5449055473    2.4530501320    1.3904967365
 C    0.4438697081    2.8516796418    2.2055392187
 C   -0.4547507121    3.9032061982    1.5347192913
 H   -1.7707067958    1.9399720749   -1.0382450726
 H   -2.0115635856    1.8048042776    0.7020711772
 H   -1.3857463681    4.2712751146   -0.3985435536
 H    0.5182777861    3.2394108481   -1.7236977195
 H    1.2876268628    4.2739041296   -0.4975993199
 H    2.0720987690    1.7017096327   -0.4159668381
 H   -0.1536568072    1.9683618535    2.4809283393
 H    0.8845500468    3.2403656426    3.1273405446
 H    0.0331369403    4.8840464193    1.5653953431
 H   -1.3884282498    3.9855957414    2.1035736817