22

 C   -0.6736764922    1.1752559719   -1.2100599671
 C   -0.0288160988    0.0308946680   -0.4030517308
 C   -1.0880383453   -0.9757922567    0.0881558284
 C    1.0202976681   -0.6373599244   -1.1754435572
 C    1.8912228569   -1.1852255762   -1.8053621880
 C    2.9281713341   -1.8605771823   -2.5937546046
 N    2.5073577410   -2.5282478452   -3.8341338453
 C    1.2027348134   -3.1789652395   -3.8671227435
 C    1.4450824192   -1.9201481686   -4.6268169200
 H    0.0773210162    1.9008459011   -1.5330154593
 H   -1.1726577592    0.7833766877   -2.1019710200
 H   -1.4198616789    1.6959762844   -0.6013811500
 H    0.4469353228    0.4741579924    0.4832562175
 H   -1.6008748529   -1.4394294815   -0.7604295900
 H   -0.6298831399   -1.7704190388    0.6826645259
 H   -1.8368441250   -0.4688034082    0.7051493248
 H    3.7049622601   -1.1362576761   -2.8687950501
 H    3.4194710989   -2.6202530733   -1.9731014853
 H    1.1756281487   -4.1390396506   -4.3747618610
 H    0.5676299571   -3.0983595821   -2.9877625393
 H    0.9672736556   -1.0226292762   -4.2404299895
 H    1.5990328103   -1.9397139459   -5.7020325858