16

 N    0.1419226070    1.3414774627    0.5385094826
 C   -0.0225146065    0.0360480625    0.0760624217
 C   -1.1991196547   -0.7077178351    0.0072344620
 N   -0.7856026576   -1.8955243225   -0.5593211559
 C   -0.8646651836   -3.3688682716   -0.6676788548
 C    0.7077946705   -3.3385837594   -0.9144794654
 O    1.2063778973   -3.8321159667   -2.1247927802
 C    0.5548265679   -1.8373907848   -0.7013761965
 N    1.0810645083   -0.6859377891   -0.3361034856
 H    1.0257097415    1.7256033352    0.2319103047
 H   -0.6202632622    1.9620532500    0.3041456293
 H   -2.2241263898   -0.4551908791    0.2157319536
 H   -1.1728458851   -3.8625549745    0.2584362114
 H   -1.4679867138   -3.7235211067   -1.5076219119
 H    1.2579764016   -3.8543525239   -0.1229936776
 H    0.9251320891   -3.2367512871   -2.8285727275