17

 O   -0.0548748544    1.3456627332   -0.4137631426
 C   -0.1014580200    0.0395502857    0.1375230137
 C   -1.4627193480   -0.5619496591    0.0501668951
 O   -2.5031337385    0.0165223099    0.8633205844
 C   -3.2923198382   -1.1538617775    0.5197037192
 C   -2.0049600236   -1.9478216549    0.0897723023
 C   -2.1285110856   -1.1417793226   -1.2073677932
 C   -3.6191724673   -0.9346685272   -0.9895337646
 O   -4.3413104785   -1.9983935250   -1.5710497376
 H   -0.7336760997    1.8630555446    0.0334453625
 H    0.6051986994   -0.5713801347   -0.4337207320
 H    0.2249784144    0.0367674866    1.1889461396
 H   -4.0466762001   -1.4220663062    1.2578597842
 H   -1.5855101159   -2.9159225147    0.3224560796
 H   -1.6003872247   -1.2762731906   -2.1421323995
 H   -4.0495882352    0.0442315298   -1.2428143811
 H   -5.2674968541   -1.8915003271   -1.3304690599