21

 C   -0.1925044812    1.4146401955   -0.0982866141
 O    0.0123059224    0.0189090133   -0.0193333641
 C    0.7317956782   -0.5224154193   -1.0953248740
 C   -0.0216317742   -0.6497891030   -2.4434690160
 O    0.1842620687   -2.0770346849   -2.4636260229
 C    0.7580567445   -2.0735028850   -1.1311819499
 C    2.2157702350   -2.5110164182   -1.1304597309
 C    2.9527782664   -1.3079393335   -1.7541685996
 C    2.2055425880   -0.0796049375   -1.1914599578
 H    0.7516172408    1.9761973557   -0.0616746845
 H   -0.7295788255    1.6986297901   -1.0158579573
 H   -0.8016115875    1.6970323315    0.7634178978
 H   -1.0857540623   -0.3891372839   -2.3738797993
 H    0.4215622346   -0.1589094241   -3.3187845891
 H    0.1129190384   -2.5853152334   -0.4104852585
 H    2.5409432098   -2.6705413397   -0.0947113923
 H    2.3636772516   -3.4459695159   -1.6779418292
 H    4.0211546525   -1.2902590620   -1.5242488640
 H    2.8537382192   -1.3435605144   -2.8439273974
 H    2.3520820860    0.8196960083   -1.7971554383
 H    2.5519798946    0.1396391305   -0.1744263687