21

 C   -0.0420615243    1.4830914882    0.1141278176
 C    0.0122013329   -0.0024038080    0.0083131882
 C    0.0097376474   -0.8291278629   -1.0459207399
 C   -0.0563670217   -0.6054434066   -2.5165369604
 C    0.0771388493   -2.2292606887   -0.3820351115
 O    0.0179946273   -3.3674025605   -1.1835933862
 C   -0.9630059717   -2.0585730098    0.7601919650
 C    0.0791866451   -0.9752322875    1.2042020116
 C    1.1763784478   -1.9769349266    0.7114001883
 H    0.8388613750    1.8820178676    0.6343565514
 H   -0.0914348051    1.9578214892   -0.8702055939
 H   -0.9169809204    1.8129733885    0.6897750113
 H   -0.1590293621    0.4557741579   -2.7596837070
 H    0.8448069239   -0.9713570999   -3.0292230269
 H   -0.9037396679   -1.1415628388   -2.9617198438
 H    0.7427631694   -3.3328693678   -1.8170561744
 H   -1.9627445914   -1.7170517424    0.4830165153
 H   -1.0091483593   -2.9233130918    1.4296857022
 H    0.0873653581   -0.5610176839    2.2111217851
 H    1.3212314780   -2.8337032929    1.3771970552
 H    2.1325139498   -1.5573490633    0.3876272129