15

 O   -0.2474545856    1.3953733047   -0.0119433763
 N   -0.0395027006    0.0123027450   -0.0789581973
 C   -1.1413646324   -0.6096288704   -0.0932784748
 C   -2.6118085485   -0.3095531636    0.1061314870
 N   -2.8812122127   -1.8016183594    0.2470856603
 C   -2.4786522658   -2.4845346184   -1.0030463164
 C   -2.5770139457   -1.9609955519   -2.3993404797
 O   -2.5250074602   -0.8054445014   -2.7433840173
 C   -1.4143401295   -2.0666871062   -0.0236380431
 H    0.6524036736    1.7395755011   -0.0074602547
 H   -2.8156104922    0.1736147675    1.0649384019
 H   -3.1483539821    0.1889406612   -0.6976380547
 H   -2.7217866047   -3.5434046375   -0.9404448933
 H   -2.7016451326   -2.7729940945   -3.1501666085
 H   -0.8327359412   -2.8123585762    0.5074106569