20

 C    0.4745447918    1.5168852317   -0.2349008622
 C    0.0524249507    0.0552455892   -0.1019477825
 C   -1.2288935904   -0.2303214944   -0.8796995561
 C    1.1996599679   -0.9664671044   -0.3213769224
 O    1.1731900246   -1.3821673111    1.0643610886
 C    0.0562528633   -0.5141305083    1.3553854219
 C    0.2999602220    0.4681098202    2.4932057980
 N    1.5419357948    0.3909208597    3.0327374007
 O   -0.5675282824    1.2492668452    2.8392983717
 H    1.4109996486    1.7138438536    0.2959268897
 H    0.6228841597    1.7752624340   -1.2891084676
 H   -0.2892532331    2.1803397892    0.1799762676
 H   -1.0971813160   -0.0041790105   -1.9438441992
 H   -1.5262258193   -1.2804949640   -0.7925901843
 H   -2.0528248722    0.3863304245   -0.5056322307
 H    0.9629489900   -1.7999432187   -0.9936863242
 H    2.1723512372   -0.5439101748   -0.6000790463
 H   -0.8474885768   -1.0842802039    1.6031620605
 H    2.1674962867   -0.3318317201    2.7158332084
 H    1.7703959929    0.9608185231    3.8298066785