20

 C   -0.1775178715    1.3869597744   -0.4943182521
 C   -0.0595198596   -0.0222728026   -0.1468075007
 C    0.0503874609   -1.1876126438    0.1347874436
 C    0.1508548700   -2.6031446869    0.4807769275
 C   -1.2124116112   -3.2809102051    0.5214776639
 N   -1.7148017511   -3.8639651628   -0.7297152682
 C   -1.4335096585   -4.7490504385    0.4208529490
 C   -0.3574024503   -5.7807421076    0.1669624694
 O   -0.7929116073   -6.7337970721   -0.7874419409
 H    0.7996572920    1.8825210916   -0.4814544379
 H   -0.6000866013    1.5166969336   -1.4968738235
 H   -0.8263841240    1.9199951912    0.2096003116
 H    0.7895110449   -3.1163628722   -0.2452761195
 H    0.6346964468   -2.7123080835    1.4610572835
 H   -1.9334596550   -2.7431306289    1.1350112405
 H   -2.7123130838   -3.7014942573   -0.8298452886
 H   -2.2958350262   -5.1395213805    0.9595417379
 H    0.5743051016   -5.2954643576   -0.1559529134
 H   -0.1405083278   -6.3372480657    1.0849628598
 H   -1.0606696985   -6.2219523359   -1.5603850222