25

 C   -0.1789613335    1.5526032374    0.7315307692
 C   -0.1384963490    0.0243512660    0.8534286164
 C   -1.4207040819   -0.6268795540    0.3732091704
 C   -1.6450486647   -0.9136348977   -1.0935672321
 C   -1.5087904616   -2.0570078158   -0.1131547880
 C   -0.3229442144   -3.0048695915   -0.1546872801
 C   -0.0815138190   -3.6724329915    1.2065690878
 C   -0.5300866068   -4.0504575455   -1.2534692791
 O    0.6469852133   -4.8418460268   -1.3498842642
 H    0.7503001017    2.0052084086    1.0916970513
 H   -0.3239126891    1.8595480905   -0.3095419326
 H   -1.0036857926    1.9736906307    1.3173063120
 H    0.7148287065   -0.3603954178    0.2838760643
 H    0.0446038801   -0.2511088137    1.9004819367
 H   -2.2999985377   -0.2819632809    0.9143006014
 H   -2.6134120207   -0.7059944270   -1.5359809418
 H   -0.8073411969   -0.7360189899   -1.7628646817
 H   -2.4406139207   -2.5596786758    0.1430159862
 H    0.5787572590   -2.4444934906   -0.4311529561
 H   -0.9762155568   -4.2155814240    1.5353224820
 H    0.7424050180   -4.3868375991    1.1437703671
 H    0.1555251418   -2.9290576994    1.9732387330
 H   -1.4070781162   -4.6727718341   -1.0062485282
 H   -0.7449984522   -3.5423287774   -2.2059671600
 H    0.4951131934   -5.5284906207   -2.0051514839