14

 N    0.0537495702   -1.1262038890    0.1173898742
 C   -0.0123118785    0.0300506227    0.0734525478
 C   -0.0380437218    1.4461262610    0.0097184315
 C   -1.1264284448    2.2307111313    0.0163785123
 C   -0.7240845295    3.6571009969    0.0237730601
 C    0.0757646518    4.0754463604    1.2161769519
 N    0.7599985318    3.6997462475   -0.0196080474
 C    1.2259426449    2.2997934637   -0.0649077539
 H   -2.1527959217    1.8880566982    0.0301880543
 H   -1.2767836747    4.3862391119   -0.5610003386
 H    0.1546338285    5.1291756181    1.4679715127
 H    0.0979263917    3.3908802121    2.0615715511
 H    1.9222164241    2.0952860293    0.7558317791
 H    1.7648303080    2.1229322759   -1.0029776849