24

 C    0.0279261580    1.5408685819    0.7368394445
 C    0.0618377737    0.0876853736    0.3100697648
 C    0.2807092220   -0.3511115659   -1.1048357058
 C    0.4823454886    0.6108464195   -2.2608589597
 C    1.2100713746   -0.0432454372   -3.4433606818
 C    1.3583940604    0.8915034204   -4.6360056418
 O    2.0358118748    0.1860327493   -5.6648781269
 N    1.2877388600   -0.6201261379   -0.0711499796
 C    2.5678656758    0.0689816995   -0.0709197702
 H    0.6228925877    2.1982145558    0.1007679392
 H   -1.0038959759    1.9082412403    0.7167144197
 H    0.3929204756    1.6502904454    1.7643158991
 H   -0.5990069972   -0.5345622384    0.9153501276
 H   -0.2347626342   -1.2608174626   -1.4191182438
 H   -0.5068014605    0.9583604227   -2.5909509696
 H    1.0259987501    1.5071624434   -1.9468966259
 H    2.2071193234   -0.3790224686   -3.1361230258
 H    0.6675164418   -0.9393160808   -3.7682472849
 H    0.3626149304    1.2271431299   -4.9711335336
 H    1.9184788157    1.7928576783   -4.3353045445
 H    2.1314266442    0.7733891430   -6.4200693717
 H    2.5576168023    1.1141697545   -0.4121495413
 H    2.9703433920    0.0579389218    0.9475930109
 H    3.2656326566   -0.4840370676   -0.7084319588