17

 O    0.3063122478    0.0398157728    0.0494222183
 C    0.1064264298    1.2182033999    0.0747625705
 C   -1.2200983171    1.9388458038    0.2857299743
 C   -0.8727985517    3.4279452488    0.3821279645
 C   -0.8875397656    4.0371565595    1.8045835892
 C    0.5836098936    3.9594013839    2.2323599657
 O    1.3125391357    4.1547288626    1.0171060764
 C    0.6399005223    3.4919298892    0.0004447811
 O    1.0968414812    2.1321343739   -0.1114913820
 H   -1.8662714036    1.7103015958   -0.5667818632
 H   -1.7129205339    1.5342156544    1.1728410107
 H   -1.4714729665    4.0249662661   -0.3059175344
 H   -1.2068777756    5.0817987278    1.7635053251
 H   -1.5573738157    3.5056938360    2.4845355274
 H    0.8898931870    4.7422595365    2.9285132039
 H    0.8297382764    2.9836632314    2.6738316437
 H    0.8846292459    3.9869356277   -0.9410070112