18

 C   -0.0710766217    1.5520263349   -0.0103253064
 C    0.0441170397    0.0442687943    0.0094829027
 C    1.3838310827   -0.6357937669   -0.1675546600
 O    2.5535729928    0.1284587456   -0.2224771852
 C    0.7077446650   -0.6623115118    1.1679144737
 C    1.2401925687   -0.1208773483    2.5036420414
 N    0.6865935989   -1.3447054590    3.1080942905
 C    0.2353123882   -1.8926468721    1.9253441246
 O   -0.3019507790   -2.9319212160    1.6457636656
 H    0.8607524491    2.0206852774    0.3160659512
 H   -0.2919977691    1.9112060937   -1.0216008142
 H   -0.8769139695    1.8971699700    0.6454247295
 H   -0.8020831333   -0.4965193120   -0.4085528586
 H    1.4125545968   -1.5738694153   -0.7216456576
 H    2.6430869278    0.4758718087   -1.1165697696
 H    2.3294130764   -0.0379614727    2.5582372044
 H    0.7757490330    0.8014247826    2.8662101515
 H    0.8013215235   -1.7469069631    4.0255527163