19

 C    0.1647649767    1.5997277584   -0.0071754083
 C   -0.0216773865    0.0863007192    0.1381494590
 N    0.7016085131   -0.4837837565    1.2581184040
 C    2.1464808876   -0.6677319370    1.2554248201
 C    2.4444874005   -1.1913546858    2.6522988859
 N    2.0572355213   -0.2316668466    3.6982399483
 C    1.1506151054   -1.3607316656    3.3519306328
 C    0.0669781265   -0.9248901111    2.3942419110
 O   -1.1333397087   -0.9651318603    2.5735867630
 H    1.2120721604    1.8653605537   -0.1829692949
 H   -0.4192945255    1.9706973414   -0.8552355179
 H   -0.1711309498    2.1164437006    0.8960652460
 H   -1.0745769734   -0.1513816495    0.3113534352
 H    0.2901863469   -0.4235376813   -0.7836340130
 H    2.4465189042   -1.3942485789    0.4863219054
 H    2.6741222604    0.2738013731    1.0609826120
 H    3.2868349375   -1.8548199176    2.8080619951
 H    2.5428360453   -0.4696586282    4.5613328453
 H    0.9323605481   -2.1312262578    4.0800967811