12

 O    0.0423338434   -0.0308965296   -0.0721921922
 C    0.0315513286    1.1696190254   -0.0049500769
 N   -1.1029188482    1.9725147340    0.1278999748
 C   -0.8744206903    3.3454827251    0.0180194624
 O   -1.7192550607    4.1999451726   -0.0269716836
 C    0.6289823413    3.4991279657   -0.0588210833
 N    1.2722882968    2.9504850402    1.1597565892
 C    1.1991487676    2.1296977840   -0.0734163340
 H   -2.0279028289    1.5860887157    0.2495986388
 H    1.0513798436    4.3498452407   -0.5770672537
 H    2.2114782706    3.3407629639    1.2285961826
 H    2.0964942361    1.8396520024   -0.6038530741