21

 C    0.1038780635    1.4765711564    0.1188985294
 C    0.0392097711   -0.0167630710    0.0450727348
 C   -0.0156252433   -0.7796460665   -1.0563307919
 C   -0.0264943147   -2.2451233234   -0.7614624540
 C   -0.8446859870   -3.1774900790   -1.6235003310
 C    1.2265388447   -2.7310205343   -0.0526614378
 O    2.4292157262   -2.0258046139   -0.0452203359
 C    0.0360488637   -2.3122652870    0.7752570146
 C    0.0330045558   -0.8782508192    1.2981057066
 H    1.0163245361    1.8147955307    0.6259276694
 H    0.0794955458    1.9324730530   -0.8746160088
 H   -0.7371640260    1.8769738372    0.6995785695
 H   -0.0321854668   -0.3957801861   -2.0721240552
 H   -0.4894676484   -3.1753942270   -2.6609597176
 H   -0.7839794069   -4.2073948637   -1.2580460796
 H   -1.9022729547   -2.8888359338   -1.6323972077
 H    1.4211739724   -3.7984602182   -0.1099898028
 H    2.2413604345   -1.1399554938   -0.3821834401
 H   -0.5077108527   -3.0751637567    1.3223180371
 H    0.9119050617   -0.6733378590    1.9251967631
 H   -0.8477665250   -0.6655255347    1.9180561178