20

 C    0.0856972619    1.5359150936    0.0520963815
 C   -0.0056929802    0.0380571279   -0.0554357131
 C    0.0304010174   -0.6011019035   -1.2272215982
 C   -0.0427694424   -2.0980295770   -1.3775177416
 C    0.3758751609   -2.8150845731   -0.0826488624
 C   -0.2870528205   -2.1889630660    1.1120962436
 C   -0.1780229689   -0.6927289661    1.2590994817
 N   -0.8982907662   -2.9674230571    1.9193229628
 O   -1.4534385017   -2.2712104233    3.0106921258
 H    0.9384107618    1.8366171622    0.6750582915
 H    0.1992210773    2.0048744569   -0.9287485608
 H   -0.8089290516    1.9553436919    0.5304877499
 H    0.1156414100   -0.0186534160   -2.1422760949
 H   -1.0621238376   -2.3999644610   -1.6589327021
 H    0.6019021516   -2.4239908716   -2.2022060595
 H    0.1451492777   -3.8822905985   -0.1126051812
 H    1.4641330655   -2.7111008241    0.0310967384
 H    0.6607663769   -0.4534779495    1.9324332472
 H   -1.0659824565   -0.3209896198    1.7833957947
 H   -1.9033691054   -2.9764574959    3.4869506867