11

 N    0.0397216354    1.3803812841    0.1274047234
 C   -0.0576490994    0.0398480084    0.0433172023
 C   -1.1110120500   -0.8500204427    0.0245526374
 N   -2.4609993792   -1.0098653236    0.0312794282
 N   -2.8184380578   -2.1708717847   -0.0022116874
 O   -1.4146555984   -3.0828160875   -0.0426994769
 C   -0.5134825265   -2.1416181146   -0.0214527555
 N    0.7993615177   -2.1181493513   -0.0331407966
 O    1.0662241244   -0.6677903058    0.0077808709
 H    0.9371003818    1.7972752501   -0.0628617712
 H   -0.7755081580    1.9356617678   -0.0707129545