18

 C   -0.2750482579    1.6591533810   -0.0943550109
 C    0.0139737416    0.1685091117    0.0107229608
 C    1.2233355956   -0.3296141840   -0.8773217024
 C    2.0197418491   -0.5071428360    0.3942249997
 C    0.8325572023   -0.2499356184    1.2938916141
 N    3.2553359634   -0.7244549143    0.5569526711
 O    3.5794593595   -0.7826382047    1.9236115901
 C   -1.2248521702   -0.6714959065   -0.1815131311
 O   -2.3296438676   -0.2439142844   -0.3953272361
 H    0.6404936360    2.2417882674    0.0473659359
 H   -0.6952932967    1.9053102104   -1.0734542978
 H   -1.0022641366    1.9670215049    0.6621442467
 H    1.0258411131   -1.2715636664   -1.4019939791
 H    1.5992603740    0.3976448043   -1.6010899058
 H    0.9554010532    0.5309482003    2.0484407984
 H    0.4630612823   -1.1536973242    1.7921630373
 H    4.5302756854   -0.9356124866    1.9011593543
 H   -1.0408218464   -1.7705431546   -0.1080412052