18

 C    0.0826482574    1.4665649116    0.2732559146
 C   -0.0315280312   -0.0149508718   -0.1269916342
 C   -1.4304606939   -0.5415914993   -0.1025368220
 C   -2.1673022689   -0.9982838219   -1.1211426203
 N   -3.4596226214   -1.4087514088   -0.7102537429
 C   -3.5615469526   -1.3348719189    0.6581207374
 O   -4.4279626051   -1.7912603078    1.3703763654
 C   -2.2986197055   -0.5880467134    1.1362338522
 O   -1.7050792109   -1.2403547103    2.2372033633
 H    1.1258390073    1.7951267951    0.2420460494
 H   -0.4961496262    2.1038078905   -0.4029203868
 H   -0.2864290803    1.6300338457    1.2905209455
 H    0.3896080809   -0.1615721319   -1.1285361665
 H    0.5805407297   -0.6125970688    0.5610818036
 H   -1.9059942014   -1.0663439374   -2.1683092932
 H   -4.0779361836   -1.9811696960   -1.2631682731
 H   -2.6104061527    0.4370004413    1.4109462770
 H   -2.4373660315   -1.5957476080    2.7598877105