13

 O    0.5712507964    1.1626449402    0.3320347149
 C    0.1870456079   -0.1081482764    0.1136724300
 N   -0.2763613033   -0.5051383599   -1.0605180173
 N   -0.5396330257   -1.8300662948   -0.8747525429
 C   -0.2623718352   -2.2266012557    0.3834679004
 O   -0.5123287343   -3.5163941372    0.7409546100
 C    0.4654475584   -4.1868616466    1.4359329741
 O    0.2856355476   -5.2823957257    1.8562682238
 C    0.2220488494   -1.1410993778    1.0813699321
 H    0.4299595208    1.6488393343   -0.4906623614
 H   -0.9353852528   -2.3800569400   -1.6173341851
 H    1.3860489683   -3.5877400371    1.5320348609
 H    0.5166452626   -1.0844278633    2.1145053307