23

 C    0.1099307474    1.3867821657    0.3960005863
 C    0.2485634459   -0.1005344562    0.0278456683
 C   -1.1225431465   -0.7594366841   -0.0288673216
 C   -1.2857299549   -2.2176203532    0.2095927460
 N   -1.8547632481   -1.2502508955    1.1423024023
 C   -1.2722779567   -1.1748317219    2.4729108278
 N    0.9300894485   -0.4266952220   -1.2364743254
 C    0.8234080943    0.4469182511   -2.3970498973
 C    2.1132749701    0.3029473522   -1.6624760026
 H    1.0729645590    1.9053954832    0.4079310174
 H   -0.5593283351    1.9145396518   -0.2909852077
 H   -0.3201927102    1.4749611678    1.3976578943
 H    0.8499645472   -0.5889762856    0.8025963081
 H   -1.7800713138   -0.2897561627   -0.7617623696
 H   -1.9942670343   -2.8063747523   -0.3673581605
 H   -0.3927105654   -2.7602458272    0.5197832296
 H   -0.1911610004   -1.3813569901    2.5206151806
 H   -1.4531006989   -0.1823602023    2.8992112727
 H   -1.7758307539   -1.9082826463    3.1112528034
 H    0.6656648733   -0.0545351021   -3.3482978719
 H    0.3115948064    1.4018022812   -2.3012511379
 H    2.4492612942    1.1627817282   -1.0866080581
 H    2.9168069418   -0.3089002097   -2.0646108241