19

 C   -0.0899384654    1.5094747924    0.1183531769
 N    0.4385057499    0.1647663920   -0.0298078290
 C    0.7828594743   -0.5312617396    1.1990920303
 C   -0.3299483399   -0.6349176375    2.2716582614
 C    1.1950675499   -1.9464036073    0.8183422486
 O    0.7304867746   -2.5703860628   -0.1035327332
 O    2.1075492346   -2.4409997785    1.6741763863
 C    2.4998554364   -3.7996963876    1.4356244346
 H    0.6446426271    2.1368373678    0.6377427080
 H   -0.2441035411    1.9415241261   -0.8749776673
 H   -1.0420006496    1.5889619859    0.6700105937
 H   -0.1708661582   -0.4257459214   -0.5849015126
 H    1.6490611859   -0.0350903742    1.6532542246
 H   -0.6371568766    0.3589815538    2.6060899090
 H   -1.2068064802   -1.1505940906    1.8661305300
 H    0.0275901524   -1.1893529124    3.1443935586
 H    1.6371756718   -4.4675494837    1.5013894394
 H    2.9471715504   -3.9011875051    0.4438703654
 H    3.2286387236   -4.0383796072    2.2101215451