18

 C   -0.1791304196    1.4873782765    0.3534352604
 C   -0.1075951168    0.0105253916    0.1313472891
 C   -1.1503512966   -0.9046469724   -0.5179253691
 C   -0.2689764468   -2.0840657551   -0.0275075721
 C    0.3744000766   -1.0843759223    1.0081834554
 N    1.2691610165   -0.5897975467   -0.0879876913
 C    1.0117209324   -1.8705055963   -0.8407652160
 C    2.1577938972   -2.8133555120   -0.5539333750
 O    2.0571522704   -3.8361255047    0.0743712939
 H    0.6754105026    1.8300340204    0.9427822009
 H   -0.1691099455    2.0270184688   -0.6000924376
 H   -1.0986561544    1.7557585372    0.8844762221
 H   -2.0964566416   -0.8472617703    0.0271065271
 H   -1.3386646676   -0.8207311896   -1.5947324311
 H   -0.6737554676   -3.0733303920    0.1660704350
 H    0.6631117466   -1.1406839737    2.0493421257
 H    0.9218753572   -1.7396467331   -1.9303055334
 H    3.1350084570   -2.4759548464   -0.9652714140