20

 O   -0.0553324817    1.2144426812   -0.9442085175
 C    0.0123684397    0.2688540037    0.1096574900
 C   -1.3082626402   -0.4485527008    0.2691208887
 N   -1.6478181067   -1.3749364054   -0.8332360755
 C   -1.4772439403   -1.9039273454    0.5313903095
 C   -0.3548857187   -2.8959171940    0.7457695216
 C   -0.7424071605   -4.2965201356    0.2328700303
 C    0.4079743588   -5.2702319722    0.3278527108
 O    0.3807657671   -6.3202854265    0.9159909961
 H   -0.3291063221    0.7191172211   -1.7254196237
 H    0.8259345928   -0.4505696034   -0.0562170725
 H    0.2479870557    0.8338517693    1.0177384390
 H   -2.1107991972    0.1956787887    0.6254812426
 H   -2.6323432004   -1.3029058212   -1.0725344077
 H   -2.3916745735   -2.1680216325    1.0634106357
 H    0.5452484126   -2.5598959976    0.2227641616
 H   -0.1106484212   -2.9444941540    1.8140661595
 H   -1.5959061084   -4.7086798278    0.7795955330
 H   -1.0191504153   -4.2039343832   -0.8269806966
 H    1.3317979992   -4.9360272942   -0.2023166148