12

 O   -0.0550528663   -0.0832304754    0.0039109207
 C    0.0056193594    1.1202940914    0.0093977518
 N   -1.0551309606    2.0136575854    0.0284137383
 C   -0.7227322234    3.4415061957    0.0312289284
 C    0.7664003194    3.3369121748    0.0101713398
 C    1.1814639202    2.0485407169   -0.0021640401
 O    2.4878492392    1.9778630222   -0.0205718738
 N    2.9150363533    3.4237000557   -0.0193142609
 N    1.8791434209    4.1252591182   -0.0010461142
 H   -2.0017422843    1.6704737850    0.0395994035
 H   -1.1317710061    3.9536161559   -0.8483956488
 H   -1.1073152016    3.9444102442    0.9270482553