16

 C   -0.1375689957    1.4024241534    0.0129939765
 N    0.2031878445   -0.0033380022    0.1114261341
 C    0.6931211653   -0.6464964514   -1.0114040424
 C    1.2883480466   -0.1167764668   -2.1408634277
 N    1.6386179460   -1.1883951887   -2.9147213766
 N    1.3109219662   -2.3666645147   -2.3902799995
 C    0.7277320470   -2.0595898560   -1.2203148496
 C    0.2091622200   -3.0315846847   -0.3343461439
 C   -0.2637763551   -3.7978154090    0.4666596664
 H    0.7678824671    1.9951756828   -0.1621625007
 H   -0.8500181144    1.6265878298   -0.7978352886
 H   -0.5694916937    1.7348571468    0.9595302634
 H   -0.4668611054   -0.5646471887    0.6175381652
 H    1.4901878863    0.8963400463   -2.4443678828
 H    2.0957065085   -1.1686057521   -3.8100061831
 H   -0.6637884232   -4.4951909948    1.1600419694