16

 C    0.0429923907    1.5187066347   -0.0358893782
 C    0.0122165793    0.0654379876    0.0264078863
 C   -0.0129802341   -1.1375187210    0.0824754154
 C   -0.0368857150   -2.5874062156    0.1376135388
 O    0.1164567997   -3.1466045235    1.4865714311
 C   -1.0666528176   -3.9295436541    1.3068216212
 C   -2.2668418060   -3.0537621045    1.1378698332
 C   -1.3657384109   -3.3356231951   -0.0457515663
 H    0.9558601136    1.8790329114   -0.5225170973
 H   -0.8122270228    1.9102177815   -0.5976692998
 H    0.0068800706    1.9546357247    0.9685013524
 H    0.7473207618   -3.0100315218   -0.5024746982
 H   -1.0617766734   -4.9464107053    1.6805113730
 H   -3.2224292012   -3.5679193846    1.1010667422
 H   -2.2826638227   -2.0701755824    1.5979171519
 H   -1.7042338120   -3.7822176621   -0.9700928558