14

 C   -0.0347230568    1.4651415241    0.0324866694
 N   -0.0056614936    0.0162556976    0.0161323813
 C   -1.1244277241   -0.7850628489    0.0569962524
 O   -2.2713689063   -0.4146716792    0.1173416982
 C   -0.6112605238   -2.2293738935    0.0059353428
 N    0.8239857322   -2.0474873419    0.0196585348
 C    1.1923238509   -0.7285561539   -0.0539793904
 O    2.3034028162   -0.2665109246   -0.1503649130
 H    0.9919800700    1.8122090805   -0.0872919739
 H   -0.6568954627    1.8397305982   -0.7841302227
 H   -0.4441685463    1.8319901859    0.9778148675
 H   -0.9840897450   -2.7886807657    0.8706975573
 H   -0.9809540782   -2.7174226585   -0.9040112226
 H    1.4942569374   -2.7635192400   -0.2007621511