13

 C    0.0086205689    1.3952317557    0.0588240505
 N   -0.0210158761   -0.0542486707   -0.0134018825
 C   -0.0583113543   -0.8012228128   -1.1712978222
 C    0.0067754675   -2.1104847868   -0.7385502408
 O    0.0121496571   -3.3730453897   -1.1180351836
 N    0.1031215992   -4.1291109003    0.2600449421
 N    0.1318266122   -3.2916938794    1.1614525893
 C    0.0799466985   -2.0120375394    0.6593997363
 N    0.0662898363   -0.7630851596    1.1228888454
 H    1.0339244945    1.7687728966   -0.0256013003
 H   -0.5958408520    1.8109279669   -0.7496480396
 H   -0.4057791762    1.6940359021    1.0210902921
 H   -0.1278849455   -0.3362046827   -2.1390998969