14

 N    0.0036320542    1.3167364676   -0.0062126981
 C    0.0229936095   -0.0504149245    0.0763032147
 O    1.0680251152   -0.6723615680    0.2238210041
 C   -1.2764591815   -0.7364335303    0.0228537153
 C   -2.5588329261   -0.2843387102    0.1086763433
 O   -3.4257904709   -1.2864287624    0.0688650567
 N   -2.7206898719   -2.5077460768   -0.0445142979
 C   -1.4483225078   -2.1656649011   -0.0702275896
 N   -0.4358117422   -3.0648360130   -0.2212797573
 H    0.9036420265    1.7636942997   -0.0898839908
 H   -0.7802117857    1.7914873544   -0.4214546358
 H   -2.9853549800    0.7019087422    0.2225303966
 H   -0.6519279945   -4.0248607369   -0.0051481972
 H    0.4678516750   -2.7133580206    0.0663269161