21

 O   -0.1749817012    1.4478328798    0.0836173438
 C   -0.0297939171    0.0410100545    0.2107707932
 C   -1.3565350113   -0.6021774159   -0.1854734864
 C   -1.3259562665   -2.1013232621   -0.1136472901
 C   -0.5776462686   -3.0691717242   -1.0364804127
 C   -1.4645244691   -4.1843075744   -0.4219743948
 C   -0.9944373519   -4.2660232876    1.0568052135
 C   -1.5784639825   -2.8633078056    1.2055376029
 C   -2.4893653615   -3.0574397277    0.0138542535
 H    0.6609153203    1.8591979442    0.3210740172
 H    0.7749806800   -0.3370372511   -0.4402214643
 H    0.2253586050   -0.2454162356    1.2433694004
 H   -2.1422859366   -0.2092805528    0.4715217059
 H   -1.6080459320   -0.2747095865   -1.2022587644
 H   -0.8308555246   -2.8786674473   -2.0842510537
 H    0.5098332169   -3.1779946840   -0.9366317875
 H   -1.6984331684   -5.0854977923   -0.9849570683
 H   -1.5737049458   -4.9986398651    1.6262750669
 H    0.0760076085   -4.4223878139    1.2388275826
 H   -1.7947097194   -2.3194521744    2.1171043584
 H   -3.5535998242   -2.9198421279   -0.1146393763