17

 O   -0.0448717833    1.3682940600   -0.0626366405
 C   -0.0511962944   -0.0117052133   -0.0305396087
 C   -0.4392163528   -0.7105708052    1.2207257313
 O   -1.0046801144    0.1434351454    2.1795283063
 C   -2.4315669426    0.1951798059    1.9538191708
 C   -2.6218529015    0.0367802848    0.4359235220
 C   -1.4030682267   -0.7787439623    0.0260536653
 C   -1.5507610285   -2.0054550665   -0.7738649105
 O   -2.5982584165   -2.4285818752   -1.2037373690
 H   -0.2329515999    1.6555071308    0.8434815945
 H    0.7143583277   -0.4571162216   -0.6603426427
 H    0.0850173639   -1.5775642017    1.6118787759
 H   -2.9127182687   -0.6254379471    2.5023379063
 H   -2.7873679178    1.1459493331    2.3573072903
 H   -3.5338519990   -0.5035835839    0.1760828826
 H   -2.6309716981    1.0073646385   -0.0683182762
 H   -0.5932938975   -2.5403161817   -0.9754256477