18

 C   -0.2593529832    1.2371812796   -0.0667637079
 N    0.0429677192   -0.1743213608    0.1361899704
 C    1.4400553151   -0.5878247464   -0.0613176921
 C    0.8458517671   -0.5677596809    1.2897637157
 C    1.0990170475    0.2866902530    2.5389207287
 C    0.1740649077   -0.7117360299    3.2904743190
 O   -0.4538200882   -0.6459410138    4.3029557030
 C    0.2773418335   -1.7406324455    2.1199895571
 O   -0.8399235167   -2.3946403827    1.6198376743
 H    0.5675723149    1.9091713608    0.2100940278
 H   -0.4912087705    1.3986348401   -1.1235455523
 H   -1.1408314491    1.5120859939    0.5208105755
 H    1.5869615596   -1.5303173371   -0.5829103604
 H    2.1587786487    0.1917673653   -0.3110164810
 H    2.1334218152    0.2591091368    2.8961726621
 H    0.7579186853    1.3245041579    2.5304105524
 H    1.0554007130   -2.4773964354    2.3706784865
 H   -1.1821096092   -1.8101836550    0.9239731513