24

 C    0.0868337323    1.5860906347    0.0127458221
 C    0.0330039737    0.0561851959   -0.0051409036
 C   -1.3977649181   -0.4927301573    0.0258341269
 C   -1.4510142102   -2.0231403588    0.0040750734
 C   -2.8806912037   -2.6104474638    0.0190844389
 C   -2.8828887565   -4.1499993533   -0.1278679008
 C   -4.2808953112   -4.7641381523   -0.2209018458
 C   -3.5925187200   -2.2094357571    1.2388431350
 N   -4.1423500844   -1.9050824262    2.2095534361
 H    1.1189929240    1.9490424786   -0.0083032864
 H   -0.4334889141    2.0109041355   -0.8528815571
 H   -0.3898804740    1.9875649130    0.9136259297
 H    0.5474513606   -0.3195165949   -0.8997505408
 H    0.5899927392   -0.3405436742    0.8538172205
 H   -1.9111285275   -0.1218153239    0.9218243488
 H   -1.9575812346   -0.0970851328   -0.8333016203
 H   -0.9543838960   -2.3981052863   -0.8993257386
 H   -0.8940413359   -2.4281833360    0.8579982265
 H   -3.4386285450   -2.1836039436   -0.8262078861
 H   -2.3074144789   -4.3897991122   -1.0293723069
 H   -2.3365928902   -4.5837768819    0.7176562018
 H   -4.2191520950   -5.8503348963   -0.3335886182
 H   -4.8684877700   -4.5515200226    0.6771856085
 H   -4.8308174344   -4.3700940142   -1.0826182937