19

 C   -0.0847483736    1.4299994390    0.1469456240
 N    0.1084752662   -0.0124376177    0.1116686184
 C    0.4463725454   -0.5597614730   -0.9744555902
 C    0.6948994421   -2.0529256597   -1.0592793237
 N    0.2607002208   -2.7055803156   -2.2994546462
 C   -0.9224250989   -2.1515205571   -2.9711448959
 C    0.4439743879   -1.8800586251   -3.4907632801
 C    1.0815566342   -0.5235619212   -3.2890616460
 O    0.5798489998    0.1546336765   -2.1372431191
 H    0.6344708126    1.9804024900   -0.4717195778
 H   -1.0897728834    1.6923374614   -0.2089033854
 H   -0.0024852895    1.7729127772    1.1817107732
 H    1.7707955952   -2.2466188859   -0.9571467868
 H    0.2018789118   -2.5171577029   -0.2036346793
 H   -1.5517384350   -2.8868394811   -3.4632448776
 H   -1.4593105313   -1.3335730765   -2.4983893020
 H    0.8018856328   -2.4084596288   -4.3734531464
 H    2.1726860188   -0.6355119141   -3.2071555274
 H    0.8797345340    0.1403634446   -4.1347372517