18

 C   -0.3299913339    1.3367363275   -0.1184196971
 O    0.2456064888    0.0464117379    0.0823982257
 C    0.7932121915   -0.5091861439   -1.0502847557
 C   -0.0918654495   -1.1339450088   -2.1161180432
 C    0.7995709789   -2.0012569922   -1.2652177703
 C    2.1583051478   -2.3308036693   -1.8443335983
 O    2.7717983827   -1.0659085221   -2.1705338887
 C    2.1205771933   -0.0303675615   -1.5563654716
 N    2.5772175743    1.1412318837   -1.4421096553
 H    0.4276580735    2.0572811126   -0.4382269723
 H   -1.1354551038    1.2953745317   -0.8648409955
 H   -0.7492223411    1.6367431629    0.8441127769
 H   -1.1486373495   -1.1571257671   -1.8754819195
 H    0.1449348367   -0.9865639311   -3.1652132381
 H    0.3570503596   -2.6626736646   -0.5316886615
 H    2.7912638129   -2.8527455341   -1.1171239389
 H    2.1167179808   -2.9216187626   -2.7646339417
 H    3.5236658972    1.1974655711   -1.8213420950