17

 C   -0.5925280151    1.3882945920    0.1477854389
 C    0.0844593169    0.0321413733   -0.0297044546
 O    0.8424305742   -0.0382413917   -1.2425637086
 C    2.1870001486   -0.3656956629   -0.9705798837
 C    2.9806550271    0.6857486463   -0.2534808583
 C    2.4076075119   -0.5000340084    0.5188092510
 O    3.2527761002   -1.3891483222    1.1545206013
 C    1.0474904971   -0.3435333371    1.0975508459
 O    0.7591484741   -0.6215473506    2.2389199952
 H    0.1420813400    2.1965961824    0.1990631449
 H   -1.2621701112    1.5850890148   -0.6929920576
 H   -1.1772169750    1.3861050376    1.0721517317
 H   -0.6827622553   -0.7542638460   -0.0615942554
 H    2.6392301157   -1.0228338858   -1.7041838038
 H    4.0600420865    0.6312089944   -0.3525730254
 H    2.5685970503    1.6823705447   -0.1396576285
 H    2.8554974541   -1.5437306507    2.0247734670