19

 O   -0.0140930300    0.0574786553    0.3237994908
 C   -0.0479137235    1.2305017522    0.0595416419
 C   -1.3220049987    2.0552676783   -0.2003010563
 C   -0.8299084292    3.3910337597   -0.7199162323
 C    0.0352339523    4.2897066919    0.1486182840
 C    0.4135830505    3.8482209285    1.5641566017
 C    1.4690029385    2.7330328890    1.3599897034
 C    1.1717134665    2.1603492988   -0.0561195712
 C    0.6831201550    3.3689431183   -0.8603484941
 H   -1.9386439284    1.5326291727   -0.9387527682
 H   -1.9151139515    2.1076670639    0.7208366652
 H   -1.4255030884    3.8897138944   -1.4762326982
 H   -0.0343081851    5.3518805135   -0.0583371827
 H    0.8208786863    4.6849554643    2.1378596611
 H   -0.4544336417    3.4806301388    2.1239824594
 H    2.4725119288    3.1708550832    1.3493673668
 H    1.4513521972    1.9619101334    2.1359328917
 H    2.0228229724    1.6226407922   -0.4756223666
 H    1.2005600390    3.7111135917   -1.7472834462