26

 C    0.0711436510    1.5594595600   -0.3533424931
 C    0.0184633354    0.0758383721   -0.0585114166
 C    1.2487207123   -0.7637173736   -0.0844807376
 N    0.5531001784   -0.5099695319    1.1730582816
 C    1.1902758652    0.3481402761    2.1679731734
 C    1.7173111974   -0.4544770660    3.3803826380
 C    2.7562588051   -1.4922583600    2.9204881943
 C    2.3793193965    0.5374981845    4.3524139904
 C    0.5475349522   -1.1657192583    4.0817093975
 H    1.0403909565    1.9983416079   -0.1049790763
 H   -0.1110782485    1.7342484433   -1.4190165748
 H   -0.7001384449    2.1019162946    0.2051359669
 H   -0.9140149184   -0.3951163479   -0.3695825524
 H    1.2274050978   -1.7871757544   -0.4512986868
 H    2.1933955625   -0.2451735055   -0.2517402686
 H    2.0235988149    0.9357600208    1.7461824325
 H    0.4407575194    1.0661187119    2.5250120487
 H    3.5949427570   -1.0128962184    2.4020814387
 H    3.1649429832   -2.0364495270    3.7789677571
 H    2.3099877596   -2.2230760679    2.2406673460
 H    1.6679164624    1.2999559869    4.6897926930
 H    2.7560833872    0.0191823102    5.2406273981
 H    3.2259533728    1.0527944887    3.8842936849
 H    0.0223458525   -1.8212111980    3.3829743422
 H    0.9046874083   -1.7664709608    4.9253098562
 H   -0.1760429661   -0.4406416274    4.4722946667