21

 C    0.3031912337    1.1149777298    0.3505498210
 O    0.0785430508   -0.2209617411   -0.0324833758
 C    0.4305135831   -0.5052574825   -1.3764178246
 C    1.9428074459   -0.7158153374   -1.5657187454
 O    2.1674084305   -2.0834909592   -1.2391854972
 C    1.0831311218   -2.8253978965   -1.7603895115
 C   -0.1391501315   -1.8911041390   -1.7307817920
 O    1.2955213716   -3.2087432432   -3.0972194427
 C    2.3702956170   -4.1160944163   -3.2586084232
 H    1.3675226141    1.3932477478    0.3205270817
 H   -0.2520032717    1.8193597926   -0.2895881748
 H   -0.0505462244    1.2190126039    1.3791717474
 H    0.0477675557    0.2881363683   -2.0348705393
 H    2.2314227056   -0.5063165252   -2.6058236027
 H    2.5556675236   -0.1055991545   -0.8985998798
 H    0.9938994445   -3.7185961993   -1.1267766282
 H   -0.8609580937   -2.1863893763   -0.9682423404
 H   -0.6263919465   -1.9013265192   -2.7064607651
 H    3.3176833868   -3.6832716857   -2.9171737849
 H    2.1916121198   -5.0493269396   -2.7024174085
 H    2.4380746534   -4.3467177474   -4.3241101543