17

 C   -0.6190999774   -1.2534028111   -0.3713947808
 C   -0.3135771960   -0.1098913802   -0.1586752518
 C    0.0044106691    1.2872381387    0.0483926808
 O   -0.0079122476    1.7018228594    1.4882101273
 C    1.4194748581    1.8119450943    1.3822211380
 C    2.7151286355    2.6674454008    1.4698602991
 C    2.9145872248    1.5153170774    0.3586033573
 C    2.3075705264    0.5304657142    1.3727591646
 C    1.4631805609    1.8961951605   -0.1202271678
 H   -0.8761755648   -2.2681134188   -0.5516268838
 H   -0.7100019344    1.9118799262   -0.4946055285
 H    2.6516770099    3.6925321520    1.0996782511
 H    3.3513674449    2.5823145669    2.3556360485
 H    3.8171664099    1.3810901835   -0.2384189029
 H    2.8892671823    0.3354169230    2.2759159147
 H    1.8607211091   -0.3761566513    0.9701999181
 H    1.3756003592    2.8961294944   -0.5478895039