18

 C    0.0146727747    1.5562568745    0.0589941157
 C   -0.0122235131    0.0595368059    0.0193727395
 C   -1.1042364458   -0.7598783038    0.0176416673
 N   -2.4015288530   -0.3850483372    0.1419377618
 C   -0.7543316508   -2.2236709662   -0.1374961001
 C    0.7717895518   -2.2389210123    0.0284588656
 O    1.4372042726   -3.0416112434   -0.9167002452
 C    1.1725397794   -0.7610343757   -0.1214394871
 O    2.3211488196   -0.4271737307   -0.3655423812
 H    1.0213454108    1.9002518596   -0.1934352638
 H   -0.6840994412    2.0057906827   -0.6587217397
 H   -0.2346522563    1.9533323329    1.0511712224
 H   -2.6421557295    0.5915267065    0.0929240067
 H   -3.1304246366   -1.0329330971   -0.1051309695
 H   -1.2875901242   -2.8489510091    0.5867052430
 H   -1.0131481522   -2.5807094581   -1.1413402763
 H    1.0272847672   -2.5527061248    1.0548902338
 H    2.2719210266   -2.5784911838   -1.0850819526