18

 C   -0.1784455142    1.4729832270    0.3061593869
 C    0.0057904308   -0.0123742030    0.1042381301
 C    1.3323035278   -0.5554675345   -0.4261055452
 C    0.9701537287   -0.8141228725    0.9931556792
 N    1.6923846050   -0.1543163057    2.0340062459
 C    1.1887989963   -0.0416138932    3.2983435445
 O    0.0820874476   -0.4013390767    3.6286776970
 C   -1.2041177497   -0.7648251790   -0.3167071786
 O   -2.2771923529   -0.2638533720   -0.5413322787
 H    0.7488851253    1.9463669327    0.6359080953
 H   -0.5014750935    1.9464329799   -0.6249606390
 H   -0.9482918529    1.6607551315    1.0592292664
 H    1.3201105410   -1.3901225926   -1.1189589964
 H    2.0914661662    0.1914035739   -0.6346330819
 H    0.6388732921   -1.8152653530    1.2557088875
 H    2.6577685040    0.0893570087    1.8779568552
 H    1.9171859906    0.4232236760    3.9921789915
 H   -1.0494195322   -1.8656422377   -0.4188597097