18

 C   -0.0220323828    1.4928337837   -0.1095885059
 C    0.0867797045   -0.0293864431   -0.0662888525
 N    0.7446504422   -0.4857442977    1.1438531189
 C    2.2098030783   -0.2494233756    1.2712317582
 C    2.3393665009   -1.6820756664    1.7318916191
 C    0.9086537596   -1.9515516214    1.3244847129
 N    3.2920394209   -2.3074744173    2.2752212629
 O    2.9284556200   -3.6408283151    2.5429662928
 H    0.9682929412    1.9607617701   -0.1089892710
 H   -0.5409637913    1.8169036469   -1.0166643879
 H   -0.5709870410    1.8633022120    0.7607569944
 H   -0.9163117465   -0.4725841101   -0.0836788562
 H    0.6085622100   -0.3916195987   -0.9759216281
 H    2.7169584745   -0.0666124135    0.3089009824
 H    2.4939886437    0.5388901468    1.9755738736
 H    0.2500386379   -2.4046578549    2.0728322098
 H    0.8401704925   -2.5360237288    0.3920960646
 H    3.7225362354   -3.9867992070    2.9641757423