17

 C    0.0303872351    1.4950237037    0.0099677658
 C    0.0401065286    0.0027586998    0.0941807625
 O    0.7998863813   -0.7005234493   -0.9583129435
 C    0.8200872017   -1.7968833403   -0.0261725677
 C   -0.6768729560   -2.1691565117    0.3586126388
 C   -0.3231477635   -1.8130064611    1.8421945740
 C    0.7328061373   -0.8809989263    1.2104193748
 C   -1.2624980034   -0.8160865326   -0.0471609205
 O   -2.3654026146   -0.4764304144   -0.3660818050
 H    1.0466426811    1.8972202305    0.0293324044
 H   -0.4594934479    1.8145177142   -0.9144171993
 H   -0.5312267534    1.9133019591    0.8511248737
 H    1.5504504556   -2.5778704772   -0.2290878559
 H   -1.1907088866   -3.0803247572    0.0669582465
 H   -1.1181472243   -1.3914735573    2.4634717103
 H    0.1505614512   -2.6471350121    2.3655347171
 H    1.5887770276   -0.4629071578    1.7376026740