15

 C   -0.0059714193    1.5779666626   -0.0529825332
 C    0.0502473909    0.0687106254    0.0690855127
 O    0.8396350629   -0.4930308989   -0.9957193100
 C    1.4222358080   -1.6497182212   -0.4847152888
 O    1.6094448478   -1.4512217829    0.9121145450
 C    0.7626778501   -0.4398068853    1.3085213253
 N    0.6187853275   -0.0142918693    2.4802576691
 C    0.5663661028   -2.8497175467   -0.7027376685
 N   -0.0907569961   -3.7790497548   -0.8966983145
 H    1.0029841319    1.9968405821   -0.0732318457
 H   -0.5321166413    1.8681344458   -0.9653052276
 H   -0.5359622834    1.9825304160    0.8123362040
 H   -0.9617970938   -0.3615201028    0.0397239143
 H    2.3952168534   -1.8073364952   -0.9576366309
 H    1.1951748088   -0.5297771348    3.1460985389