12

 O   -0.4986817941    0.7711695610    0.9021655247
 C    0.1691707083    0.8679111000   -0.0945524711
 C    1.3858631543    1.7314701910   -0.1794379011
 N    2.3410610605    1.4012912706   -1.2336144990
 C    1.6347383829    2.6744848535   -1.3467289653
 C    0.6796884094    2.8023153053   -2.4890151898
 O    0.3175183999    3.8637890641   -2.9259805128
 H   -0.0627458505    0.3052170042   -1.0238623928
 H    1.7389713113    2.0924843621    0.7840572608
 H    3.2980419526    1.5359653023   -0.9207842448
 H    2.1376509890    3.6031192718   -1.0858520789
 H    0.3409820363    1.8349685141   -2.9174370399