25

 C   -0.8938957812    1.2638238734   -0.4896745020
 C   -0.6962610384   -0.2421913812   -0.4363416625
 O    0.5968663601   -0.5336179481   -0.9459250665
 C    0.8901270106   -1.8973865631   -1.1040757844
 C    1.1429892763   -2.6513559617    0.1901862925
 C    2.2850463473   -2.0470506912    1.0144020360
 C    0.2521361887   -2.6039561098   -2.2794801984
 C    1.7213661205   -2.2204661992   -2.3187519567
 C    2.2060036924   -1.1409666538   -3.2599087871
 H   -0.1283516724    1.7725369353    0.1032591214
 H   -0.8233630350    1.6257114761   -1.5195304753
 H   -1.8769132488    1.5339538908   -0.0920661853
 H   -0.7962648549   -0.6007266679    0.5992350893
 H   -1.4625681932   -0.7583148287   -1.0342283108
 H    0.2239200138   -2.6755501532    0.7902592369
 H    1.3660266488   -3.6957658137   -0.0564180740
 H    2.0849242791   -0.9955851868    1.2379997616
 H    2.4165514367   -2.5811335997    1.9603200617
 H    3.2317670957   -2.0925208765    0.4658482821
 H   -0.0243875174   -3.6489141950   -2.1833333957
 H   -0.4174597779   -2.0150893193   -2.8982959075
 H    2.4194943951   -3.0429339371   -2.1792275840
 H    1.5029985443   -0.3059027444   -3.2862682142
 H    3.1766102985   -0.7454485249   -2.9412034177
 H    2.3208587311   -1.5313694002   -4.2770722695