15

 N   -0.0553580297    1.2714239102   -0.2006169442
 C   -0.0249525309    0.0210202578   -0.0458243840
 O    1.0846828091   -0.7485416096    0.1712045127
 C    0.6429716429   -2.0839337786    0.4294897675
 O   -0.6424870179   -2.2029652197   -0.1202637784
 C   -1.1906606496   -0.9050362683   -0.0630739655
 C   -2.4364229251   -0.6207589874    0.7443272634
 C   -2.4690657844   -0.6118348721   -0.7687582570
 H    0.8759711991    1.6788125208   -0.1183656490
 H    1.3169370071   -2.7875881245   -0.0649754076
 H    0.6388465058   -2.2469426598    1.5188373593
 H   -2.8852399614   -1.4684368480    1.2495662781
 H   -2.4835889889    0.3269555979    1.2681490348
 H   -2.5307785792    0.3430338430   -1.2780810922
 H   -2.9474096270   -1.4479332916   -1.2660360779