17

 O   -0.1641554513    1.4502398661    0.0750952533
 C   -0.0323124345    0.0779738331    0.0353741487
 C   -0.9343559380   -0.8458434001   -0.7819187587
 O   -0.9308572191   -1.8329367689    0.2865745264
 C   -0.1912806832   -0.9485742779    1.1340625251
 C    1.1755987285   -0.6752508556    0.5579395666
 C    1.9705990884   -1.7133780099   -0.2249625539
 C    2.9330673592   -2.4205821908    0.6129913737
 C    3.7259133520   -2.9820728162    1.3204563457
 H    0.5528434057    1.8432434459   -0.4342857869
 H   -1.9372931391   -0.4262949212   -0.9160016761
 H   -0.5635859666   -1.2495737202   -1.7313574397
 H   -0.4616397209   -0.8968825876    2.1815556158
 H    1.7674228398   -0.0425781872    1.2162807705
 H    1.2697107838   -2.4346993381   -0.6605393127
 H    2.4978268669   -1.2367256549   -1.0618810971
 H    4.4233580185   -3.4909182166    1.9382669592