17

 C   -0.0575962284    1.5536457912    0.0050993939
 C    0.0461037047    0.0270532592    0.0077389995
 N    0.8092633731   -0.4756120600   -1.1466720140
 C    1.7710426901   -1.1657673450   -0.6859982365
 N    1.8380017482   -1.2628128066    0.7181666145
 C    2.8034196600   -1.9554991300    1.4260202655
 N    3.7340843246   -2.5875324161    0.8365108242
 C    0.7575016676   -0.5172161929    1.2466367950
 N    0.4072328047   -0.3035300703    2.4441932524
 H    0.9377861397    2.0072909250    0.0105713810
 H   -0.5856070394    1.8911613299   -0.8896469191
 H   -0.5970096083    1.8856002844    0.8952189251
 H   -0.9644412194   -0.3972390175   -0.0361355145
 H    2.5278808093   -1.6770649067   -1.2667252356
 H    2.6589756147   -1.8863065925    2.5090833473
 H    4.3477159888   -3.0347188939    1.5138311505
 H    1.0112729401   -0.7498013581    3.1344794308