21

 C    0.1641058183    1.6183672134   -0.0569387635
 C    0.1066141728    0.0998341897    0.0058848995
 C    1.0341115620   -0.7448982619   -0.9242931971
 C    1.3162976038   -1.7189001304    0.2619530435
 O    0.7853482682   -3.0097444944    0.1624343842
 C    2.6787171833   -1.5278731171    0.9446323542
 O    3.7701780817   -1.3814000162    0.0629207519
 C    2.1100575724   -0.2775957853    1.6864054776
 C    0.6702061333   -0.6693064228    1.2296162804
 H    1.1839596111    1.9957838035    0.0711885778
 H   -0.1969902991    1.9808866857   -1.0260345583
 H   -0.4603618925    2.0723588609    0.7209192443
 H   -0.9289774264   -0.2254003990   -0.1431041680
 H    0.5421464657   -1.2143558541   -1.7794139053
 H    1.9285068109   -0.2215907943   -1.2705666801
 H    1.1980250173   -3.4431480340   -0.5933559455
 H    2.8375338303   -2.3582121200    1.6477944853
 H    4.5681972521   -1.2481816960    0.5837948696
 H    2.2724301046   -0.2571815732    2.7658896570
 H    2.4754799214    0.6601183414    1.2608425576
 H   -0.0165108811   -0.9570189158    2.0257950550