23

 C   -0.0006104365    1.5833184710    0.0365808800
 C    0.0679127030    0.0607574628   -0.0551116606
 C    1.0541181194   -0.4835421986   -1.1018476334
 C    1.1857992282   -1.9667145394   -0.7241312871
 O    2.3451443918   -2.6157891850   -1.2221868888
 C    1.1850398669   -1.9501368502    0.8096746711
 C    1.0284832438   -3.2323417355    1.5830959754
 C    2.3559988320   -2.5174670498    1.5715211255
 C    0.5255840504   -0.6355743559    1.2517418419
 H    0.9819144627    2.0038930037    0.2806656438
 H   -0.3286263515    2.0275596027   -0.9093911116
 H   -0.7022286991    1.9031550867    0.8147584137
 H   -0.9326562762   -0.3152737067   -0.3111215289
 H    0.7220622380   -0.3268667216   -2.1339983792
 H    2.0366136555   -0.0074639297   -0.9862132461
 H    0.2866135373   -2.5025722046   -1.0732932249
 H    2.2351058956   -2.7315789140   -2.1705036220
 H    0.4347501758   -3.2114542166    2.4917820777
 H    0.9526510441   -4.1563984682    1.0175881741
 H    3.1623961387   -2.9573612011    0.9983049785
 H    2.6631775033   -1.9937314372    2.4714854100
 H    1.2539080819    0.0017452031    1.7690964347
 H   -0.3081655553   -0.7904306560    1.9445002261