19

 C   -0.0552189622    1.5234429990    0.0534413569
 C    1.5055981677    1.5790496560   -0.0981407579
 C    1.4236971526    0.1713248764   -0.6956245888
 C    2.2240298201   -1.1239071182   -0.8279502642
 C    1.2322936426   -1.2870739622   -2.0116486751
 C   -0.1744440956   -1.7593733870   -1.5805368293
 O   -0.8416670705   -0.7715569153   -0.7919180816
 C    0.0592979695   -0.0218957034   -0.0132654764
 O    1.1657890955    0.1593363563   -2.1316584169
 H   -0.4994814905    1.9614612341    0.9482997852
 H   -0.5525036123    1.9081776542   -0.8378811477
 H    1.9306667847    2.3469717562   -0.7463717445
 H    2.0201390079    1.5906828031    0.8662440563
 H    3.2489198250   -0.9885919676   -1.1799115898
 H    2.1837175605   -1.8338725457    0.0024829886
 H    1.5720427099   -1.7815333952   -2.9248386788
 H   -0.8037963082   -1.9139156868   -2.4623492752
 H   -0.1033958968   -2.7169510201   -1.0392953189
 H    0.1692708901   -0.4523399938    0.9948876382