20

 C    0.0836669444    1.5771573836    0.0972573072
 C   -0.1006407110    0.0677875407   -0.1177763239
 C    0.6809897241   -0.4903749125   -1.3083586035
 O    0.2455612255    0.0748579275   -2.5131471956
 C    2.2563683907   -0.6857715879   -1.0819088921
 N    1.8457723417   -1.8743781168   -0.2593001169
 C    0.8346923304   -2.0587148826   -1.3569669106
 C    1.7065070228   -2.2264515451   -2.6147904890
 C    2.6587174314   -1.3077392869   -2.4269725116
 H    1.1357637549    1.8341580867    0.2577230202
 H   -0.2807002467    2.1791246747   -0.7454653357
 H   -0.4768661836    1.9082673264    0.9762127766
 H    0.2078172965   -0.4682093780    0.7801660121
 H   -1.1636766334   -0.1492280621   -0.2848981713
 H    0.0132017834    0.9935891959   -2.3500289306
 H    2.8995192113    0.0617057652   -0.6154874102
 H    2.5579465144   -2.6033686595   -0.3047525076
 H   -0.0010847441   -2.7373951461   -1.1808384219
 H    1.5190244069   -2.8820086232   -3.4525508711
 H    3.4693374705   -0.9991297801   -3.0710922946