16

 C    0.4874153747    1.4303504100    0.1351145264
 O    1.0211190838    0.2138910733   -0.3995080436
 C   -0.3246434933    0.2089120171    0.0775463718
 C   -0.5847236730   -0.6259193742    1.2880161788
 C    0.5256162602   -1.0115987184    2.2428526095
 C   -0.1827845786   -2.0855153993    1.4705698431
 O   -1.2950497163   -2.6979966015    2.1100694221
 C   -2.1877611919   -1.6931942948    2.3001645163
 N   -1.9103514409   -0.5288046958    1.8680780486
 H    0.9085228991    1.7424613880    1.0888340018
 H    0.3209924102    2.2229703649   -0.5918146078
 H   -1.0837747091    0.1313488286   -0.7011951656
 H    1.5301858500   -0.7943894061    1.8979850548
 H    0.3480829775   -0.9177025837    3.3087987097
 H    0.3125252101   -2.7317997718    0.7585700522
 H   -3.0941211524   -1.9815339761    2.8181008018