18

 O    0.2399638922    0.0951242935    0.1171162709
 C    0.0573430552    1.2817313331    0.0711853351
 C   -1.3010308123    1.9949648730    0.0407279496
 C   -0.9184442790    3.4502011758    0.0461532117
 C    0.4012324796    3.6414291875    0.0497691444
 C    1.1796526875    2.3525221025    0.0372565953
 N    2.0549204963    2.2003179863    1.1960362186
 C    3.1000685859    1.1865825621    1.0747322461
 C    3.4422388265    2.6331870327    1.0198209297
 H   -1.8625009665    1.6885172474   -0.8516953830
 H   -1.9099557479    1.6925812237    0.9020586146
 H   -1.6573693851    4.2434978614    0.0475596679
 H    0.8933004747    4.6069952886    0.0625932520
 H    1.7404845069    2.2267444706   -0.9106522142
 H    3.2919268639    0.6063528642    1.9718116179
 H    3.1519198809    0.6194305143    0.1487981173
 H    3.7306861638    3.0417974212    0.0523882325
 H    3.8888353371    3.1317292220    1.8748949336