17

 C   -0.0470290081    1.4479994816   -0.0361813963
 O    1.1615013120    0.6908280972   -0.1384773674
 C   -0.0683395384   -0.0199598916    0.0235901475
 C   -0.2449829875   -0.7683951895    1.3023641506
 C    0.2724542873   -0.2187607100    2.6304031239
 C    0.5184119913   -1.4694673129    3.4485058064
 C    0.2682704985   -2.5857002937    2.7593749008
 C   -0.2303884194   -2.2437908485    1.3952302656
 O   -1.4737474128   -1.4978697606    1.4044268986
 H   -0.1580381601    2.0279649863    0.8783278534
 H   -0.3626782381    1.9509499629   -0.9486606781
 H   -0.4054891740   -0.5647644356   -0.8582781478
 H    1.1911896937    0.3589334618    2.4727528140
 H   -0.4585638050    0.4453614945    3.1066799788
 H    0.8336119666   -1.4273028427    4.4848970005
 H    0.3743663282   -3.6007906900    3.1203444296
 H   -0.0998937042   -2.9003335492    0.5398952599