19

 C   -0.4341778597    1.5131500233    0.2813073580
 C   -0.0669598952    0.0585619370    0.0972241809
 C   -1.1033214443   -0.8037472781   -0.5907630781
 O    1.2817438734   -0.1843852089   -0.3164585955
 C    0.9060730977   -0.5954739971    1.0125156985
 C    1.5169459880    0.0808085502    2.1235663263
 C    2.0375874059    0.6247892854    3.0655173876
 C    2.6204730775    1.2984043430    4.2247470207
 O    1.8475690391    2.3938648345    4.6951920647
 H    0.3535216035    2.0528853362    0.8089637975
 H   -0.5891320060    1.9848831716   -0.6949126285
 H   -1.3656701141    1.6060973529    0.8498455813
 H   -1.3227586853   -0.4060870073   -1.5875948931
 H   -0.7449273175   -1.8296201004   -0.7047951577
 H   -2.0391257316   -0.8181583799   -0.0222795705
 H    0.8257273092   -1.6771085160    1.1260011801
 H    2.7974310405    0.5585611798    5.0218173768
 H    3.5983578535    1.7159348442    3.9602710837
 H    0.9515346653    2.0729871696    4.8410876974