17

 C    0.0659882193    1.4251875024    0.0935324264
 C   -0.0536257024   -0.1094480990    0.0230575869
 C    0.7705046279   -0.7061816330   -1.1741681404
 O    1.8831366994   -1.3645478077   -0.5447608501
 C    1.6183722090   -1.3278780038    0.7896421560
 N    2.5730293979   -1.9365800401    1.5544564567
 N    0.5829084885   -0.7135665985    1.2117722229
 C   -1.4647869614   -0.4964358657   -0.0726519228
 C   -2.6224465561   -0.7990000704   -0.1851143847
 H    1.1220991653    1.7101785770    0.1216460500
 H   -0.4087581304    1.8942184014   -0.7738316557
 H   -0.4172470771    1.7925869838    1.0011719345
 H    0.2011621684   -1.4438041429   -1.7447577977
 H    1.1574852379    0.0616569009   -1.8484273487
 H    3.0761047057   -2.6853579908    1.1043534360
 H    2.2838847819   -2.1232918446    2.5016791067
 H   -3.6452138540   -1.0725681090   -0.2673854260