23

 C   -0.4263761851    1.2947706744   -0.3533512353
 C    0.8668939723    0.6373588674    0.1414403233
 C    1.5160550277   -0.2061300224   -0.9435234842
 O    2.7986717437   -0.7986229232   -0.5813761320
 C    2.4062317523   -2.0509680769   -1.1759368027
 C    3.4150391958   -2.7336322662   -2.0415917419
 C    1.3023534416   -2.6752795201   -0.3796610999
 C    1.2002255085   -2.6186297300    1.1301126448
 C    0.9781596901   -1.5672918335   -1.3809758104
 H   -0.2412153133    1.9357455218   -1.2226385720
 H   -1.1660999398    0.5421688148   -0.6470237084
 H   -0.8756683370    1.9154091620    0.4270784603
 H    1.5869573098    1.4080852891    0.4445734885
 H    0.6625280724    0.0301910361    1.0263241689
 H    1.6713104670    0.4233173116   -1.8333997364
 H    4.2840538164   -3.0414775674   -1.4484212448
 H    2.9852360479   -3.6294277478   -2.4992455214
 H    3.7687119582   -2.0686131668   -2.8360229355
 H    1.0050050750   -3.6333975017   -0.8052065767
 H    1.7934068661   -1.7928515330    1.5268448800
 H    0.1648707950   -2.5011311948    1.4677016824
 H    1.5871737787   -3.5455084525    1.5676494388
 H    0.3062775071   -1.7290238909   -2.2144456155