17

 O   -0.1016041309    0.0063719617   -0.1458068041
 C   -0.0880361986    1.1986481575   -0.0207235875
 C   -1.2904507136    2.1817373780    0.0702281805
 C   -0.8633288326    3.3621301934    1.0222958095
 C    0.1989298659    3.4869324258   -0.0885295254
 C    1.4142344209    4.1806921152   -0.7129769890
 N    2.0328817828    2.8169495118   -0.9669628569
 C    1.0670830717    2.2287067949    0.0399856056
 N   -0.8854147389    3.0915644852   -1.0478987705
 H   -2.2906597823    1.7521743174    0.0689237421
 H   -1.6316472254    4.1366868067    1.0275690217
 H   -0.5138717390    3.1256263031    2.0282705979
 H    1.2189640842    4.7926603057   -1.5981482343
 H    2.0371673081    4.7412546645   -0.0105220045
 H    1.8287270929    2.5006745361   -1.9109385169
 H    1.6042987391    2.0924288143    0.9868048802
 H   -0.5550548043    2.5959859087   -1.8804774283