18

 C   -0.0344160437    1.5067554623    0.0633839349
 N    1.2207278283    0.7203510638   -0.0045997946
 C   -0.0638004136    0.0341531669    0.0077396765
 C   -0.4272823744   -1.0021785823    1.0582741826
 N   -1.8895517737   -1.2296592352    0.9154435516
 C   -0.9422578090   -1.9235900129    0.0036631850
 C   -0.5951421580   -0.9154656889   -1.0792933563
 C   -1.2281959483   -0.6267421713   -2.3786948854
 N    0.0961318411   -1.2894795504   -2.3053638861
 H   -0.1986005476    2.0245758237    1.0040669580
 H   -0.3536650746    2.0569337186   -0.8187168773
 H    1.6105454254    0.7488736891   -0.9453625337
 H    0.1062528432   -1.2129086438    1.9757147445
 H   -2.1537448358   -1.9045653426    1.6339083923
 H   -0.8935635017   -3.0018669296   -0.0719165737
 H   -2.0332939431   -1.2547173822   -2.7494275133
 H   -1.2753622404    0.4099406338   -2.7039452922
 H    0.8400152058   -0.6278842892   -2.5215393629