20

 C   -0.2123439000    1.3986858490   -0.0054786561
 N    0.0044152735   -0.0389095917    0.0677364847
 C    1.3782521104   -0.5015295468   -0.1578232842
 C    0.7660854310   -0.5604829840    1.1903462892
 C    1.2695449991    0.1714063879    2.4618970113
 C    0.8548899853   -1.0770697465    3.2606463705
 O    1.6159615213   -1.6260007192    4.2762807871
 C   -0.6044664451   -1.3779788035    3.0778681750
 C    0.3800861092   -1.7809497769    1.9951351524
 H    0.6285648765    1.9982030430    0.3811045728
 H   -0.3785353415    1.6822433181   -1.0498633419
 H   -1.1101714901    1.6631783010    0.5627917598
 H    1.4832837644   -1.3986609273   -0.7635757961
 H    2.1503827271    0.2507945246   -0.3210550408
 H    2.3528957279    0.3139778571    2.4623571921
 H    0.7800250478    1.1131376694    2.7332318112
 H    1.3176461533   -1.2536059613    5.1133507645
 H   -0.9629998500   -2.2084588792    3.6781784269
 H   -1.3359591046   -0.5934584379    2.8980766789
 H    0.5023174745   -2.8123863657    1.6892850728