23

 C    0.1666438696    1.5472608166   -0.1498194635
 C    0.1320685784    0.0377150546   -0.0342630152
 C    1.3313556973   -0.8493708272   -0.2746943900
 O    2.6106849762   -0.2686235471   -0.2327943009
 C    2.8697448611    0.2422010672    1.0763408406
 C    1.7734142303   -0.2924657810    2.0292366410
 C    1.3124953532    0.7281032204    3.0745551787
 C    0.6971626134   -0.8408257467    1.0879669531
 C   -0.1498991141   -1.9804617842    1.6086394321
 H    1.1449620767    1.9689626583    0.0821990469
 H   -0.0721583262    1.8443881657   -1.1771128797
 H   -0.5721646069    2.0181582437    0.5079499795
 H   -0.7906401281   -0.3856643443   -0.4293237966
 H    1.2887733192   -1.6892994026   -0.9613673647
 H    3.8751879907   -0.0771789705    1.3743938237
 H    2.8683582481    1.3403211412    1.0557301438
 H    2.1751624772   -1.1631101716    2.5645964383
 H    0.8987102063    1.6242505505    2.6035369167
 H    0.5415215204    0.3039997119    3.7258769075
 H    2.1462883355    1.0387255505    3.7138323814
 H   -0.8043491989   -1.6534360817    2.4257522337
 H   -0.7918676932   -2.3918520921    0.8236132993
 H    0.4747341439   -2.7968460616    1.9910420842