13

 O    0.0362368371   -0.0121510937   -0.0710476982
 C   -0.0012418452    1.1944985138   -0.0085935298
 C   -1.2151527167    2.0581803480    0.0798969741
 C   -0.8657430545    3.3513310213    0.0244981458
 C    0.6168848444    3.5308813076   -0.0408829047
 C    1.3547974497    3.0311571006    1.1846785587
 C    1.1866460477    2.1372222863   -0.0340648445
 H   -2.2114873328    1.6506573768    0.1882102290
 H   -1.5480186741    4.1927306008    0.0732458520
 H    1.0465327553    4.3341921165   -0.6270256778
 H    2.3542542923    3.4124514374    1.3674952579
 H    0.7743819119    2.8168227098    2.0755966587
 H    2.0675423848    1.8487770148   -0.5921660813