13

 O   -0.6958117976    0.8757662880    0.5340610996
 C    0.2916137332    0.8246903733   -0.1564674793
 C    1.3965220972    1.8147992949   -0.0787392936
 C    1.8434858941    2.7346611881    1.0949635916
 C    2.9058605357    2.9610376204   -0.0294636702
 N    2.8575369617    1.4692603842   -0.3706983456
 C    1.7095968881    3.0724848077   -0.9852962325
 O    1.2489867417    3.7249031871   -1.8545250209
 H    0.4375497186    0.0383162216   -0.9280633014
 H    1.1974768541    3.5608861742    1.4018267733
 H    2.2332538436    2.1775167697    1.9513271708
 H    3.8398253766    3.5175071823    0.0063856700
 H    3.2157596332    0.9641237585    0.4479365680