20

 C    0.0003910894    1.4769822964    0.2253034947
 C    1.4014790846    2.0933935373    0.0288771049
 C    2.2805606145    1.5114239394   -1.0808793498
 O    1.8435910708    1.7029860219   -2.4108495650
 C    0.6692447035    1.0443148736   -2.8637367427
 C    0.3785682479   -0.3700852830   -2.3321580201
 O   -0.5474091063   -0.4388840342   -1.2652232738
 C   -0.1226557129   -0.0466158697    0.0293304997
 H   -0.3297969678    1.7190522088    1.2422630032
 H   -0.7301505915    1.9446157152   -0.4423172943
 H    1.3032547011    3.1746129497   -0.1224029158
 H    1.9749470288    1.9644883878    0.9572350725
 H    3.2561213644    2.0078067020   -1.0432608418
 H    2.4707820003    0.4464766826   -0.8813854040
 H   -0.2257383102    1.6570205964   -2.6787004100
 H    0.7987523297    0.9827294011   -3.9502490634
 H   -0.1018570880   -0.9304827426   -3.1410499340
 H    1.3148471956   -0.8967087955   -2.0908739106
 H    0.8117651673   -0.5618901928    0.3052847084
 H   -0.9042683112   -0.4301809143    0.6923874019