21

 C    0.0327053345    1.5551235012   -0.0148153470
 C   -0.0025538741    0.0172883953    0.0413147220
 C    0.8037184084   -0.5098937801    1.2418192123
 C   -1.4264542767   -0.5161911501    0.0375917809
 C   -2.3185378321   -0.2203243753    1.0752617822
 C   -3.6202872151   -0.7118408930    1.0648946299
 C   -4.0596945267   -1.5128461522    0.0126032646
 C   -3.1846547890   -1.8157072673   -1.0262081499
 C   -1.8824316421   -1.3204802048   -1.0099649988
 H    1.0653367942    1.9162538437   -0.0684240295
 H   -0.5071178818    1.9319938557   -0.8886823740
 H   -0.4270001686    1.9957995780    0.8763215094
 H    0.4818459747   -0.3562770141   -0.8696909485
 H    0.3789269912   -0.1618717705    2.1894846119
 H    0.8129814185   -1.6037624856    1.2630523143
 H    1.8404160556   -0.1596842187    1.1946462033
 H   -1.9936370902    0.4022860372    1.9033123277
 H   -4.2937739309   -0.4689109324    1.8806977101
 H   -5.0744709125   -1.8965744852    0.0036157238
 H   -3.5136632935   -2.4384514229   -1.8520622766
 H   -1.2064817440   -1.5623646389   -1.8254424980