14

 C   -0.0014938112    1.5235654970    0.1816079343
 N    1.3375143756    1.9624230029   -0.2498376105
 C    2.3396219712    1.1460640296   -0.6620884297
 N    2.3101980475   -0.1463813941   -0.7524318048
 C    1.0931028936   -0.6436356466   -0.3676122288
 C   -0.0143431218    0.0302109346    0.0700943879
 C   -0.9462690262   -1.0009103194    0.3142735422
 N   -0.4490458591   -2.1904789094    0.0487246548
 O    0.8607411260   -1.9610894943   -0.3890937994
 H   -0.1884763392    1.8687123262    1.2100416830
 H   -0.7664243375    1.9978100219   -0.4522331448
 H    1.5252789377    2.9512215867   -0.2382776570
 H    3.2531311891    1.6688075840   -0.9392210559
 H   -1.9647110557   -0.9383649789    0.6735103388