24

 C   -0.3008006494    1.5579656280    0.6293236383
 C   -0.1949829076    0.0747287460    0.2602791218
 C    0.5788319223   -0.2125641911   -1.0429697806
 C    2.0863273668    0.0659085613   -0.8912362601
 C    2.8704582789    0.1042516975   -2.2078855430
 C    0.3160501104   -1.6544328045   -1.5067767862
 C   -1.1078861039   -1.8619070067   -2.0232899668
 N   -1.5914304956   -3.1319479941   -1.8814716493
 O   -1.7630309585   -0.9766885576   -2.5400101731
 H    0.6772460486    2.0136699402    0.8125126815
 H   -0.7881006396    2.1242330731   -0.1716578125
 H   -0.8956535187    1.6906147156    1.5386381844
 H    0.2748386393   -0.4801562252    1.0853076440
 H   -1.2100595840   -0.3254760320    0.1584483036
 H    0.1742312879    0.4447363751   -1.8228117070
 H    2.2176295390    1.0294936011   -0.3868919865
 H    2.5262245373   -0.6853693831   -0.2197742421
 H    2.4579124382    0.8569104254   -2.8886158859
 H    3.9205097395    0.3569296394   -2.0295263652
 H    2.8549674762   -0.8568346932   -2.7322149422
 H    0.9844919161   -1.9175619261   -2.3360766869
 H    0.5354657467   -2.3634883808   -0.6975463570
 H   -1.0350043896   -3.8802102198   -1.5081137175
 H   -2.4868524504   -3.3487112785   -2.2877599118