14

 N    0.0150663900    0.9468085023    0.9694353062
 C   -0.1843098471   -0.1586686884    0.1581100696
 C   -0.9332530213   -0.3910961580   -0.9428516320
 N   -0.7675100816   -1.7019587928   -1.3759639555
 C    0.0715332220   -2.1941865502   -0.5161703691
 N    0.5373328007   -3.4951599756   -0.5497518605
 C    1.4221165332   -4.1217132518    0.3034646275
 O    1.9609170674   -3.6257520986    1.2593485920
 O    0.4864725723   -1.3622409958    0.4429864219
 H   -0.2735728362    0.7872864014    1.9295031845
 H    0.9804245860    1.2607188355    0.9759853706
 H   -1.5828687826    0.3007924557   -1.4539022088
 H    0.1567023644   -4.0300813213   -1.3169635593
 H    1.5763985328   -5.1708086624   -0.0148096872