15

 N   -0.0977220220    1.5077241483   -0.0035533154
 C   -0.0457899353    0.1004309635   -0.0242462062
 C    0.6348234415   -0.8569126722   -1.0136064059
 O   -0.4529726146   -1.8248577000   -0.8630982201
 C   -1.1635892460   -0.9280306918   -0.0162669586
 C   -0.3300141253   -0.7371599621    1.2375934445
 O    0.5384310501   -1.7390083424    1.6569931776
 C   -0.9625170829   -0.0285908408    2.3246789377
 N   -1.4664821292    0.5229076273    3.2068345037
 H    0.7299214914    1.9241926026    0.4078065963
 H   -0.2528581408    1.9076096799   -0.9218976346
 H    0.6542271839   -0.4731838152   -2.0387824016
 H    1.6060638733   -1.2761735775   -0.7360786918
 H   -2.2446832507   -0.8897218561   -0.0711737400
 H    0.3533657067   -2.5060178637    1.0962722345