15

 N    0.0221883663    1.2383147176   -0.3139061806
 C    0.0216956588    0.0292172741   -0.0126730523
 O    1.1196631003   -0.8649756595    0.2258386258
 C    0.1763494539   -1.7037324115    1.0062849788
 C   -0.7574740081   -2.9928754038    0.8931697257
 N   -1.8583697765   -1.9119450597    1.1623990631
 C   -0.9500242431   -1.1300908132    0.2094567506
 C   -0.9520410664   -1.9966727963   -1.0770131284
 C   -0.8374252509   -3.2368218862   -0.6047105160
 H    0.9700019367    1.6100706285   -0.3940337778
 H    0.2427153453   -1.3812198917    2.0446366137
 H   -0.7131256105   -3.8189378998    1.6022442542
 H   -2.7288396031   -2.1839816724    0.7001923015
 H   -1.0146593819   -1.6106399354   -2.0834963255
 H   -0.7776376307   -4.1895674207   -1.1095580427