15

 O   -0.0114716322    1.4239954609    0.1068904249
 C   -0.0584318542    0.0333281670    0.0126778629
 C   -1.4844723381   -0.5113646448   -0.1183358131
 C   -1.4260803067   -2.0304990839   -0.1362567768
 O   -0.5855824347   -2.5707449383   -1.1782583693
 C    0.5192750761   -1.9392667148   -1.6271284037
 O    1.2751273217   -2.4767878980   -2.3815419002
 C    0.7257165566   -0.4682386056   -1.1834945362
 O    1.4564852647    0.2571851522   -1.8090413585
 H    0.6643272489    1.7142484028   -0.5252792756
 H    0.4004190178   -0.4368353372    0.9057538605
 H   -2.0916762780   -0.1773424743    0.7281422868
 H   -1.9478203049   -0.1252117375   -1.0331045248
 H   -1.0531579651   -2.4130821652    0.8221229968
 H   -2.4093280821   -2.4691961232   -0.3145908639