16

 N    0.1169116811    1.4198613642    0.3386302711
 C    0.0057140407    0.0127964951   -0.0013334475
 C   -1.4526333809   -0.4972052483   -0.0862825962
 N   -2.3691483874    0.5898141333   -0.4338316014
 C   -1.4491477968   -1.4663863761   -1.2781235250
 O   -2.3547427205   -2.1803475871   -1.6271141543
 N   -0.2307654012   -1.3286945378   -1.9254861858
 C    0.6272668053   -0.3958965121   -1.3506957992
 O    1.6621587576   -0.0060072547   -1.8270223152
 H    1.0971204241    1.6864669155    0.3157941676
 H   -0.3491434901    1.9643446233   -0.3822283658
 H    0.5411870228   -0.5678137842    0.7607782530
 H   -1.7403317332   -1.0538018541    0.8164497738
 H   -3.2760491073    0.1962523844   -0.6663286124
 H   -2.4921911670    1.1926194989    0.3737087937
 H   -0.0327671771   -1.7871139504   -2.8049451464