25

 C   -0.0828489069    1.6035285433   -0.1972710406
 C   -0.0245342735    0.0801424113   -0.0810230611
 O    0.8720513597   -0.3174673872    0.9582797021
 C   -1.3865113729   -0.6040219400    0.1692746157
 C   -1.2107134029   -2.1315160761    0.2047643001
 C   -2.1801799139   -0.0922461314    1.3784195360
 C   -1.5594772498   -0.2604731373    2.7567658938
 C   -3.0770510008    1.1092762573    1.1717932641
 C   -3.6813983355   -0.2673949900    1.2964104521
 H    0.9116481574    2.0026672588   -0.4314176966
 H   -0.7563040566    1.9132192176   -1.0031167541
 H   -0.4237802959    2.0599380430    0.7347700305
 H    0.3429999214   -0.3198455893   -1.0422493776
 H    1.7213621657    0.1025379141    0.7914058897
 H   -1.9892624290   -0.3637571584   -0.7180881296
 H   -0.5487012211   -2.4340329414    1.0188471106
 H   -2.1756877272   -2.6295040975    0.3369066439
 H   -0.7682141998   -2.4926442518   -0.7299906512
 H   -0.6099927982    0.2720398567    2.8395439021
 H   -2.2404739659    0.1144165088    3.5280432409
 H   -1.3597451874   -1.3143071997    2.9781584794
 H   -3.2024350493    1.8030031100    1.9969909731
 H   -3.0963032090    1.5812986253    0.1953324186
 H   -4.1000683162   -0.7203560844    0.4032962418
 H   -4.2165555024   -0.5132130115    2.2076107364