17

 C    0.5752847589    1.3139697458   -0.0934685353
 C   -0.1040531942   -0.0194660230   -0.0740239461
 C   -1.3619121575   -0.3042512383   -0.4936343137
 O   -1.6394878697   -1.6407596630   -0.3205874612
 C   -0.5239539460   -2.1921405885    0.2193669098
 N   -0.6412268634   -3.5499152311    0.4580076659
 C    0.3184996162   -4.3702848211    0.9946861218
 N    1.4711901501   -3.9542697788    1.3470620281
 C    0.4537178386   -1.2633649027    0.3979692821
 H    1.4868585787    1.2888485752   -0.7012749665
 H   -0.0800716720    2.0870568027   -0.5043677274
 H    0.8714152906    1.6259493276    0.9145017425
 H   -2.1583893702    0.2820169066   -0.9194846755
 H   -1.5270232209   -3.9557651227    0.2053326374
 H   -0.0418574221   -5.4022829154    1.0725604073
 H    2.0214432323   -4.7252272445    1.7173580782
 H    1.4291226807   -1.4520324088    0.8089436628