15

 N   -0.0949495428    1.2153302943   -0.6129193093
 C   -0.0554980908    0.0702986387   -0.1071544730
 O    0.9704191015   -0.5988208791    0.5335256232
 C    0.1714894346   -1.8257464796    0.6450063005
 C   -0.1713800438   -2.1900840583    2.0926952479
 C   -1.5012584896   -1.5051327154    2.3165118395
 C   -1.9804667560   -0.9249323344    1.2155719909
 C   -1.0466782102   -1.0751438155    0.0416603861
 H    0.7978761947    1.7004436729   -0.5072697282
 H    0.6356976157   -2.6211525962    0.0606124564
 H   -0.2401772869   -3.2764723282    2.2328410445
 H    0.6131248127   -1.8327428689    2.7705753255
 H   -1.9921586217   -1.4981595500    3.2833010243
 H   -2.9077100515   -0.3698129105    1.1452168284
 H   -1.5064299458   -1.4272909398   -0.8832787967