19

 C    0.0394081830    1.3156605449   -0.2366818056
 O   -0.0626358964   -0.0225420089    0.2213354037
 C   -1.3399732976   -0.5277269028    0.1565384235
 C   -2.4686840302   -0.2366298133    1.1500204984
 C   -3.0574911892   -1.6342744870    0.7525137252
 O   -4.0454568933   -1.5302768481   -0.2610450046
 C   -3.4034783153   -0.9686663045   -1.4119571752
 C   -1.9089682565   -1.0971832956   -1.1420731778
 C   -1.7166633935   -1.9866060485    0.0626659805
 H    1.0879393578    1.6058589389   -0.1424101719
 H   -0.2676322036    1.4039194246   -1.2883010796
 H   -0.5750731138    1.9988563039    0.3658940489
 H   -2.0882733159   -0.2374509732    2.1755636104
 H   -3.1212365340    0.6285161576    0.9950553682
 H   -3.4436225683   -2.2638650128    1.5518837997
 H   -3.7092440220   -1.5389350888   -2.2972788681
 H   -3.7223515653    0.0736916014   -1.5506550564
 H   -1.2089020079   -1.1810041094   -1.9647426721
 H   -1.1319032581   -2.8945172285    0.1063258928