16

 C   -0.0712208892    1.3707673858    0.2328587882
 N   -0.0662903572   -0.0024259071   -0.2284834497
 C   -1.0873517722   -0.6936134050   -0.0056553026
 O   -1.1303040205   -1.9892542719   -0.4272571346
 C   -2.3065519906   -2.6943639508   -0.1274173360
 C   -2.2605947696   -4.1765871072   -0.5185352729
 O   -2.4915668470   -4.5602850510    0.8783746884
 C   -2.4434689204   -3.2596961216    1.3067800555
 O   -2.4892361798   -2.8407491003    2.4159307294
 H    0.7652631071    1.5248634475    0.9230900356
 H    0.0899760804    2.0411559391   -0.6185272747
 H   -1.0012215065    1.6699132712    0.7417964172
 H   -1.9929236889   -0.3558809936    0.5175842012
 H   -3.2033115841   -2.1589738714   -0.4604430273
 H   -3.0598114518   -4.5461436778   -1.1615785897
 H   -1.2808011198   -4.5118121159   -0.8607726480