13

 O    0.2482722488    1.5821753774    0.0057134198
 C    0.0743402923    0.2096937140    0.1177229019
 C    0.5634953528   -0.5076818194   -1.1456063895
 O    1.0071598219    0.1208010064   -2.0717368297
 C    0.7773701636   -0.3839620740    1.3120075050
 N    1.6640735404    0.2541354857    2.0271977276
 O    2.0316856808   -0.6954868353    2.9930609231
 C    1.3219088810   -1.7901537578    2.7323356001
 N    0.5270699744   -1.6811001390    1.7157937188
 H    0.6917061534    1.7240175647   -0.8465587829
 H   -0.9937261225   -0.0532357014    0.2226489428
 H    0.4822471796   -1.6099498931   -1.1492291133
 H    1.4704226836   -2.6425775283    3.3790193562