22

 C   -0.0905092802    1.5898066380   -0.1104311929
 C   -0.0750663435    0.0802931338    0.0109287157
 C   -1.3498327566   -0.5464528634    0.5276605601
 O   -1.7159463859    0.0714430249    1.7466649065
 C   -2.8792476109   -0.4796114519    2.3360015049
 C   -3.2269026142    0.3958522758    3.5291060169
 O   -3.4817053709    1.7293913554    3.1332292411
 C    0.7536459505   -0.7134449948   -0.9325301411
 N    1.1532149976   -0.5859308354    0.4814824207
 H    0.8416221591    1.9561601191   -0.5523878086
 H   -0.9182060404    1.9274773549   -0.7441910766
 H   -0.2124966359    2.0534813606    0.8726443838
 H   -2.1584209868   -0.4236976130   -0.2140047801
 H   -1.1870137496   -1.6236931953    0.6776211954
 H   -3.7116992796   -0.4754147169    1.6135655276
 H   -2.7028270657   -1.5209518901    2.6513994805
 H   -4.1354564044    0.0203419539    4.0112136052
 H   -2.4070280552    0.3423739588    4.2629819986
 H   -2.7421345990    1.9757823558    2.5656679101
 H    0.4475426860   -1.7129029355   -1.2314355865
 H    1.3127932598   -0.1704837711   -1.6903281297
 H    1.9043689758    0.0947072565    0.5684752185