19

 C   -0.0218900081   -1.1927736602    0.1516613114
 C    0.0189605447    0.0072692231    0.1042185514
 C    0.0915105138    1.4609238531    0.0676534044
 C    1.5331458552    2.0094802786   -0.1481742439
 C    2.0642932796    1.6131577038   -1.4515433760
 C    2.4843048574    1.3159999453   -2.5376607564
 C    1.5586302696    3.5240840135    0.0186333833
 C    1.6410955396    4.1242606681    1.3997135204
 C    2.8185828550    4.2163314700    0.4590313837
 H   -0.0647373147   -2.2530866214    0.1829184063
 H   -0.5551045585    1.8485035265   -0.7286959532
 H   -0.2866543573    1.8746466266    1.0100441540
 H    2.1676667805    1.5703812369    0.6334220897
 H    2.8635457765    1.0388763118   -3.4898853840
 H    0.9464177359    4.0528740074   -0.7069036450
 H    1.0708452454    5.0227178435    1.6073783925
 H    1.7218557249    3.4459352751    2.2434530021
 H    3.6855211617    3.5991639924    0.6706245435
 H    3.0567178190    5.1782506357    0.0195728859