16

 N    0.1237282883    1.4440189706    0.3850398647
 C   -0.0184339319    0.0850192046    0.1032967841
 C   -1.1251702433   -0.6586418653   -0.1845163774
 C   -0.6597468394   -2.0040884020   -0.3870020109
 C    0.6808957110   -1.9754108046   -0.1933592096
 O    1.0981407395   -0.7087738708    0.0936146294
 C   -2.5101855687   -0.1629585636   -0.2408404368
 C   -3.4672709202   -0.5856333234   -1.2797970583
 O   -3.5478332780   -1.1164770603    0.0402589964
 H    0.8681911499    1.6089338342    1.0537399560
 H    0.3110138633    2.0032352594   -0.4415093244
 H   -1.2674754415   -2.8684186174   -0.6024044525
 H    1.4492546120   -2.7305643625   -0.1980378939
 H   -2.6591261317    0.8157114194    0.2142525129
 H   -4.2788032881    0.0814142746   -1.5700361649
 H   -3.1410623012   -1.2854299130   -2.0482646848