13

 N   -0.1575900921    1.2871576480    0.2429056294
 C   -0.5967529414    0.1189797810   -0.2887501687
 O   -1.1910007353   -0.0124819720   -1.3277737520
 O   -0.2671780643   -0.8979612100    0.5751006184
 C   -0.6241741540   -2.1783417292    0.2846531791
 N   -0.2504785539   -3.1152801334    1.1487990804
 N   -0.7413691020   -4.2200504274    0.5967691320
 N   -1.3960055131   -4.0787035472   -0.5427431964
 C   -1.3404558167   -2.7659580923   -0.7768074222
 H   -0.2133544492    2.1076837184   -0.3331493471
 H    0.4436500268    1.2849129454    1.0477023102
 H   -0.6177216421   -5.1195797456    1.0309239490
 H   -1.7859002627   -2.3148812656   -1.6424033321