15

 O    1.2812795003    1.3114663772    0.9909550362
 C    0.3777577010    0.8397004591    0.0373270161
 C    1.0536669859    0.8207662247   -1.3639972065
 C    0.1413933713    0.4905218640   -2.4449983277
 C   -0.6391200116    0.2168113733   -3.3289658335
 C   -1.5133303029   -0.0924897574   -4.3247887213
 C   -2.2904893870   -0.3680025042   -5.2067994070
 C   -0.1222147941   -0.5418989305    0.4195916175
 O    0.2463195655   -1.0769208807    1.4376845808
 H    1.3343870193    0.6154791205    1.6666579997
 H   -0.5067859630    1.4962093035   -0.0295786911
 H    1.4831594303    1.8171466279   -1.5186377292
 H    1.8965158048    0.1189634839   -1.3379784983
 H   -2.9720740435   -0.6094964386   -5.9843985987
 H   -0.8309143762   -1.0258623026   -0.2782206070