20

 C   -0.0835390659    1.5820686616   -0.0009345111
 C    1.4131640802    1.2253144690    0.0357039415
 C    1.2146319785    0.0225232181    0.9917663917
 C    1.8910029433   -0.9212750022    0.0029997239
 C    1.2984240350   -2.3335246833   -0.0800450473
 C   -0.1485681553   -2.3045813801   -0.6265257911
 C   -0.9694085702   -1.1015698332   -0.0979358893
 C   -0.0123456642    0.0511820968    0.0252136817
 N    1.2083638656    0.0609359673   -0.9603008663
 H   -0.4970278732    2.0738914128    0.8837942827
 H   -0.4507315608    2.0352216419   -0.9264409221
 H    2.2832195605    1.8785340953   -0.0511894658
 H    1.1976920337    0.0162448103    2.0887172352
 H    2.9848823224   -0.9057470941   -0.0595255989
 H    1.9105513353   -2.9712161339   -0.7266317747
 H    1.3319916598   -2.7841443884    0.9210707106
 H   -0.0897096981   -2.2066099695   -1.7144899006
 H   -0.6601429416   -3.2488114263   -0.4176763209
 H   -1.7910285853   -0.8745437835   -0.7860388185
 H   -1.4170665996   -1.3141939085    0.8807789193