17

 C    0.0449517928    1.5545559544    0.3243813735
 C   -0.0279337399    0.0823108173   -0.1215047930
 C   -1.4137335487   -0.4777637139   -0.1220019027
 C   -2.2430417593   -0.8386804014   -1.1780992403
 C   -3.4827952058   -1.3018425230   -0.6302689125
 C   -3.3749564845   -1.2105402904    0.7299067655
 N   -2.1236886886   -0.7114832906    1.0209211423
 C   -1.8949357747   -0.7531863133   -2.5473135308
 N   -1.6030892305   -0.6809015601   -3.6671077379
 H    1.0787015231    1.9113245638    0.3006936962
 H   -0.5528675328    2.1899427691   -0.3349163959
 H   -0.3301721424    1.6858017434    1.3449470709
 H    0.3700963054   -0.0134500801   -1.1357700568
 H    0.6184370505   -0.5275279034    0.5236951507
 H   -4.3328565065   -1.6563727083   -1.1900480643
 H   -4.0709628116   -1.4574581118    1.5145775148
 H   -1.7718308264   -0.5486928216    1.9491923304