16

 C   -0.0275304519    1.4629013109    0.0574485208
 C    0.0049688031    0.0096406078    0.0338334627
 C    0.0248637837   -1.1958114984    0.0142309944
 C    0.0518617722   -2.6086156152   -0.0087182722
 C    1.1318105591   -3.4368153402   -0.0165148788
 O    0.6845390322   -4.7236449629   -0.0399234724
 C   -0.6742846901   -4.6189427965   -0.0454334358
 C   -1.4602556928   -5.8793024280   -0.0702153244
 N   -1.1059986187   -3.4005217249   -0.0278135207
 H    0.4797923673    1.8880415294   -0.8159638775
 H   -1.0590771224    1.8313439358    0.0545802472
 H    0.4644775513    1.8589665542    0.9530137653
 H    2.1969164942   -3.2864417635   -0.0083952605
 H   -1.2370276600   -6.4991424088    0.8041884696
 H   -2.5219646742   -5.6327659065   -0.0718128489
 H   -1.2276632129   -6.4702488932   -0.9620098287