13

 O   -0.0081980611   -0.0001573227   -0.0591260190
 C    0.0171606604    1.1882664262   -0.0131461333
 O   -1.1037606209    1.9837089355    0.0376859573
 C   -0.6346077990    3.3628124830    0.0508529622
 C    0.6073785527    3.3059343186   -0.8511577113
 C    1.1912917217    2.1804580450    0.0158800111
 O    1.1682902321    2.7603805430    1.3520521539
 C    0.0411500232    3.5457211713    1.4197112664
 O   -0.2709525564    4.1861965767    2.3723345656
 H   -1.4611792751    4.0300131502   -0.1687853865
 H    0.3759413484    3.0062922005   -1.8749319490
 H    1.2133050953    4.2136922381   -0.8341051567
 H    2.1738484086    1.7665486445   -0.1838176306