21

 C    0.0073985924    1.3763076289   -0.3294635787
 C    0.0144111809   -0.0987956797    0.1118623832
 C    0.7387652667   -0.2783006406    1.4510823561
 C   -1.3832375931   -0.6521976043    0.1405082797
 C   -2.0991813985   -1.1649373143    1.1907298426
 N   -3.3268130993   -1.5191539542    0.6646197809
 C   -3.3095208929   -1.2131415235   -0.6664086314
 C   -4.4659499027   -1.4568443978   -1.5780858501
 N   -2.1527213791   -0.6901780860   -1.0083830246
 H    1.0291668297    1.7517794168   -0.4515821020
 H   -0.5222997347    1.4881248410   -1.2783708183
 H   -0.4975725301    2.0007879469    0.4164554308
 H    0.5668880781   -0.6623348090   -0.6532028057
 H    0.2335058034    0.2781773491    2.2492665308
 H    0.7813485890   -1.3313144757    1.7475877152
 H    1.7650383260    0.0961872348    1.3877563452
 H   -1.8658209979   -1.3134846537    2.2313005965
 H   -4.0909701381   -1.9315943466    1.1724742793
 H   -5.3592237243   -0.9044252798   -1.2637231024
 H   -4.1928851144   -1.1264794211   -2.5809019854
 H   -4.7341909110   -2.5188076612   -1.6253514516