18

 C   -0.0113369692    1.5683898100    0.0267686996
 C    1.5018807214    1.8473272493   -0.0221072963
 O    2.0036533197    1.4802782793   -1.3138670659
 C    1.9735041628    0.0471923053   -1.3363794409
 C    0.5104046728   -0.4230423372   -1.4271710770
 C    0.0067836190    0.0287254110   -0.0422763408
 N    1.1131831567   -0.3728493573    0.9047743468
 C    2.0478985103    0.7810121952    0.9388477383
 C    2.3534081355   -0.3850592529    0.0874984418
 H   -0.4357364210    1.9088769334    0.9774303924
 H   -0.5521608666    2.0418690617   -0.7964711591
 H    1.8015433704    2.8751016077    0.1846535170
 H    2.6331025681   -0.2988593635   -2.1326490749
 H   -0.0258008562    0.0327955431   -2.2632885697
 H    0.4608372543   -1.5132414001   -1.5210470015
 H   -0.9254057024   -0.4431647970    0.2695475858
 H    2.5351870419    1.0217074918    1.8771262290
 H    3.1017890324   -1.1408886099    0.2982094255