19

 C   -0.0374469606    1.5240047476   -0.0037925216
 C   -0.0356909941    0.0185671689   -0.0839553553
 C    0.8990784713   -0.6864177962   -1.0584387352
 N    0.4205913151   -2.0700887026   -1.2206090528
 C    0.2053150203   -2.7722082833    0.0538422499
 C    0.4599974597   -1.9693338621    1.3151984031
 N   -0.2818677085   -0.7031847650    1.1802707516
 C   -1.2441543026   -0.8519487394    0.0610731149
 C   -0.9477362422   -2.1465229616   -0.6585036965
 H    0.9439596932    1.9002303849    0.3070548039
 H   -0.2771123169    1.9697282501   -0.9753972966
 H   -0.7718844644    1.8646733106    0.7298372706
 H    0.8752265733   -0.1913633078   -2.0359344118
 H    1.9420908626   -0.6883749661   -0.7188389728
 H    0.4114849725   -3.8396495059    0.0364712041
 H    0.0861241159   -2.5053095078    2.1949619464
 H    1.5233061036   -1.7622260516    1.4850685569
 H   -2.2567710540   -0.4904592773    0.1999750476
 H   -1.7061582544   -2.6845953254   -1.2146102066