19

 C    0.0672264163    1.5821605778    0.0191421885
 C    0.0318335141    0.0377853907    0.0437057111
 C    0.8251996404   -0.5053192246    1.2553954315
 N   -1.3704789786   -0.4364503658    0.0591794331
 C   -2.2364368302   -0.1987875057    1.1010066292
 N   -3.4394176901   -0.8920502872    0.9900396460
 O   -1.9917598617    0.5257689854    2.0507149828
 C    0.6231904684   -0.4827717262   -1.1964324896
 C    1.1110130120   -0.9184028130   -2.2046187240
 H    1.1025226364    1.9280859642   -0.0358617153
 H   -0.4733919800    1.9577914411   -0.8528766392
 H   -0.3989227089    1.9681987404    0.9259894567
 H    0.3646458491   -0.1445522768    2.1759827037
 H    0.8213464541   -1.5985724956    1.2541511239
 H    1.8627154048   -0.1639474274    1.2080306074
 H   -1.5512385457   -1.2425732860   -0.5176243832
 H   -3.7935125436   -1.0662219653    0.0609907740
 H   -4.1360747056   -0.5400023525    1.6296032647
 H    1.5500685890   -1.2948682936   -3.0955631513