20

 C    0.1833066340    1.2820631031    0.3443484498
 O    0.0392061366   -0.0982591442    0.1034828237
 C    0.5008455107   -0.5343823231   -1.1679722020
 C    2.0282351134   -0.5342775979   -1.2829855565
 C   -0.0929330474   -1.9230659373   -1.3811185860
 C    0.2310811079   -2.9763341740   -0.3467383318
 C   -1.3117472109   -2.0391236325   -2.1922276762
 O   -0.0287252188   -2.3503435917   -2.7491319322
 H    1.2350521759    1.5920196118    0.4241838044
 H   -0.2939410345    1.8832128979   -0.4457103343
 H   -0.3124098101    1.4951491794    1.2948309521
 H    0.0922168052    0.1226969971   -1.9530440099
 H    2.3220171001   -0.9910740849   -2.2323018140
 H    2.4293882692    0.4825995806   -1.2612803113
 H    2.4828401554   -1.0971138736   -0.4627417221
 H   -0.0747491680   -2.6327061325    0.6447520957
 H   -0.2860921740   -3.9103079439   -0.5789414083
 H    1.3053676896   -3.1839658204   -0.3193464658
 H   -1.9745325794   -2.8913930527   -2.0481502404
 H   -1.7895269448   -1.1442050313   -2.5888499349