9

 O    0.0114807811   -0.0226584084    0.0028648289
 C   -0.0356291321    1.1758295797    0.0101034337
 N   -1.1235105939    2.0223140547    0.0290620129
 C   -0.7030196719    3.3515559387    0.0303489828
 C    0.6340859591    3.3171497633    0.0120491151
 O    1.0705054940    2.0105220715   -0.0007953265
 H   -2.0674369272    1.6800105450    0.0399178887
 H   -1.3885132683    4.1807762713    0.0439017986
 H    1.3882389191    4.0835849343    0.0057790258