18

 C   -0.2410601373    1.5579054662    0.0468095058
 C   -0.0225389482    0.0514566668   -0.0170266849
 C    1.1439834523   -0.4566513056   -0.9628103676
 N    1.7477321439   -1.0042776040    0.2700329137
 N    2.7342758078   -1.6889172192    0.8602274885
 N    2.3862014891   -1.7122078539    2.1301560758
 C    1.1955245434   -1.0605342008    2.3504510680
 C    0.6043832905   -0.9627491300    3.7177376749
 C    0.7873344642   -0.6002049199    1.1125900591
 H    0.6993955894    2.0852141175    0.2342890004
 H   -0.6648767917    1.9300001165   -0.8915171704
 H   -0.9359706643    1.8123717515    0.8528247888
 H   -0.9642076366   -0.4661687790   -0.2218723584
 H    0.8759781036   -1.2212380972   -1.6945399613
 H    1.7444588874    0.3273321914   -1.4295307301
 H    0.5277909069    0.0761387289    4.0567509978
 H   -0.4008981332   -1.3956664949    3.7590993996
 H    1.2395758424   -1.5044316241    4.4216907703