16

 N    0.2575897048   -0.0358186807   -1.5242555593
 C    0.0893200666    0.5845847119   -0.5644570013
 C   -0.1320402516    1.3603174097    0.6699149907
 O    1.0210925822    2.0526964016    1.1107192706
 C    1.3204695304    3.1947961119    0.3888194356
 C    1.9769182085    3.2019926404   -0.9767441187
 C    2.6454483127    3.8723604731    0.1939145550
 O    2.0918616144    5.1718532258    0.4200736592
 C    0.7948180449    4.5918477820    0.7270684578
 H   -0.9799011005    2.0396426543    0.5099800296
 H   -0.4026638559    0.6671414093    1.4714587167
 H    2.4116466289    2.2481457157   -1.2566281372
 H    1.5793096645    3.7972537415   -1.7940092688
 H    3.6450953324    3.6647616435    0.5546580751
 H   -0.0082238329    5.0142831946    0.1127452820
 H    0.5618828508    4.7050263955    1.7919289229