18

 C   -0.0380935819    1.4506083846    0.0259955311
 N   -0.0242690476   -0.0012544377    0.0319111238
 C    0.5412419737   -0.6164383832   -0.9499587393
 C    0.5866577449   -2.0648076676   -0.9963775718
 C    1.1862419212   -2.6946176166   -2.0291888801
 N    1.7749580373   -1.9965430868   -3.0532173496
 C    2.3294458390   -2.6592250617   -4.2217803068
 N    1.7637518349   -0.6516757422   -3.0954728534
 C    1.1977589138   -0.0108052844   -2.1182272252
 H    0.9716858643    1.8915103270    0.0257967058
 H   -0.5754895645    1.8723663929   -0.8384724230
 H   -0.5461611136    1.8049865717    0.9273150660
 H    0.1373392111   -2.6275090542   -0.1881054750
 H    1.2477992950   -3.7733159545   -2.1119493888
 H    1.5559166214   -2.8752563126   -4.9687632563
 H    3.0742483193   -1.9989403138   -4.6652937731
 H    2.8057294184   -3.5961500436   -3.9228605545
 H    1.2387878233    1.0682228527   -2.2159970498