14

 C   -0.0699849050    1.6005807057    0.0338876476
 C    0.0529582424    0.0781583976   -0.0266315521
 N    0.9061079388   -0.4222731310   -1.0917009197
 C    1.8826665720   -1.2802878299   -0.6547174797
 O    2.6781799024   -1.9114339988   -1.3042197116
 N    1.7793492977   -1.2730065318    0.7520167778
 C    0.7479629688   -0.4927698954    1.2240609050
 O    0.4482145637   -0.2874363600    2.3731369573
 H    0.9188219498    2.0663497562    0.0646619361
 H   -0.6073356848    1.9826575246   -0.8387074748
 H   -0.6200053886    1.8816290193    0.9353840700
 H   -0.9502842550   -0.3690363847   -0.0750107697
 H    0.6699163351   -0.3951086155   -2.0689796255
 H    2.4235078628   -1.7804997363    1.3376594593