15

 C    0.0734027487    1.3719889665    0.2781089226
 N   -0.0092568657   -0.0656711265    0.1025754353
 C   -0.0257450400   -0.7730012175   -1.0682383235
 N   -0.1124842133   -2.0673270854   -0.8723633959
 C   -0.1666923849   -2.2329848448    0.4923718734
 C   -0.1013573259   -1.0080835111    1.1003930177
 O   -0.1390808488   -0.5951447365    2.4022162881
 C    0.7656417446   -1.1566034943    3.2677832937
 O    0.7483735192   -0.9158383228    4.4310080010
 H    0.9808368482    1.6484089697    0.8222881849
 H    0.0959657781    1.8401534897   -0.7069809002
 H   -0.7928095169    1.7446384417    0.8306959385
 H    0.0219445539   -0.2763225896   -2.0263436140
 H   -0.2641511593   -3.2033643885    0.9534223706
 H    1.4660498719   -1.8295440606    2.7437712479