22

 C   -0.2155321736    1.6608560841    0.0496773618
 C   -0.5215698144    0.2139805729    0.4404265117
 C    0.5757796166   -0.5050679448    1.2060558917
 C    0.2685737056   -1.9517638070    1.5616792304
 N    0.0907605469   -2.7642816680    0.3628589236
 C    1.2709358534   -3.4608326557   -0.1386753233
 C    0.1767492668   -4.2079862908    0.5409360996
 C    1.9846226936   -0.0828273206    1.1549080605
 O    1.1706255468    0.2229935240    2.2915458115
 H    0.5595742509    1.7191256612   -0.7210525517
 H   -1.1104404660    2.1452183403   -0.3512943694
 H    0.1209787785    2.2338127107    0.9184908635
 H   -1.4204582862    0.1903807732    1.0719206926
 H   -0.7590881807   -0.3890888624   -0.4422159065
 H    1.0668747247   -2.3316155133    2.2223520682
 H   -0.6690616539   -1.9861233681    2.1309469499
 H    1.3786924661   -3.4972923872   -1.2188546955
 H    2.2046724588   -3.3440292346    0.4092964091
 H    0.3827744090   -4.5870742219    1.5409682655
 H   -0.5309747921   -4.7992683259   -0.0331504055
 H    2.7733943789   -0.8137124397    1.3315532051
 H    2.2805593800    0.7733180037    0.5533787671