17

 C    0.0337623355    1.5015624153    0.0849604188
 C    0.0166830588    0.0049215201   -0.0530672644
 C    0.6601838351   -0.7110600042   -1.2483854818
 C    0.2819723689   -2.0819600095   -0.6661058238
 C    0.9068631754   -1.9907401943    0.7282273855
 O    0.6838575038   -0.6149926724    1.0803985614
 O   -1.1519690163   -1.9571008327   -0.4724429208
 C   -1.3753266230   -0.6600968106   -0.0778831175
 O   -2.4520000434   -0.2293076336    0.2039575713
 H    1.0615851939    1.8643475237    0.1649081930
 H   -0.4440353924    1.9682390241   -0.7803882414
 H   -0.5190543151    1.7993741484    0.9791730236
 H    0.1696606025   -0.5107011452   -2.2030622203
 H    1.7357262435   -0.5373944126   -1.3208551305
 H    0.4802000035   -2.9822279467   -1.2430916650
 H    0.4028293635   -2.6511257778    1.4410101636
 H    1.9812034858   -2.2105319919    0.7223014584