21

 C    0.0003841949    1.3979727540   -0.0600138970
 O    0.1223166425   -0.0027153434   -0.0633328339
 C    0.5622263600   -0.5216293080    1.1746729741
 C    0.6728438157   -2.0286774783    1.0512742650
 C    1.8015085219   -2.6541032692    0.1617613188
 C    2.2527632132   -3.5053586032    1.3557883004
 C    2.6751731052   -2.5975171486    2.4890233435
 C    1.2097151479   -2.8375526592    2.2412638065
 O    0.3933310851   -3.4413506167    3.1840349420
 H    0.9618363462    1.8933798525    0.1519926137
 H   -0.3402814070    1.7012395929   -1.0532207365
 H   -0.7320848076    1.7442041064    0.6872187602
 H    1.5344068288   -0.0764242495    1.4485958169
 H   -0.1503364469   -0.2565372552    1.9770319874
 H   -0.2993562111   -2.4306711731    0.7520820450
 H    1.4065990455   -3.2312020285   -0.6758274847
 H    2.5464536437   -1.9480001256   -0.2192853079
 H    2.5519040684   -4.5453065506    1.3226042608
 H    3.0538322306   -3.1181085187    3.3633282475
 H    3.1563257189   -1.6424888965    2.2884164904
 H    0.3517479342   -2.8738410316    3.9609803681