16

 C    0.4241516974    1.4152764041   -0.0904162462
 C   -0.1405127755    0.0147682463   -0.0183334401
 C   -1.6145556145   -0.0992931410    0.3848548421
 C   -1.7946775714    0.3011523541    1.8357752829
 O   -2.0432373521    1.4199888248    2.2097347275
 C   -1.6178000012   -0.7854674732    2.8213227697
 N   -1.5174416324   -1.6362996245    3.5978905432
 C    0.4573420585   -1.0742837039   -0.8049678125
 O    0.7022044738   -0.9654839734    0.5999149479
 H    0.2771165183    1.9496047015    0.8526496017
 H    1.4947686897    1.3749837019   -0.3024834689
 H   -0.0702789953    1.9910357419   -0.8797064114
 H   -2.2205496972    0.5788121464   -0.2228243087
 H   -1.9555531200   -1.1276132472    0.2405407275
 H   -0.1512002903   -1.9241053741   -1.1110274708
 H    1.3131462220   -0.8621381439   -1.4440073641