18

 C    0.0488831251    1.4297346261   -0.0716384349
 N   -0.0346593554   -0.0217497548    0.0888125017
 C    0.8074231101   -0.5267313139    1.1729174794
 C   -1.3318236927   -0.5572228259    0.0374062926
 C   -1.8609667825   -1.3796912747   -0.9388706256
 O   -1.2240576145   -1.8338394531   -2.0474439512
 C   -3.1860445386   -1.6415750492   -0.5405621130
 N   -3.4720420002   -1.0258755277    0.6089881399
 N   -2.3484416800   -0.3764362631    0.9454806097
 H    1.0877773401    1.7147782160   -0.2685346342
 H   -0.5641937362    1.7383403760   -0.9211173921
 H   -0.2881772447    1.9866745455    0.8198824932
 H    0.5308081046   -0.1244381484    2.1630047923
 H    0.7359748395   -1.6157807531    1.2127960695
 H    1.8501134470   -0.2516571658    0.9819991934
 H   -0.3296987371   -1.4671464583   -2.0134301905
 H   -3.9307165348   -2.2444094658   -1.0371185878
 H   -2.3342137496    0.1646859500    1.7927461576