16

 O    0.1025602101   -0.0124416395    0.0354858414
 C   -0.0159196700    1.1755369571   -0.0230235997
 C   -1.1935989233    2.1835691024    0.0714627823
 C   -0.0891808652    3.2129832952    0.3259811029
 C    0.1543010496    4.6543442706   -0.0979811188
 O    1.0300933482    4.8614741085    1.0434529316
 C    0.7376834315    3.5653935962    1.5988980854
 C    1.7660297955    2.4739573305    1.1896024591
 N    0.9588741134    2.2075870433   -0.0531264929
 H   -1.7492635746    2.3377869814   -0.8577228036
 H   -1.8967701307    1.9780922828    0.8804070616
 H    0.6647176134    4.7978580697   -1.0564082884
 H   -0.7265710321    5.3065344827   -0.0412443994
 H    0.3901594135    3.6152540110    2.6338243828
 H    2.7674904319    2.8553582891    0.9824320603
 H    1.8230130987    1.5995212289    1.8445051053