19

 N   -0.0096450062    1.4036048316    0.1595300231
 C    0.0094923544   -0.0018167284    0.0401962969
 C   -1.0862539936   -0.8472316199   -0.0004582576
 N   -0.5948134811   -2.1334810049   -0.0716789256
 C   -1.1726917050   -3.4613614445   -0.0040321283
 C    0.0282130561   -4.3501403524   -0.4105413413
 C    1.2921124367   -3.5250458568   -0.0339138491
 C    0.7692729360   -2.1203579099   -0.0545896138
 C    1.1889011061   -0.8088557580    0.0114541841
 H    0.7515334485    1.8358859629   -0.3493927981
 H   -0.8800357885    1.8043725051   -0.1671517526
 H   -2.1432505375   -0.6368583476   -0.0127579852
 H   -1.5238821057   -3.6868884121    1.0128076021
 H   -2.0253868416   -3.5651227041   -0.6828255865
 H   -0.0022819832   -5.3286967971    0.0735198022
 H    0.0063443386   -4.5125931439   -1.4920043098
 H    1.6593977956   -3.8018076400    0.9636491529
 H    2.1163636103   -3.6968709959   -0.7326008042
 H    2.2079389002   -0.4530748942    0.0349338907