17

 C   -0.2332312633    1.3988635696    0.2657437858
 C   -0.0151407670   -0.0611284531   -0.0512150967
 C    0.7131022206   -0.5684583921   -1.2458110750
 C    1.5676322764    0.3481603756   -2.1037290500
 C    2.7108801076    0.7619514937   -1.1753810613
 O    3.6483331924    1.4737386499   -1.4191152648
 C    2.4252651844    0.1432020813    0.1939999572
 N    3.0736798571    0.3821973093    1.2560272191
 N    1.3120263426   -0.7174711181    0.1138541488
 H    0.4892930057    2.0623966702   -0.2156183988
 H   -1.2335932727    1.6982184178   -0.0625568669
 H   -0.1669835616    1.5669151272    1.3452086625
 H   -0.8081885349   -0.7055548402    0.3225675163
 H    0.3828408864   -1.5021436924   -1.6911756777
 H    1.9745996919   -0.1773651187   -2.9730590971
 H    1.0504690544    1.2358819895   -2.4813130755
 H    3.8454542400    1.0143699605    1.0156149140