17

 C   -0.2421950307    1.5806167034    0.3305557601
 C   -0.1619725112    0.0812973341    0.2149582056
 N    1.0215869097   -0.4931387428   -0.3887109935
 C    0.8089739042   -0.7424894475    1.0525344188
 C    1.7107730671   -0.0824310366    1.9633437914
 N    2.4109032252    0.4318199544    2.7267873658
 C    0.3101113899   -2.1274769025    1.4251073419
 C    0.4380885765   -2.5640436560    2.8613552150
 O   -0.1731066880   -2.8197133392    0.5563913600
 H    0.7376938673    2.0115480834    0.5453178257
 H   -0.6026376609    2.0009140595   -0.6139612826
 H   -0.9393455567    1.8734942197    1.1213847784
 H   -1.1019960696   -0.4381622733    0.0355096492
 H    0.7752330536   -1.3682111873   -0.8560867749
 H    1.4964762456   -2.6357353021    3.1354166860
 H   -0.0054323598   -1.8206385565    3.5321866240
 H   -0.0452923220   -3.5317639805    2.9940828092