20

 C   -0.3189772095    1.5047586323   -0.0985505531
 C    0.1424499534    0.0478626985    0.0415474070
 C    0.8268672693   -0.4838677984   -1.1972338055
 C    0.0432349910   -1.0565392485   -2.3421297195
 C    0.9520078420   -1.9589198580   -1.5220852504
 C    2.3095008775   -2.1533199086   -2.0875268856
 N    2.8650656965   -3.2591624460   -2.3397917038
 O    2.8857104531   -0.9242236106   -2.3055365883
 C    2.1720287850    0.1066745070   -1.6032945317
 H    0.5262811805    2.1784580692   -0.2759307690
 H   -1.0157344057    1.6181966686   -0.9354002822
 H   -0.8244698533    1.8436633210    0.8104781293
 H    0.8234803185   -0.0419282557    0.8982598757
 H   -0.7210830739   -0.5884297406    0.2684020473
 H   -1.0222194811   -1.1953596403   -2.1937788791
 H    0.3342286202   -0.8244250585   -3.3618450935
 H    0.5279565430   -2.7477584137   -0.9162703191
 H    3.8138687724   -3.1080663289   -2.6867317342
 H    2.0932403137    0.9705883407   -2.2708585768
 H    2.7515822375    0.4002448805   -0.7177276775