16

 C    0.2919191728    1.5470198991   -0.0555460553
 O    1.2952323326    0.5299812184    0.0864076452
 C   -0.0575976317    0.1260768504   -0.0136451428
 C   -0.7452494760   -0.7171789008    1.0729177522
 C   -1.3479587679   -1.5931016041   -0.0524263402
 O   -2.6072665316   -1.0905256422   -0.5451107794
 C   -1.9657710213   -0.4207307149   -1.6559101918
 C   -0.5654571507   -0.7889935388   -1.1369758728
 H    0.1316144312    2.1698648170    0.8235993830
 H    0.2992810680    2.0791718954   -1.0063712789
 H   -0.0113773046   -1.2496519826    1.6859095643
 H   -1.4742607114   -0.2205649899    1.7169318840
 H   -1.3446580015   -2.6788779186    0.0645892320
 H   -2.2312888269   -0.8930864189   -2.6100149734
 H   -2.2126442634    0.6470438307   -1.7017847492
 H    0.1754951024   -1.1954477102   -1.8233780268