20

 C   -0.8207980286    0.8649539563   -1.8356574353
 O   -0.8859788572   -0.4836561449   -1.3542790803
 C   -1.0096167930   -0.6131984143   -0.0178424929
 O   -1.0255621251    0.3189965310    0.7433864875
 C   -1.1242107862   -2.0887694781    0.3746070352
 C   -0.9496417174   -2.2616101086    1.8793388405
 N   -2.4515208392   -2.5573316272   -0.0372408372
 C   -2.5877935301   -3.0524041690   -1.4031533501
 C   -2.5827462215   -3.9968443733   -0.2537946957
 H   -0.7220955625    0.7899849924   -2.9186113088
 H   -1.7287595730    1.4123913960   -1.5704534143
 H    0.0395540668    1.3850656661   -1.4070654839
 H   -0.3273415852   -2.6325805784   -0.1647865682
 H   -1.0396266940   -3.3176714699    2.1482725530
 H    0.0320370378   -1.9027347163    2.1983243980
 H   -1.7126673528   -1.6924487030    2.4134093077
 H   -3.5165823043   -2.7942483123   -1.9034025060
 H   -1.7076864551   -3.0341966510   -2.0410867951
 H   -1.6952343992   -4.6148078790   -0.1247820686
 H   -3.5043405904   -4.4452854263    0.1053455844