18

 O   -0.1913433928    1.4716242026    0.1386871636
 C    0.0056501170    0.0731907476    0.0068889931
 C    0.6255810249   -0.5955431637    1.2594377471
 C   -0.0258551194   -1.6880747470    1.6880789549
 C   -1.0935587265   -2.0200079488    0.6756368082
 N   -2.6676028381   -1.8916186949    0.7116557226
 C   -2.3950181639   -0.4320735784    1.0999120505
 C   -1.3175695595   -0.6698228454    0.0143546055
 C   -2.4741466991   -1.3795593069   -0.7435785950
 H    0.6706024295    1.8979927802    0.1748935114
 H    0.6135482209   -0.1539134221   -0.8848465859
 H    1.5159009721   -0.1804701696    1.7239363984
 H    0.2636914261   -2.2943459865    2.5392816663
 H   -0.8128768475   -2.8744021148    0.0489870850
 H   -3.2188658306    0.2406128657    0.8505865725
 H   -2.0739259491   -0.3003962390    2.1330608904
 H   -2.2163497356   -2.1657399396   -1.4578764039
 H   -3.3191873286   -0.7798002794   -1.0893330948