14

 N    0.0231505610    1.4122151777   -0.2067652181
 C    1.3195007509    0.7535332002    0.0465985112
 C    0.0444825043   -0.0386443361    0.0495849692
 C    0.4290539805   -0.7256639054   -1.2852382061
 N   -0.2830641851   -0.3014965896   -2.4853407218
 C    0.4481260187    0.6001019856   -3.0005666560
 O    1.6618591478    0.9123110920   -2.4594948364
 C    1.7533001218    0.1049704273   -1.2767014246
 H   -0.2566998906    1.8721764749    0.6580215216
 H    1.9563391068    1.0610012675    0.8666453529
 H   -0.5031064697   -0.4705382460    0.8777692150
 H    0.5133635490   -1.8111122545   -1.2087321172
 H    0.2109972457    1.1660881249   -3.8944518186
 H    2.7126479088   -0.4124090786   -1.2577210810