15

 O   -0.0482561904    1.3675814108   -0.0463048896
 N    0.0616034711   -0.0285748526    0.0252322870
 C   -1.0743394317   -0.6017887566    0.0769840736
 C   -2.4294665382    0.0663084775    0.1180634400
 O   -3.2972837765   -0.6169460692    1.0159121913
 C   -3.3157907851   -1.9999552970    0.7879267771
 O   -2.0658418077   -2.5963699607    1.0082589293
 C   -1.1006121901   -2.1109034872    0.0837203767
 H    0.8729488918    1.6462833957   -0.0115879969
 H   -2.3451823975    1.0952892186    0.4655942160
 H   -2.8623496929    0.0775583513   -0.8977118243
 H   -4.0093648604   -2.4316471188    1.5113938706
 H   -3.6566736444   -2.2099490153   -0.2454690943
 H   -1.3471728313   -2.4742947965   -0.9301789068
 H   -0.1271899566   -2.5125750300    0.3682058602