12

 O   -0.1971934682   -0.0112382233    0.0045995189
 N   -0.0636424054    1.2176424964    0.0070854348
 O    1.0076287266    1.8143819053    0.0016550056
 C   -1.2539979068    1.9899073023    0.0170551326
 C   -1.4470982066    3.3571942881    0.0221156337
 C   -2.8444217766    3.5537665937    0.0317967149
 C   -3.4459661058    2.3037130567    0.0323576572
 N   -2.4679093043    1.3606103490    0.0233611676
 H   -0.6648708169    4.0976034651    0.0190004415
 H   -3.3618454632    4.5000724817    0.0377614769
 H   -4.4875493918    2.0250604373    0.0384361606
 H   -2.5560076710    0.3570346678    0.0212511758