17

 C   -0.4314620688    1.5572157014   -0.1360705943
 C    0.1018802740    0.1243169289    0.0440828310
 C    0.8123657102   -0.4104196957   -1.1544235460
 C    2.1401447602   -0.7318894783   -1.3704802554
 N    2.3291357546   -1.1860106419   -2.6686283541
 C    1.1465561931   -1.1395653670   -3.2224118383
 N    0.1947224274   -0.6784517451   -2.3547122570
 C    3.1924170291   -0.6299739495   -0.4287020201
 C    4.0731706943   -0.5369287390    0.3877916427
 H    0.3847471852    2.2500579023   -0.3590977897
 H   -1.1540282412    1.6185696054   -0.9570842976
 H   -0.9337423771    1.8985377170    0.7739767911
 H    0.8086287437    0.0964032047    0.8785263622
 H   -0.7277658099   -0.5419142310    0.3173959914
 H    0.9103236693   -1.4231380676   -4.2373486046
 H   -0.7855946679   -0.5610136147   -2.5511610424
 H    4.8579645239   -0.4594410802    1.0982614312