9

 N   -0.0315649628    1.3495933025    0.0088311047
 C    0.0603529957   -0.0056989088    0.0013636042
 O    1.0997790442   -0.6308701096   -0.0114150846
 C   -1.2349091378   -0.6883678058    0.0100478056
 C   -2.2579731231   -1.3315558708    0.0163960231
 C   -3.4233633998   -2.0428875315    0.0237328774
 N   -4.4184801804   -2.6415694386    0.0300227143
 H    0.8206733465    1.8867453778    0.0033136314
 H   -0.9178568825    1.8241356047    0.0191364839