18

 C   -0.1458617907    1.5662027896    0.0227488294
 C    0.0248637340    0.0549250789   -0.0280702394
 C    1.1735694097   -0.5790446679   -0.8719523574
 O    1.4095235498   -0.6218624747   -2.0429596537
 C    1.7421512445   -1.2729111704    0.3499975275
 N    1.9930783706   -0.1573657106    1.3322330165
 C    0.6287460835   -0.6945904248    1.1821502396
 C   -0.1287423307   -1.3003692708    2.3217231927
 O   -0.7652663619   -0.3193272360    3.1268352523
 H    0.7695184371    2.0428018812    0.3811766069
 H   -0.3709192630    1.9565081993   -0.9742157005
 H   -0.9677687292    1.8392495712    0.6915563351
 H   -0.9046990122   -0.4364410505   -0.3443417685
 H    2.2828416649   -2.2078288600    0.4331072772
 H    2.4226078339   -0.6081614727    2.1429394573
 H   -0.9358037505   -1.9359949637    1.9423491935
 H    0.5448229898   -1.9423917088    2.9145348374
 H   -0.0897273897    0.2932505807    3.4370663641