20

 O   -0.1442225391    1.2985021968   -0.7476520244
 C   -0.1328572560   -0.0290199665   -0.2520642213
 C   -1.5380296499   -0.5222787157    0.1181852414
 C   -2.4575138842   -0.6732611732   -1.1215168607
 C   -2.1275314064   -2.1923794660   -1.1419660909
 C   -1.5873027719   -2.0668698181    0.3093738507
 N   -2.0966625905    0.3119834546    1.1815595121
 C   -1.6724467544    0.2700557541    2.4735855086
 O   -0.7266883272   -0.3754825960    2.8756016710
 H   -0.4400004918    1.8628725316   -0.0253767219
 H    0.2686362521   -0.6517103642   -1.0578972236
 H    0.5212142838   -0.1368858733    0.6223925468
 H   -3.5088329380   -0.4939142448   -0.8733800869
 H   -2.1900650695   -0.0663261106   -1.9886055681
 H   -2.9654541215   -2.8734184472   -1.3004088181
 H   -1.3453569956   -2.4394261946   -1.8635893792
 H   -0.6422756715   -2.5566255220    0.5529217461
 H   -2.3300232132   -2.3519047211    1.0574878758
 H   -2.9538058611    0.8070194383    0.9882430021
 H   -2.2922906841    0.9101361279    3.1346203605