14

 O   -0.4199772846    0.1092014020    0.2855158342
 C   -0.1028791357    1.2572364589    0.1409381618
 N    1.1821043473    1.7423065928   -0.0405346832
 C    2.3644929245    1.0254200338   -0.0933403188
 N    2.5422021663   -0.2233927676    0.0100007708
 C    3.9902125179   -0.4303977176   -0.1202692226
 C    4.5869200158    0.9911508684   -0.3207488024
 O    3.4300458685    1.8581674822   -0.2852524596
 H   -0.8238733399    2.0992056891    0.1344910971
 H    1.2904382044    2.7394954629   -0.1479173361
 H    4.3815811514   -0.9208150048    0.7773030331
 H    4.2002444637   -1.0908522075   -0.9682123220
 H    5.2673382534    1.2983546799    0.4778748348
 H    5.0844824869    1.1265329676   -1.2847202771