19

 C    0.3943827815    0.4089866263    1.1412402494
 O   -0.0437930979   -0.0999761421   -0.1191856266
 C   -1.2258670786   -0.8615063175   -0.0580903112
 C   -2.4433992416   -0.1445532611    0.4970838179
 C   -2.7056141331    1.1435501828   -0.2601847294
 O   -2.7474610569    2.2330321291    0.2502181841
 C   -1.3551011925   -1.8216370382   -1.2218455097
 C   -0.9924077912   -2.3412761286    0.1528017733
 O    0.2993253950   -2.7863112192    0.4225010183
 H    1.3884742509    0.8289774488    0.9733631883
 H   -0.2663181464    1.2049206319    1.5038602548
 H    0.4581149182   -0.3861597276    1.8942411564
 H   -3.3145261078   -0.8015597285    0.3808763724
 H   -2.3399110983    0.0908083202    1.5602984942
 H   -2.8472181440    1.0145633201   -1.3566204712
 H   -2.3413682569   -2.0256834745   -1.6248304690
 H   -0.5580069780   -1.7892444149   -1.9571031876
 H   -1.7250621268   -2.9226017075    0.7031477106
 H    0.8965042745   -2.0981518798    0.1010797149