22

 C   -0.3381871468    1.5617231780   -0.3183693623
 C   -0.0076072196    0.0704797361   -0.1597834084
 C    0.8797997517   -0.5055263480   -1.2567459026
 C    2.2178674367    0.1881064240   -1.4433213494
 C    0.8131912165   -1.9886402392   -1.5901758834
 C   -0.0753840503   -2.9977059440   -0.8995532147
 N    0.2735064689   -0.9937403438   -2.4919337201
 C   -1.0061177054   -0.8935641896   -2.9772618643
 O   -1.6826760433   -1.8236198548   -3.3556588963
 H    0.5598773570    2.1849828194   -0.2850162792
 H   -0.8487850585    1.7618309677   -1.2659661139
 H   -0.9979631207    1.8910865972    0.4896830132
 H    0.5029019262   -0.0826967611    0.8000613327
 H   -0.9409497697   -0.4967988237   -0.1073057451
 H    2.7802877325    0.1960333593   -0.5031770983
 H    2.8146347634   -0.3249817890   -2.2009588164
 H    2.0885296444    1.2250773814   -1.7673040886
 H    1.7517043136   -2.4169477049   -1.9450858540
 H   -0.9962107562   -2.5585633096   -0.5138703457
 H   -0.3628632383   -3.7822270515   -1.6043000116
 H    0.4653354567   -3.4607463654   -0.0674994097
 H   -1.3334795388    0.1611211317   -3.0663365420