19

 C   -0.1849387757    1.5694975727    0.0484176729
 C    0.0788769056    0.0708532438    0.0143487563
 O   -1.1315072876   -0.6511192391   -0.2040488229
 C    1.2208287194   -0.4650252074   -0.9245111302
 C    1.8249305389   -1.2091346438    0.2705979161
 O    2.4139422918   -2.4567779555    0.2207238072
 C    2.2015568729   -0.2631479165    1.3506579082
 O    2.6744186190    1.0411867541    1.1373092289
 C    0.7452909452   -0.6004498177    1.2190419055
 H    0.7324521275    2.1214962725    0.2552132188
 H   -0.5851470043    1.9090277726   -0.9164609242
 H   -0.9235355623    1.8027660467    0.8218034674
 H   -1.5742993847   -0.2502961445   -0.9602994629
 H    0.7983387354   -1.1403831685   -1.6720405073
 H    1.8714729813    0.2688999524   -1.4093089289
 H    1.7760396369   -3.0748575583   -0.1542438824
 H    2.6598321266   -0.7713149563    2.2007225448
 H    3.5835414329    0.9773651199    0.8253851426
 H    0.1803337913   -1.0296438974    2.0383574802