14

 C   -0.3051448256    1.3150300206    0.2361863253
 O   -0.1502377806   -0.0993351118    0.1050820693
 C    0.5853123989   -0.5186885533   -1.0283172988
 C    2.0795668341   -0.0858135004   -0.8473039061
 O    2.7280607061    0.5061709878   -1.6562961015
 C    0.5867065837   -1.9799221363   -1.0583577741
 C    0.6773532742   -3.1765700952   -1.0758454929
 C    0.0340810950    0.0246058927   -2.2911469695
 N   -0.4184535669    0.4749850091   -3.2527830293
 H    0.6614947165    1.8319835901    0.2940254102
 H   -0.8829534132    1.7318499992   -0.5964729939
 H   -0.8482656131    1.4645101347    1.1698179505
 H    2.4561846141   -0.3981390923    0.1483349871
 H    0.7282683468   -4.2382330049   -1.0984439765