20

 C    0.4847075969    1.5599329664    0.5091360924
 C    2.0107695069    1.3539252592    0.5088825083
 C    1.6901707558    0.1038194734    1.3659188552
 O    0.2712270310    0.2747182627    1.1346336716
 C    2.3196106553   -1.2099310549    0.9735550651
 C    1.7392002135   -2.5660730445    0.9616758935
 C    0.3008685662   -2.6263683438    0.4450062939
 C    0.8209914099   -1.9002924914   -0.8170989642
 N    2.2535414604   -1.9098357154   -0.3257506827
 H    0.1302689433    2.3798640411    1.1467598954
 H   -0.0099179867    1.6277561465   -0.4660107429
 H    2.4256317113    1.1042591451   -0.4690958156
 H    2.6166932069    2.1299078486    0.9778607098
 H    1.9131569134    0.2596147991    2.4332059034
 H    3.3606179787   -1.2031549956    1.3044530510
 H    2.2637576777   -3.4030852559    1.4148889511
 H   -0.0194379855   -3.6492243760    0.2377488242
 H   -0.4559424438   -2.1205919817    1.0442207801
 H    0.7670393415   -2.5078971808   -1.7228799338
 H    0.4153858874   -0.9100185222   -1.0250186658