16

 C   -0.0135198013    1.5354877085    0.0528959571
 C    0.0082995713    0.0355895537    0.0089536784
 C   -1.2544099475   -0.8455165638   -0.0823595895
 C   -0.6265590553   -1.7542734894    0.9977236546
 O   -1.0684707446   -2.6400034025    1.6749216997
 C    0.6492834405   -0.9742720730    1.0491367041
 C    1.1853797391   -0.7731914538   -0.3643862246
 O    1.0818242498   -1.7427882642   -1.3629462022
 H    0.9749986038    1.9434470905    0.2858144089
 H   -0.3230891784    1.9453666589   -0.9156307295
 H   -0.7177261123    1.9001690320    0.8082197662
 H   -2.1514722959   -0.3569787976    0.3097490831
 H   -1.4681580253   -1.2949144704   -1.0534573020
 H    1.2754824291   -0.8117320697    1.9192106428
 H    2.1293009912   -0.2241347788   -0.3682317991
 H    1.6388261259   -2.4899911007   -1.1196442078