18

 C    0.5770980759    1.4717257840   -0.1504772182
 C   -0.1034515625    0.1159051444    0.0605180052
 C    0.1183998740   -0.8758578615   -1.1160529214
 C    1.2517320891   -1.7642180678   -0.6418712189
 C    1.8019284035   -2.9370290032   -1.3203069952
 O    2.5234986810   -1.7035889614   -1.2997195290
 C    1.3136836394   -1.6385258633    0.8731288640
 O    1.9854199761   -2.2995017393    1.6333163022
 N    0.4593477021   -0.6201408534    1.1918669700
 H    1.6395759312    1.3393132430   -0.3783950203
 H    0.1081958013    2.0101629680   -0.9804815614
 H    0.4946194497    2.0963711278    0.7450856060
 H   -1.1748446449    0.2737298713    0.2270733464
 H   -0.7853819920   -1.4708728131   -1.2787008746
 H    0.3679197914   -0.3659412626   -2.0484287965
 H    2.2310068151   -3.7323049400   -0.7140242255
 H    1.3984742100   -3.2285916127   -2.2894067108
 H    0.4207030798   -0.2724276700    2.1378048678