17

 C   -0.5064866012    1.4518682619    0.0138290224
 C    0.1550635388    0.0887558927    0.0257818902
 C    1.0137238025   -0.2471699399   -1.2504849542
 C    2.2834320306   -0.7439100753   -0.6191558592
 C    2.1813139028   -0.5246948038    0.7257393994
 N    3.3182645048   -0.9097795861    1.3254429571
 N    4.2084994834   -1.3945316065    0.3977479536
 C    3.5762539629   -1.2852377296   -0.7725277385
 O    1.0514789088    0.0204260082    1.2036263859
 H    0.2403443254    2.2398770660   -0.1228066588
 H   -1.2248149892    1.5097714757   -0.8103194793
 H   -1.0405770544    1.6361072307    0.9498715110
 H   -0.5904635935   -0.6974115099    0.1872051617
 H    0.4936043074   -0.9815412803   -1.8737401233
 H    1.1603971287    0.6513308511   -1.8640616233
 H    3.5715978792   -0.8953376830    2.2974305113
 H    4.0860735328   -1.6078193820   -1.6689490559