15

 C   -0.0555264566    1.5666317909    0.1172210328
 C   -0.0143238971    0.0399723103    0.0216862231
 O    0.7022881280   -0.4238410046    1.1483508030
 C   -1.3873124668   -0.5137418603    0.0172964805
 N   -2.4419190140   -0.9839912052    0.0487422052
 C    0.6935027385   -0.4508381116   -1.2917000224
 O    0.0163698916   -0.0676480219   -2.4624871790
 C    2.1012753972   -0.0122226191   -1.2951125469
 N    3.1904683641    0.3691959610   -1.3449546922
 H    0.9660127962    1.9543692139    0.1290690350
 H   -0.6065223213    1.9951444721   -0.7230306257
 H   -0.5538812472    1.8593083543    1.0427122037
 H    0.6084117427   -1.3813837281    1.2190037932
 H    0.6778346339   -1.5468186874   -1.2816190414
 H    0.2061620607    0.8587766558   -2.6495506789