11

 O   -0.0727301742   -0.0431394552    0.0003032178
 C   -0.0345431197    1.1563572510    0.0091600383
 N    1.1495125392    1.8972402034    0.0024144315
 C    1.2700117282    3.2850840174    0.0118502771
 C    2.6064180295    3.5326587344   -0.0003608717
 N    3.3287899596    2.3455514087   -0.0171202563
 C    2.4403434077    1.3945447991   -0.0149882985
 H   -0.9264890316    1.8075470154    0.0235036417
 H    0.4041515915    3.9257666013    0.0259100985
 H    3.1061404227    4.4889037576    0.0017054667
 H    2.6203763073    0.3314804870   -0.0250447552