21

 C   -0.1213903152    1.6141598174   -0.1706549156
 C   -0.1052192279    0.1111563229   -0.0131252137
 C   -1.3840352931   -0.5311104141    0.4766145562
 O   -1.8202524055    0.1274163266    1.6473073469
 C   -3.0016342486   -0.4229079409    2.2026585884
 C   -3.4173745822    0.4856376409    3.3481990454
 O   -3.6860307385    1.7982218788    2.8968959698
 C    0.8116393807   -0.7148901994   -0.8118095584
 O    1.0950221900   -0.4306267443    0.5582495646
 H    0.8403684120    1.9679626431   -0.5489099678
 H   -0.9085529822    1.9249689914   -0.8660754725
 H   -0.3130770109    2.0917152583    0.7934964006
 H   -2.1588041665   -0.4657469856   -0.3073122420
 H   -1.1967397248   -1.5964386263    0.6785154485
 H   -3.7991206344   -0.4571079674    1.4427958048
 H   -2.8231285047   -1.4496845278    2.5615026361
 H   -4.3370368354    0.1051852574    3.8045372622
 H   -2.6284565207    0.4756262485    4.1168254714
 H   -2.9192451462    2.0565754722    2.3727282632
 H    0.5635593619   -1.7528254913   -1.0336106160
 H    1.4640281621   -0.2330801604   -1.5390983520