11

 O   -0.1136791316    1.2930002678    0.0100520069
 C    0.0445020606   -0.0256685432    0.0024833100
 N    1.1902964971   -0.5872183795   -0.0068309447
 C    1.2632672285   -1.9976490370   -0.0144736569
 O    2.3236135034   -2.5795267667   -0.0233877470
 C   -0.0413606806   -2.6868870263   -0.0107131037
 C   -1.1694084458   -1.9766116153   -0.0007653778
 O   -1.1699282376   -0.6078519149    0.0062674789
 H    0.7786820899    1.6686942736    0.0069538214
 H   -0.0632555403   -3.7682194761   -0.0161396857
 H   -2.1802046737   -2.3616527224    0.0029068786