17

 C   -0.2187644728    0.9171539944    0.3807434999
 C    0.9659602701    1.1948276254   -0.5617384833
 C    1.8096314990    0.4641198164    0.5197684356
 O    0.6075859311    0.1059752603    1.2511614541
 C    2.5852373290   -0.7480222153    0.1365425247
 N    3.8180961619   -0.7911313808   -0.3213686039
 C    4.0675575768   -2.1234525398   -0.5600597785
 C    2.9770560045   -2.8872677596   -0.2334671445
 N    2.0294948577   -1.9896030846    0.2027039637
 H   -0.6083002253    1.7974404509    0.9062654559
 H   -1.0595605115    0.3472367808   -0.0293146778
 H    0.9240638782    0.6647260727   -1.5137539716
 H    1.2204918051    2.2401613808   -0.7364515423
 H    2.4501077551    1.1431161555    1.0952196202
 H    5.0183804277   -2.4565393413   -0.9476991017
 H    2.7918791968   -3.9479619634   -0.2604674386
 H    1.1186993866   -2.1758390225    0.5892103280