21

 C    0.0440011018    1.5194349328    0.0652832707
 C   -0.0623694733   -0.0131208231    0.0484450722
 C    0.4965170479   -0.5952473067    1.3541891532
 C   -1.5150374863   -0.4866548511   -0.2062398187
 C   -2.1294919037    0.0734591506   -1.4958145708
 N   -1.5927453199   -1.9475870361   -0.2280117982
 C   -2.3015811721   -2.6835279225    0.6681976442
 O   -2.9245705368   -2.2405113972    1.6105513409
 H    1.0646017954    1.8271984117    0.3133462788
 H   -0.2086874216    1.9679801610   -0.8987800164
 H   -0.6222499344    1.9488047192    0.8231557347
 H    0.5535194774   -0.3853972197   -0.7855239317
 H    0.4744004550   -1.6875342400    1.3540846471
 H    1.5332705960   -0.2778752983    1.5042136232
 H   -0.0876865305   -0.2514880460    2.2152203416
 H   -2.1336399806   -0.1895188793    0.6465913289
 H   -1.5175209471   -0.1831170970   -2.3696727989
 H   -3.1290565065   -0.3426784735   -1.6472810061
 H   -2.2193564602    1.1613661374   -1.4593917804
 H   -1.1361038646   -2.4381187837   -0.9821232355
 H   -2.2457684059   -3.7674177382    0.4401447314