21

 C    0.2778521625    1.7219152536    0.0976308786
 C    1.4475815946    1.7251318607   -0.9063935825
 C    2.7504251789    1.0666655938   -0.4924989028
 O    3.6112776612    1.7581669611    0.4225874128
 C    3.1237598477    0.4698909907    0.8068404697
 C    2.2907633465    0.3994878665    2.0698503368
 C    1.2557930320   -0.7330577240    2.0755485371
 C    0.1054590289   -0.6483455592    1.1060760552
 C   -0.3070733821    0.3448181495    0.3156504710
 H    0.5868409871    2.1969058108    1.0299899274
 H   -0.5078631889    2.3650969873   -0.3135342787
 H    1.1127652656    1.2264811554   -1.8243851163
 H    1.6830009874    2.7591494092   -1.1895908947
 H    3.3011473826    0.6691405627   -1.3493690850
 H    3.8830231778   -0.3163764042    0.7516564358
 H    2.9828527381    0.2352544081    2.9051758816
 H    1.8224721163    1.3654185142    2.2583080355
 H    1.7727868167   -1.6884446115    1.9000912141
 H    0.8448121166   -0.8280993254    3.0914171481
 H   -0.4819463214   -1.5658834879    1.0715710433
 H   -1.1769587782    0.1309037685   -0.3038842570