19

 C   -0.1430874751    1.3387609059   -0.2024916959
 O   -0.0981419143   -0.0691653799   -0.1266340221
 C    0.6772004637   -0.6675595200   -1.1466059264
 C    0.7110048694   -2.1596151846   -0.8478987740
 O    1.2493313690   -2.3849954344    0.4325326009
 C   -0.6438150779   -2.8882176550   -1.1644722902
 C    0.0362732855   -3.4827050706   -2.4045299783
 O   -0.3608631184   -4.0382998181   -3.3871836720
 C    1.4204744712   -2.9993022910   -1.9445850498
 H    0.8613918428    1.7813884384   -0.1235377924
 H   -0.5973303410    1.6775215120   -1.1455951698
 H   -0.7542076871    1.6910584561    0.6315496872
 H    0.2418587856   -0.4694503296   -2.1397187095
 H    1.7037626449   -0.2664183504   -1.1370860771
 H    0.8331388677   -1.7354374914    1.0140808134
 H   -0.8568494876   -3.6583186668   -0.4163428430
 H   -1.5377639865   -2.2813347441   -1.3244883938
 H    2.0395060431   -2.4813842951   -2.6822925569
 H    2.0036069149   -3.8077772014   -1.4921859302