21

 C    0.9447856809   -0.5081509549    1.2009564074
 C    0.0767204626    0.0541583388    0.0658281385
 C    0.6441264133   -0.3419598291   -1.3172761867
 C   -0.0302107112    0.3490637904   -2.5107325860
 C    0.3206192609    1.8420801290   -2.6520389193
 C    0.2759005183   -0.3645278233   -3.8157613855
 O    0.9048153341   -1.3859279790   -3.9230478546
 C   -1.3374686564   -0.4802173439    0.1759431996
 O   -2.3412051194    0.1753442386    0.0557960940
 H    0.9867599756   -1.6025442902    1.1606137150
 H    1.9696449962   -0.1342231505    1.1204817822
 H    0.5565378906   -0.2212889945    2.1831165126
 H    0.0154252559    1.1443591663    0.1464903570
 H    1.7176306004   -0.1183979734   -1.3304957650
 H    0.5699937572   -1.4279467202   -1.4481124017
 H   -1.1253287521    0.2853022570   -2.4048061918
 H    1.4038080944    1.9849343647   -2.7305960363
 H   -0.1424879182    2.2728960588   -3.5458110397
 H   -0.0376267857    2.4120313444   -1.7916096786
 H   -0.1444327178    0.1434737662   -4.7152714440
 H   -1.3915466396   -1.5818130752    0.3541731428