19

 O   -0.0313930708    1.4367278111   -0.0020326326
 C    0.0214842463    0.0270549211    0.0156432154
 C    0.2236945946   -0.6689589524    1.4000360900
 C   -0.8717564265   -1.7044764439    0.9908030122
 C   -1.3841402606   -0.6262145191   -0.0182197536
 C   -0.3136613926   -2.9382520962    0.3385771485
 C    0.5803785207   -2.9595616700   -0.6637978255
 C    1.1742849825   -1.8018583460   -1.3284708002
 C    0.9437289133   -0.5089787002   -1.0530287056
 H    0.8700950033    1.7720773297    0.0576525486
 H    1.2160182040   -1.0475051031    1.6520735457
 H   -0.1459750901   -0.0050446411    2.1843951031
 H   -1.5754823678   -1.9766486476    1.7779459795
 H   -2.0968185793    0.0444488200    0.4659359800
 H   -1.7694870554   -0.9611054265   -0.9820384478
 H   -0.6673513505   -3.8907638029    0.7246651986
 H    0.9019154154   -3.9283515605   -1.0370853228
 H    1.8642939400   -2.0280992502   -2.1372339101
 H    1.4316575536    0.2526155479   -1.6570498335