16

 N    0.6480199312   -0.8934532591    0.9014275858
 C    0.3413217879    0.1453588481    0.4949921784
 C   -0.0397407362    1.4552875516   -0.0267901605
 C   -0.8286408117    2.3149575745    1.0062746750
 C    0.2107349214    3.2632250050    1.5813139163
 C    1.5009602991    2.6924523778    2.0464409859
 N    1.4037173867    3.3131957493    0.7155320633
 C    1.1936248253    2.3604675770   -0.3773561162
 H   -0.6417926283    1.2762651432   -0.9217931827
 H   -1.6023392507    2.8861494763    0.4843632160
 H   -1.3226177490    1.7010149914    1.7629965476
 H   -0.1387528702    4.2105870560    1.9812019648
 H    2.1089178531    3.2489889736    2.7532786433
 H    1.5998236881    1.6126501272    2.1213103346
 H    2.0975122421    1.7768690771   -0.5680818308
 H    0.9615489911    2.9337628812   -1.2800566506