18

 C    0.1433911129    1.0697806158   -0.4435580340
 C   -0.3018944085    0.1344213773    0.6828736155
 N   -1.5839964158   -0.5028705197    0.4284942154
 C   -1.6836470348   -1.7714398377   -0.0352214052
 O   -0.7691902651   -2.5464534916   -0.2052247168
 O   -3.0019037887   -2.0630297761   -0.2777731600
 C   -3.2768257226   -3.3754802982   -0.7554312383
 C   -4.0630048882   -4.1533372911    0.2841142596
 O   -4.7357861348   -5.1148280824    0.0261062820
 H    1.1050645212    1.5309206436   -0.1974099246
 H    0.2561667603    0.5177357558   -1.3809476603
 H   -0.5832531566    1.8734021342   -0.6043592126
 H    0.4214543743   -0.6724465936    0.8171451383
 H   -0.3672305667    0.6822365073    1.6298206837
 H   -2.4282453414    0.0460609863    0.4450494107
 H   -3.8537335301   -3.3036609205   -1.6815739788
 H   -2.3336407919   -3.8978256279   -0.9545629091
 H   -3.9512295735   -3.7604488515    1.3202275146