13

 O   -0.0526515348    1.3588085262    0.0113445302
 C    0.0296244260    0.0056575225    0.0029027233
 C    1.2040229621   -0.6770779622   -0.0083614577
 N    1.2260027468   -2.0554380252   -0.0166127966
 C    0.0688455388   -2.7712294587   -0.0136506232
 C   -1.1373502924   -2.1493254368   -0.0025448699
 C   -1.2728174173   -0.6988076101    0.0068299740
 O   -2.3414677365   -0.1002554910    0.0169083377
 H    0.8326649983    1.7391369968    0.0080480900
 H    2.1723146715   -0.1888825175   -0.0114862662
 H    2.1115133995   -2.5307627145   -0.0247797989
 H    0.1825228542   -3.8486236758   -0.0206877834
 H   -2.0496368561   -2.7325557237   -0.0003467592