17

 C    0.9280178596    1.6868587586   -0.3333492922
 C    0.2064520084    0.3800900892   -0.0296441873
 O    0.4660682013   -0.5953986492   -1.0630245359
 C   -0.4498242099   -0.6633776561   -2.0711993414
 N   -0.0716895113   -1.6230824229   -2.9674705991
 O   -1.4565894131   -0.0015550216   -2.1377793128
 C    0.6237328767   -0.1925850526    1.3313099536
 N    0.9134975905   -1.5177408189    1.3513277617
 O    0.6509950143    0.5239442104    2.3134421459
 H    1.9971876462    1.5109571806   -0.4852535843
 H    0.5096972103    2.1463285603   -1.2319324480
 H    0.8027224967    2.3644342947    0.5127879042
 H   -0.8732613902    0.5509231530    0.0044887122
 H    0.8871203510   -1.9279898777   -2.9719339342
 H   -0.5637487607   -1.6201907051   -3.8448715459
 H    0.9282180311   -2.0546056004    0.5030425158
 H    1.1886947492   -1.9349593822    2.2245009975