12

 O   -0.0928361084   -0.0454239125    0.0048313305
 C    0.0081710709    1.1427870971    0.0094807616
 O   -1.1862154835    1.9080037991    0.0286208609
 C   -1.1589681443    3.2428717646    0.0347444069
 N   -0.1144885370    3.9879109744    0.0248315061
 C    1.0891822663    3.3269821348    0.0059969284
 C    1.2185161091    1.9663420932   -0.0023037511
 C    2.4765974456    1.3159528140   -0.0218741021
 C    3.5508096597    0.7734638022   -0.0384554663
 H   -2.1587988620    3.6662366994    0.0497644710
 H    1.9734663410    3.9557716222   -0.0024571386
 H    4.4936131327    0.2844417716   -0.0529286473