20

 O    0.0904673661    1.4194035797    0.0439967770
 C    0.0467676582   -0.0012879254   -0.0210875886
 C   -1.3857357584   -0.5452208501   -0.0171137923
 C   -1.4823220970   -2.0756857225   -0.1321250968
 C   -0.9119504315   -2.9696597111    0.9454544436
 C   -2.3738233686   -2.6021548892    0.9779984342
 C   -2.7679096149   -1.4099749634    1.8255353336
 N   -1.6396534870   -0.7240829912    2.4981535790
 C   -2.1884065889   -0.1763772039    1.2350924957
 H   -0.1403199364    1.6699898855    0.9435915238
 H    0.5437739256   -0.2754374036   -0.9575310123
 H    0.6141841929   -0.4539264214    0.8021028117
 H   -1.9087744318   -0.1036785469   -0.8747042789
 H   -1.5473096274   -2.4904529618   -1.1324084056
 H   -0.6607120802   -3.9828559854    0.6498954443
 H   -0.2799602524   -2.5440025126    1.7140222818
 H   -3.1268034332   -3.3597431475    0.7958403772
 H   -3.7349933267   -1.4119511795    2.3166197318
 H   -1.9960987439   -0.1844733610    3.2832694256
 H   -2.7064498645    0.7774067312    1.2676156853