18

 C    0.0074708810    1.5795974183   -0.0211364141
 C    0.0343553760    0.0536050186    0.0446230005
 C    0.7866718003   -0.6059863833   -1.1366296715
 O    1.3158514436   -1.8445833114   -0.6628040061
 C    1.5487725949   -1.7214595957    0.7050073133
 C    2.2887617074   -0.5292814675    1.2295397177
 C    0.7555239288   -0.5455472178    1.2587148824
 C    0.0715122138   -0.5980376586    2.5139518597
 N   -0.4871841879   -0.6330436177    3.5274087075
 H    1.0209348230    1.9942164598   -0.0095616229
 H   -0.4855405478    1.9210528393   -0.9371245361
 H   -0.5391505839    1.9984878034    0.8283935058
 H   -0.9936749457   -0.3250189709    0.0693650129
 H    0.1396497937   -0.8249420239   -1.9891702649
 H    1.5979031254    0.0487589474   -1.4864025077
 H    1.6074122794   -2.6786602964    1.2078663774
 H    2.7863900450   -0.6402465532    2.1858152712
 H    2.7782661428    0.1489178496    0.5399635452