19

 C    0.0058130160    1.4327395657    0.1168404179
 C   -0.0354385798   -0.0524530352   -0.0587165261
 C    0.6029388928   -0.9423681105   -1.1522338601
 C    0.0562456154   -1.8543022268   -0.0276175020
 C    0.2476769078   -3.3207182781    0.1988807263
 O    0.6240215744   -0.9047185706    0.9672238335
 C   -1.2704403194   -1.0182446107   -0.0244360826
 C   -2.1049505487   -1.0391248924    1.2200217675
 O   -3.3118834736   -1.1002792951    1.2092211664
 H    1.0424412607    1.7827737371    0.1264646564
 H   -0.5194355884    1.9245885815   -0.7075173545
 H   -0.4699989201    1.7289783484    1.0562082656
 H    0.1213585436   -0.9837892600   -2.1324852583
 H    1.6917301755   -0.8879196012   -1.2076000318
 H    1.3144512607   -3.5632299220    0.2187805224
 H   -0.1973109554   -3.6312138624    1.1486937118
 H   -0.2234656800   -3.8913953229   -0.6071726245
 H   -1.8948097032   -1.0654487140   -0.9200544089
 H   -1.5335611783   -0.9940307209    2.1682115308