18

 O    0.2315707768    0.9624074545   -0.8209667486
 C   -0.1234656924   -0.3278352212   -0.3352999298
 C   -1.4974230149   -0.1941615222    0.3043968633
 N   -2.4604055997    0.3096167927   -0.6574157538
 C   -3.6596059899   -0.2846335283   -0.8865165822
 O   -4.0531316857   -1.2746114583   -0.2920977968
 C   -4.5103733140    0.3675298288   -1.9759429590
 C   -4.9441544583   -0.6659808581   -3.0042058952
 O   -4.9525530282   -0.4669743949   -4.1905407950
 H    1.0331289134    0.8845213925   -1.3458593753
 H   -0.1657208965   -1.0624554147   -1.1526074648
 H    0.5962268538   -0.6882738071    0.4147541114
 H   -1.8617852104   -1.1603584181    0.6584634481
 H   -1.4276728014    0.4847271429    1.1640926574
 H   -2.1685920113    1.0982388880   -1.2121121822
 H   -5.4225973771    0.7293475338   -1.4829458272
 H   -4.0323133558    1.2080552853   -2.4841900547
 H   -5.2602214185   -1.6317357055   -2.5605377255