14

 N    0.2477336897    1.3748845954   -0.4583122599
 C    0.1409566619    0.1241608486   -0.2205449668
 N    1.2271283297   -0.7871001839   -0.1818471294
 C    1.0933625358   -2.1110305584    0.0722573959
 N   -0.0314586162   -2.7105918345    0.3103519118
 C   -1.1366215831   -1.8956169564    0.2911946140
 C   -1.1231653137   -0.5530644604    0.0476456579
 C   -2.3895720262    0.2172121785    0.0552123027
 O   -3.4725454449   -0.2828853184    0.2700297504
 H    1.2112106645    1.6657127471   -0.6220964399
 H    2.1510524026   -0.4153520560   -0.3556536316
 H    2.0184332626   -2.6832772759    0.0684709296
 H   -2.0901874328   -2.3760630263    0.4880216668
 H   -2.2737674100    1.2959276705   -0.1529861517