19

 C    0.1525769818    1.5623761477    0.2214488325
 O    0.6079410152    0.2614120130   -0.0807874726
 C    0.7731402836   -0.5482920498    1.0495542555
 C   -0.5006327884   -1.1885202944    1.6925261015
 C    0.0581767705   -2.6022376111    1.3885823006
 C   -0.3929976925   -3.1802486016    0.0188387332
 C    0.8427984211   -2.5216749195   -0.6285922255
 O    1.3021719319   -2.5400836554   -1.7312818905
 C    1.3349803120   -1.9558813480    0.7132142859
 H    0.8518973811    2.0886691839    0.8897802776
 H    0.0846867907    2.1079553334   -0.7221764061
 H   -0.8390472049    1.5531230808    0.6979633674
 H    1.3929806879   -0.0358200247    1.8007046263
 H   -0.6174408742   -0.9638738700    2.7551200735
 H   -1.4353909367   -0.9473219578    1.1784743995
 H    0.1307806662   -3.3053289414    2.2160380311
 H   -0.3342837027   -4.2721827387   -0.0487114995
 H   -1.3685878917   -2.8638545325   -0.3618481262
 H    2.3749285892   -2.1536847039    0.9750398757