19

 O   -0.0943456249    0.1282004977    0.1170053038
 C    0.0687051098    1.2784054871   -0.1916558430
 C    1.4318723660    1.8983578915   -0.4415591759
 O    1.2467511575    3.2684636854   -0.7105391248
 C    2.4305399264    3.9344036070   -1.0412187198
 C    3.0297045546    3.8837315303   -2.4169013551
 C    1.9294390751    3.7954606466   -3.4831020400
 C    1.2748453703    5.0926000164   -2.9135250884
 C    2.3793182019    5.1780758512   -1.8522438862
 H   -0.7751402408    1.9908626243   -0.3251445768
 H    2.0658487564    1.7335115870    0.4451093329
 H    1.9129057713    1.3758243963   -1.2838176816
 H    3.1633383032    3.9442421702   -0.2321427720
 H    4.0770583098    3.6521517899   -2.5739398511
 H    2.3165629471    3.9381758472   -4.4936953201
 H    1.3174297699    2.8889306933   -3.4691010405
 H    1.3141850368    5.9202830365   -3.6240444404
 H    0.2568925108    5.0012958511   -2.5276863098
 H    2.8483398289    6.0930935210   -1.5094514009