19

 N    0.0713369651   -1.1478251723   -0.0613882537
 C    0.0321070544    0.0057547327   -0.0215893867
 C   -0.0203033607    1.4677616852    0.0600989353
 N    1.3174189474    2.0459943014   -0.0191135352
 C    1.3335658363    3.4738101075    0.0250050343
 C    0.7622284389    4.4810205833    1.0983574577
 C    1.4323743953    5.3442103180   -0.0038587965
 C    2.6202052973    4.3383331035    0.0057565464
 C    0.7556520938    4.4273859736   -1.0629591940
 H   -0.6116954327    1.8394165166   -0.7849231296
 H   -0.5760696609    1.7373869594    0.9751003085
 H    1.9104248006    1.6591205416    0.7082771335
 H   -0.3254014051    4.5574385019    1.1839007537
 H    1.2445404265    4.4768769968    2.0801268606
 H    1.4959515330    6.4298603080   -0.0285408760
 H    3.2375941597    4.3175683270    0.9087616820
 H    3.2275129024    4.2808411956   -0.9011183021
 H    1.2278792485    4.3779339130   -2.0475209670
 H   -0.3333443000    4.4963732772   -1.1402775112