20

 C    1.3014366137    0.2445387042    1.2238835795
 C    0.2882620011    0.4755364635    0.0961871588
 C    0.6664385443   -0.2759885902   -1.1705591493
 C    0.5507735537   -1.8219274595   -1.3187397883
 C   -0.2305553668   -1.5317942556   -2.6030675475
 C   -1.4685622983   -0.7389864980   -2.3727666475
 C   -2.3748290791   -0.9278764392   -1.2058984746
 O   -3.5576765314   -0.6893917622   -1.2661422367
 N   -0.1445692306   -0.0397120989   -2.4265472431
 H    1.3580333514   -0.8143606149    1.4991734138
 H    2.3060180665    0.5646968239    0.9270446806
 H    1.0237193513    0.8050302006    2.1208802591
 H   -0.7109683330    0.1954744520    0.4432353101
 H    0.2386026361    1.5432083649   -0.1510106047
 H    1.6816923469    0.0291082075   -1.4470789882
 H    1.5093281967   -2.3111458512   -1.4978306288
 H    0.0258729016   -2.3762038466   -0.5364196766
 H   -0.0505155754   -2.0037302533   -3.5641330700
 H   -2.0370688132   -0.4859257240   -3.2637493801
 H   -1.9315087958   -1.3483677229   -0.2822921665