22

 C   -0.6498984236    1.4694801568    0.5649202856
 C    0.0931161747    0.2397524664    0.0283014448
 C    0.9011898972   -0.4903073691    1.0928376196
 C    2.0900365167    0.3246095161    1.6122732650
 C    3.0171640455   -0.3793296952    2.5762947658
 O    4.2159858379   -0.4135775894    2.4687973392
 N    0.0873855733   -1.2781855172    2.0383788408
 C    0.9993454162   -1.9827202233    1.1185396631
 C    0.3921926732   -2.9307669169    0.1115562107
 H    0.0353290118    2.2487518318    0.9142457685
 H   -1.2759883227    1.9137837836   -0.2144724458
 H   -1.2973167999    1.1853052284    1.4001567163
 H   -0.6387936279   -0.4521777557   -0.3950404331
 H    0.7632959657    0.5302051022   -0.7911785826
 H    2.6960950311    0.6865118465    0.7756945187
 H    1.7072204823    1.2102777037    2.1428139957
 H    2.5200281518   -0.8604297464    3.4521522541
 H    0.4589379785   -1.2487730898    2.9841510820
 H    1.9236411291   -2.3655556507    1.5545420445
 H   -0.5711392330   -2.5712395935   -0.2541291531
 H    1.0617359398   -3.0733923067   -0.7435058365
 H    0.2244813626   -3.9099795315    0.5727618467