13

 N   -0.1111174966    1.2846440843   -0.0004439781
 C    0.0944489970   -0.0504310801    0.0030733798
 O    1.1433949778   -0.6327442240   -0.0131059318
 N   -1.1631754621   -0.7752759128    0.0300253499
 N   -2.3493381364   -0.1703944796    0.0319228945
 N   -3.2489988478   -1.1075584071    0.0546852823
 C   -2.5538851868   -2.2888067065    0.0668086039
 N   -3.1756086312   -3.5043414067    0.1483843800
 N   -1.2407763155   -2.1130212408    0.0474278683
 H    0.6976616395    1.8798545021   -0.0229618568
 H   -1.0409523125    1.6695195527    0.0113300527
 H   -4.1282849267   -3.5079477206   -0.1821707541
 H   -2.6241271187   -4.2885506509   -0.1640796705