19

 C   -0.0152725493    1.6538527541    0.2188735906
 C    1.4364936429    1.1803408305    0.0485507546
 O    1.1107569586    0.0040148448    0.9138316582
 C   -0.0047264247    0.1177423213   -0.0718896593
 C   -1.1185157271   -0.8069670187   -0.3288315008
 C   -1.3877655865   -1.0559315776   -1.6170584671
 C   -0.6037036650   -0.5265307610   -2.8085432558
 C    0.3945038963    0.6313369208   -2.5130286964
 C    1.0402643954    0.3009022142   -1.1778235028
 H   -0.2907399348    1.9247860240    1.2384376947
 H   -0.4514679333    2.3208155729   -0.5271836985
 H    2.3689681075    1.6993616403    0.2720545089
 H   -1.7278804122   -1.2053404617    0.4763831569
 H   -2.2303892649   -1.6969643064   -1.8682353503
 H   -0.0594464674   -1.3748597937   -3.2497265170
 H   -1.3127351750   -0.2120153917   -3.5839946022
 H    1.1198428590    0.7122752562   -3.3290831576
 H   -0.1500981860    1.5796632786   -2.4766127720
 H    1.6895232866   -0.5767724468   -1.2492496341