14

 O    0.0566755807   -0.0932890964   -0.0019135987
 C   -0.0055869661    1.1225653782    0.0086245629
 C    1.1612013617    1.9777897864    0.0032322653
 C    1.3136140755    3.3546131384    0.0127863024
 C    2.7067171284    3.6329038081    0.0006361594
 C    3.3585545390    2.3968241221   -0.0166193297
 N    2.4229098655    1.4233791318   -0.0148894628
 C    3.3295439784    4.9029407729    0.0046742531
 C    3.8505880432    5.9886472319    0.0082169887
 H   -0.9765574176    1.6582317623    0.0234225705
 H    0.5183504899    4.0835544399    0.0271288473
 H    4.4141100771    2.1775540578   -0.0295947794
 H    2.5685637662    0.4259618451   -0.0247744447
 H    4.3113619979    6.9449962913    0.0113004157