18

 C   -0.2554864826    1.5109494510   -0.4539318228
 C   -0.0557378808    0.0495924429   -0.1143454423
 C   -1.3013951266   -0.8199798076   -0.0550818586
 C   -2.2281932503   -0.4289270846    1.0754235153
 C   -3.4308386787    0.3901860500    0.8711342282
 O   -3.5276981280   -1.0216401217    1.0597566841
 C    1.2465064546   -0.5828588415   -0.3722956361
 O    0.8766298506   -0.1971638206    0.9536773438
 H    0.6994562826    2.0413049961   -0.4371067472
 H   -0.6989492217    1.6207178886   -1.4496118024
 H   -0.9252381738    1.9911890929    0.2661304979
 H   -1.8461841813   -0.7668606247   -1.0050397608
 H   -0.9993702856   -1.8629648566    0.0900938034
 H   -1.7598469784   -0.4077772393    2.0601140433
 H   -3.8200285236    1.0001592741    1.6853142341
 H   -3.6753121124    0.7448186073   -0.1299670090
 H    1.3033167740   -1.6563691646   -0.5496060701
 H    2.0492780921    0.0014156283   -0.8209490806