18

 O   -0.0668712507    1.4159533061   -0.1671550124
 C    0.0032021457    0.0314769226   -0.0738840330
 C   -0.0811010142   -0.5458499832    1.2991144403
 C   -1.2374020927   -0.7709737199    0.3280760305
 C   -2.4638995790   -0.0459278464    0.5288985213
 C   -3.5197920369    0.5221915013    0.6440885954
 N   -1.2853252441   -2.1042405263   -0.2336908069
 C   -2.3548155381   -3.0067053548    0.1864441467
 C   -2.3377645861   -2.4366204197   -1.1902865599
 H   -0.6598290782    1.6418368360   -0.8923840339
 H    0.6443833302   -0.4706972957   -0.7967579902
 H    0.5160691986   -1.4191072438    1.5313136010
 H   -0.2498047517    0.1550631000    2.1073956356
 H   -4.4404612300    1.0352719113    0.7744752840
 H   -2.0519483602   -4.0341453031    0.3660405069
 H   -3.1105282857   -2.6178188364    0.8644511042
 H   -3.0846053044   -1.6782680727   -1.4120225236
 H   -2.0203266426   -3.0395299451   -2.0360890959