20

 O    0.0046478756    1.3073086963   -0.6250135004
 C   -0.0111750860    0.0502289811   -0.0180822869
 C   -0.0617837156   -1.1910188253   -0.8729418209
 C   -1.2764754731   -0.7682477316   -0.0601990040
 C   -1.4745822007   -1.4151973806    1.3012468276
 C   -0.0953195382   -1.3146451552    1.9610719606
 C    0.1818164111   -1.8453752900    3.3122896644
 N    0.7425230861   -2.5205330317    2.1237677261
 C    0.5958876963   -0.0868234009    1.3731414421
 H    0.8839241080    1.4474217083   -0.9928294977
 H   -0.1329295216   -1.0244936203   -1.9422319572
 H    0.5076249890   -2.0671114923   -0.5791832234
 H   -2.1369357002   -0.3968137770   -0.6041584989
 H   -2.2172768027   -0.8457702899    1.8744814909
 H   -1.8274009819   -2.4528929538    1.2536912513
 H    0.9155925240   -1.3600725289    3.9508281225
 H   -0.6316033757   -2.3271975416    3.8501814319
 H    0.1916408449   -3.3518936755    1.9198765821
 H    1.6833615538   -0.2094517360    1.3787974479
 H    0.3451818269    0.8155800748    1.9443805819