17

 O    0.2469702526    1.3494903961    0.0303462371
 C    0.0879325718   -0.0304809048   -0.0661053459
 C   -1.3626484408   -0.4429642401    0.1307578050
 O   -2.1996020256    0.4149779216    0.3424501547
 C   -1.6660052438   -1.8975152010    0.0682543145
 C   -2.8598101472   -2.4295291303    0.8135453956
 C   -2.9048594013   -2.4277404111   -0.6899137545
 C   -3.8445086765   -1.5193476835   -1.4060959407
 O   -4.3496702130   -1.8137353988   -2.4618866448
 H   -0.6437566659    1.6975638070    0.1975696215
 H    0.4170842453   -0.4106513517   -1.0489322541
 H    0.6978395556   -0.5613047291    0.6854259625
 H   -0.7966282674   -2.5417426486   -0.0126790057
 H   -2.7652686802   -3.3818704095    1.3209317598
 H   -3.4608314172   -1.6820539565    1.3210071271
 H   -2.7475614587   -3.3696766480   -1.2043580752
 H   -4.0654905276   -0.5634762919   -0.8946980770