17

 O    0.0422239120    1.3998255174   -0.0995312611
 C    0.0694526780   -0.0107394411   -0.0637114760
 C   -1.3244282618   -0.5948785087    0.1297492565
 O   -2.1464022755   -0.1557436771   -0.9778177843
 C   -2.9852871036   -1.1508391051   -1.4187616305
 O   -3.8861971026   -0.9331435265   -2.1732885431
 C   -2.5555440588   -2.4474414745   -0.8097130240
 C   -1.1208285701   -2.8320518829   -1.1262347522
 C   -1.4380307934   -2.1116148550    0.1489377197
 H   -0.5731505234    1.6493135253   -0.7986929517
 H    0.5215673449   -0.4351352129   -0.9727969666
 H    0.6985583914   -0.2962250337    0.7863165403
 H   -1.7589945344   -0.1683493169    1.0423871215
 H   -3.3053385313   -3.2092758832   -0.6492748206
 H   -0.8865017562   -3.8876306605   -1.0534965794
 H   -0.6119694802   -2.3124185714   -1.9304870660
 H   -1.3307490549   -2.6215335831    1.0978831173