17

 C    0.0972126403    0.9823268267   -0.4329661219
 O   -0.1972398837    0.0270445961    0.5733972055
 C   -1.3796983990   -0.6524488653    0.3573952910
 C   -1.5493889941   -1.6745452847   -0.7264782276
 N   -0.2344783613   -2.2858909555   -1.0092664905
 C   -0.2183173517   -2.8617976749    0.3769555619
 C    1.0128596136   -2.6475387562    1.1434511527
 N    1.9837023390   -2.5500909373    1.7619745040
 C   -1.4956184871   -2.0909071568    0.7568029736
 H    1.0437798050    1.4493223544   -0.1545889405
 H    0.2027867578    0.5019531764   -1.4131174611
 H   -0.6811551729    1.7575832903   -0.4908082829
 H   -2.2889836043   -0.0792438136    0.5574720884
 H   -2.3563137501   -1.6852062894   -1.4493945859
 H   -0.3111205796   -3.0342316215   -1.6895328993
 H   -0.4245844015   -3.9368662689    0.3698308225
 H   -2.2405867806   -2.4619006598    1.4482049101