17

 C    0.1806888140    1.4742005433   -0.1212337303
 C   -0.0125559671   -0.0115872171   -0.0696803259
 C   -0.9168150174   -0.6923834450    0.8805421913
 N    0.5393139145   -0.8786040216    1.0633771186
 C    0.9401051070   -1.8875559688    0.0163669563
 C    0.4588611163   -0.9953543372   -1.1457866125
 C    2.4324392728   -2.1250914318    0.1058604796
 O    3.2045007035   -2.0048074745   -0.8096789510
 H    1.1986168827    1.7293792241   -0.4338358290
 H   -0.5151700770    1.9285655615   -0.8365173146
 H    0.0015160394    1.9247299939    0.8592641499
 H   -1.3636890357   -0.0919791282    1.6675020640
 H   -1.5187863433   -1.5424129047    0.5631462958
 H    0.4388416607   -2.8575417776    0.1497808572
 H   -0.3066838790   -1.3934088447   -1.8165512357
 H    1.3013821078   -0.6324848961   -1.7374192059
 H    2.7710971208   -2.4213951555    1.1230224023