18

 N    0.5477062234    0.1552764372   -0.8909470511
 C   -0.2777231061    0.2837234400    0.1888722804
 O   -0.2177976229    1.2392260258    0.9432721365
 C   -1.3292634912   -0.7742273390    0.4093151210
 C   -1.9563655853   -1.6033189695   -0.6946543469
 C   -1.1245378487   -2.2858675358    0.3474961411
 C    0.1728883472   -2.9536382575    0.0112128926
 C    0.2410344255   -4.0025582618   -1.0194358306
 O    0.7603876605   -2.6931839472   -1.2697870613
 H    1.2984113208    0.8249584584   -0.9451927596
 H    0.6576174937   -0.7190122726   -1.3815663452
 H   -1.9939303832   -0.4467995749    1.1998612466
 H   -3.0321845079   -1.7358305379   -0.6829349031
 H   -1.5232764626   -1.5096367698   -1.6844344722
 H   -1.6608680546   -2.8257347292    1.1246931792
 H    0.9037386305   -2.9953747028    0.8193522049
 H    0.9921615199   -4.7868074502   -0.9510012707
 H   -0.6601552890   -4.2552987033   -1.5744062713