21

 C    0.1196441886    1.5072167265   -0.1987895795
 C    0.0455987913   -0.0039607577   -0.0930756555
 C    1.3552870227   -0.7757727173    0.0481322853
 C    0.4544774639   -0.6490277184    1.2289171710
 C   -1.0289495135   -0.7548524627   -0.8322145395
 O   -1.1016257654   -1.9707747493   -0.7572644637
 C   -2.0088327241    0.0076410802   -1.6613239982
 C   -2.5249108161   -0.6806874050   -2.9197094750
 C   -3.4236484835   -0.5541868968   -1.7411558110
 H    0.9549384528    1.8862640222    0.3976052203
 H    0.2807425888    1.8388413845   -1.2304347029
 H   -0.7905349517    1.9896155160    0.1741433665
 H    1.3953848133   -1.7395602278   -0.4448228985
 H    2.2684232429   -0.1911320979    0.0191642529
 H    0.7329471992    0.0249477873    2.0318341793
 H   -0.1057715035   -1.5283270908    1.5229352277
 H   -1.9082819588    1.0833957829   -1.7000992812
 H   -2.6991612460   -0.0537942531   -3.7866455083
 H   -2.1017758600   -1.6581281471   -3.1194292598
 H   -3.6010854438   -1.4470952462   -1.1533162355
 H   -4.2362643671    0.1625429104   -1.7709871744