18

 N   -0.0662079466   -1.1756229091   -0.1180500928
 C   -0.0430295624   -0.0215982328   -0.0499234930
 C   -0.0152111151    1.4360885810    0.0310659152
 C   -0.4773802525    2.0026285292    1.3802556643
 C    0.7529277100    2.1214233304    2.2578859311
 C    1.9376442120    1.6096781014    1.4432100967
 C    1.4191108012    2.0532533372    0.0559396687
 C    1.0839894437    3.5431521039    0.2971636066
 C    0.2152445168    3.3428092023    1.5355385568
 H   -0.6025622978    1.8355835817   -0.8033488359
 H   -1.4622910697    1.7997569102    1.7766735436
 H    0.6895957785    2.0150796848    3.3321281229
 H    2.8802316560    2.1008834869    1.7040376516
 H    2.0741644237    0.5270327162    1.5176767698
 H    2.0455231438    1.8196894587   -0.8028662544
 H    1.9804294107    4.1390849477    0.4952033506
 H    0.5434943898    3.9979077866   -0.5395356454
 H   -0.2565845620    4.1623138235    2.0606427637