23

 C   -0.0193155479    1.5694500100    0.0050552057
 C   -0.0057649204    0.0399865934   -0.0478992280
 C    0.7156360287   -0.5102522555   -1.2915608572
 O    2.0667269896   -0.0393487611   -1.3561322684
 C    0.6482737918   -2.0118232757   -1.3820735895
 C   -0.0322226351   -2.7186886752   -2.2860024979
 C    0.0670188380   -4.2077902001   -2.0621235497
 C    1.2325574066   -4.3238255670   -1.0467403421
 C    1.3365208701   -2.9274827424   -0.3832710229
 H    0.9983038221    1.9656189226   -0.0408304290
 H   -0.5746589174    1.9861789765   -0.8425375938
 H   -0.4912164550    1.9301257552    0.9239851415
 H    0.4836956862   -0.3608829662    0.8512581636
 H   -1.0294885794   -0.3533104824   -0.0386151793
 H    0.2405801705   -0.0871111146   -2.1847158879
 H    2.5191570017   -0.3424416045   -0.5613389746
 H   -0.6278871782   -2.2843305900   -3.0827819258
 H   -0.8737078600   -4.6038267015   -1.6524822713
 H    0.2571171690   -4.7684256992   -2.9843830311
 H    1.0888333520   -5.1278308386   -0.3205655479
 H    2.1607790355   -4.5364676120   -1.5861814053
 H    2.3777033943   -2.6438778371   -0.1868576799
 H    0.8217258072   -2.8996366247    0.5878037410