13

 C   -0.0196156315    1.5047544647    0.0574201513
 C   -0.0019406125    0.0216250675   -0.0604564161
 C   -0.0383069982   -0.7470230295   -1.1775168655
 C    0.0010583943   -2.1462544222   -0.7733999304
 O   -0.0119080761   -3.1689174321   -1.4139227533
 C    0.0679332994   -2.1066385212    0.8021150398
 O    0.1139692781   -3.0193466473    1.5802638551
 N    0.0597141581   -0.7495765967    1.1026581363
 H    0.8815082059    1.8626315338    0.5696475278
 H   -0.0711756985    1.9712605407   -0.9270604548
 H   -0.8815390203    1.8354142674    0.6491917482
 H   -0.0880054924   -0.3844178409   -2.1921163909
 H    0.0939019036   -0.3821266144    2.0395622425