19

 C    0.0807543087    1.5424652121   -0.0917810351
 C    0.1363783025    0.0304029622    0.0185627752
 O    0.7870817064   -0.4832979845   -1.1491029807
 C    0.8345692027   -1.9034808382   -1.1813108021
 C    1.7848462027   -2.3886972622   -0.0872341057
 O    3.0912002732   -1.8958346669   -0.3287285811
 C    1.2556670603   -1.9255056506    1.2849390062
 C    0.8601815992   -0.4543879813    1.2889047043
 O    1.0689828290    0.2786504261    2.2253761101
 H    1.0905227577    1.9565135474   -0.1534643954
 H   -0.4748711201    1.8323648422   -0.9864366719
 H   -0.4037334230    1.9632727132    0.7908423700
 H   -0.8887398429   -0.3846819246    0.0593288260
 H   -0.1729638589   -2.3326914141   -1.0595371433
 H    1.2192155311   -2.1765511154   -2.1673894196
 H    1.8601976162   -3.4815505291   -0.1045953858
 H    2.9897365325   -0.9805963415   -0.6208011886
 H    0.3500392648   -2.4990976516    1.5315294410
 H    1.9908537480   -2.1002214333    2.0730724263