25

 C   -0.0651242181    1.5585639359   -0.0395426727
 C    0.0626700575    0.0325136955    0.0032975382
 C    0.6574108656   -0.5267397440   -1.3016524942
 C    0.9712021238   -1.9954641738   -1.2025099043
 C    0.9671993721   -2.6657476382   -0.0509843098
 C    0.6679539324   -2.0367542522    1.2928508434
 C    1.4693847682   -2.7129114895    2.4159269017
 C    0.8382951828   -0.4962552747    1.2354330944
 C    2.3110967299   -0.0548785726    1.2593739387
 H    0.9044854581    2.0475493650   -0.1809605924
 H   -0.7092287747    1.8707063014   -0.8689855622
 H   -0.5035468257    1.9470996524    0.8862315552
 H   -0.9546811893   -0.3757462726    0.0891887827
 H   -0.0423634044   -0.3512074698   -2.1299281059
 H    1.5670620872    0.0299293888   -1.5753831243
 H    1.2082167348   -2.5143104916   -2.1289485179
 H    1.1875933887   -3.7319135861   -0.0490357821
 H   -0.3948031940   -2.2246521811    1.5156693652
 H    2.5474743267   -2.6577623872    2.2380138373
 H    1.2609195152   -2.2471680999    3.3852524502
 H    1.2030781184   -3.7726513597    2.4911222519
 H    0.3553393800   -0.0796632475    2.1306676366
 H    2.8880246394   -0.5238335824    0.4563737837
 H    2.4019897715    1.0296386857    1.1512184287
 H    2.7871194641   -0.3227626619    2.2065072978