14

 O   -0.0429260131    1.4030236829   -0.0524032860
 C   -0.0416650895   -0.0010954449   -0.0734400890
 C   -1.4451355211   -0.5324940617    0.0378976960
 N   -2.4169686494    0.3048074494    0.1332345874
 O   -3.7122232815   -0.1851665237    0.2357662028
 N   -4.0075385386   -1.5254127014    0.2403168752
 C   -3.0340992857   -2.3575955445    0.1449216860
 C   -1.6329502454   -1.9857515329    0.0316698913
 N   -0.6243087140   -2.7724758817   -0.0659646864
 H    0.8697044322    1.6966826358   -0.1232657431
 H    0.3900394518   -0.4178068602   -0.9978223135
 H    0.5387410066   -0.4439346806    0.7520809408
 H   -3.3234129085   -3.4066111433    0.1533390783
 H   -0.9227307938   -3.7511053433   -0.0555805898