20

 C    0.2332187576    1.5912020953    0.3768359840
 C   -0.0301821100    0.1127798048    0.0647250373
 C    0.6424600726   -0.4241619086   -1.2108536033
 C    2.2321326200   -0.4409926785   -1.2399622301
 C    2.1619055255   -1.9578021281   -1.4255401669
 N    1.4513288461   -2.4922461080   -0.2381986269
 C    0.6771745775   -1.9536902141   -1.3806303683
 C    0.1288087677    0.2608326840   -2.4525330078
 O   -0.4314966369   -0.2943433417   -3.3657308672
 H    1.3061563132    1.8044207646    0.4299386694
 H   -0.2023447311    2.2627248975   -0.3694522376
 H   -0.2022192629    1.8563056752    1.3450502867
 H    0.3323354512   -0.5084115063    0.8892514599
 H   -1.1115633887   -0.0625099224   -0.0084572289
 H    2.6476923074    0.0877583406   -2.1023256088
 H    2.7291681226   -0.1006474263   -0.3281069234
 H    2.8371656227   -2.5811525822   -1.9978278495
 H    1.4391454027   -3.5080576790   -0.3260534916
 H   -0.0419294084   -2.5541907474   -1.9207020112
 H    0.3166857512    1.3578634107   -2.4879078359