21

 C   -0.1962429114    1.4740783108    0.1115506365
 C    0.0772470437   -0.0090213280   -0.0282943757
 C    0.6823611231   -0.6808092392   -1.2198599639
 C    1.4505373585   -0.6750540235    0.0968690029
 C    2.6687092146    0.1681309444   -0.0969160221
 O    3.5943704325    0.2597283884    0.6723972026
 C    2.6020689254    0.8363407334   -1.4794988380
 C    1.4435409163    0.1623344800   -2.2563056709
 C    1.9599073482   -0.7222304160   -3.3975538983
 H    0.5312064892    2.1011207570   -0.4068103232
 H   -1.1840040835    1.7137074074   -0.2977174660
 H   -0.1943622154    1.7690715910    1.1658981605
 H   -0.6850267098   -0.6130677844    0.4594619831
 H    0.2228279677   -1.5972620074   -1.5767700369
 H    1.5429350439   -1.5313327141    0.7537433288
 H    2.4755644558    1.9164942068   -1.3522481942
 H    3.5685626801    0.7006456578   -1.9746742842
 H    0.7758336906    0.9194009118   -2.6840554745
 H    2.6301269746   -1.5013621133   -3.0164389917
 H    1.1345423611   -1.2171404836   -3.9201121191
 H    2.5166161447   -0.1307918393   -4.1313316959