18

 C   -0.1353052582    1.5099245074   -0.0735124232
 C   -0.0179351126    0.0138105497    0.0678701055
 N    1.2948018017   -0.5851943390   -0.1783210974
 C    0.7533729600   -0.6303649135    1.1804245239
 C    1.4262110544    0.0367649065    2.3602810671
 C    0.7732884290   -0.7017500786    3.5447474521
 O    0.3141054213   -1.9732094862    3.0350457958
 C    0.2419234129   -1.9490003871    1.6836479190
 O   -0.1545440895   -2.8720122090    1.0249688946
 H    0.7836859119    2.0085327472    0.2444108759
 H   -0.3130005331    1.7760972844   -1.1206031237
 H   -0.9719092231    1.8966561251    0.5181230325
 H   -0.8803955178   -0.5588253617   -0.2696727586
 H    1.1781851859   -1.5106278775   -0.5924501414
 H    2.5045248298   -0.1457036548    2.3272284645
 H    1.2668812195    1.1152745327    2.4140279027
 H    1.4607202489   -0.9079701728    4.3668014325
 H   -0.0943275111   -0.1615495729    3.9385046582