18

 C   -0.0943299482    1.7264570782    0.1197289804
 C    0.0022890263    0.2039291625    0.0665803599
 C    0.6830403889   -0.3284565777   -1.2106590167
 C    2.1870165716   -0.0408469499   -1.1599755412
 N    2.7961363817   -0.4046919842    0.1136654403
 C    2.0414250217   -0.5019174773    1.1207089284
 O    0.7034959108   -0.2871873859    1.2294724039
 C   -1.3825925389   -0.4384774646    0.1538659278
 O   -2.3720483940    0.0263515790   -0.3445989787
 H    0.8770095042    2.1930056956   -0.0596944120
 H   -0.8060039690    2.0684025324   -0.6351365389
 H   -0.4536766072    2.0442005351    1.1017170837
 H    0.5272654630   -1.4125274370   -1.2719068415
 H    0.2082804755    0.1212253103   -2.0872300557
 H    2.7002974538   -0.5940053327   -1.9535998780
 H    2.3876776882    1.0207199836   -1.3545534032
 H    2.4373625721   -0.7988362207    2.0901315287
 H   -1.3841757505   -1.4081819866    0.6984885228