19

 C   -0.0381793340    1.5393291694   -0.1892977987
 C    0.2293993926    0.0685525574    0.1209426192
 N    0.8706714531   -0.6078212154   -0.9991711595
 C    0.5849969109   -1.9259231445   -1.2819192681
 O   -0.2525910692   -2.5788499324   -0.7091094947
 N    1.3580291081   -2.4002401749   -2.3684398439
 C    1.5080114528   -3.7300360723   -2.7723680876
 C    2.2531404337   -3.8557723264   -4.0954860977
 O    1.1052224541   -4.6761428255   -2.1464534234
 H    0.8915196421    2.0815568814   -0.3974865661
 H   -0.6927203954    1.6424094354   -1.0595589279
 H   -0.5180541167    2.0255865575    0.6651917727
 H    0.8411685121   -0.0220333013    1.0298082607
 H   -0.6994192131   -0.4722409563    0.3110599397
 H    1.7624716518   -0.2434514732   -1.2970956477
 H    1.7782918463   -1.7023771543   -2.9626490604
 H    3.2209399862   -3.3438717117   -4.0601492340
 H    2.4118297287   -4.9129344690   -4.3040478146
 H    1.6693073860   -3.4115883940   -4.9090192378