17

 C    0.0946251722    1.1375815088   -0.5754480297
 N   -0.2086355311    0.2183396050    0.5199143858
 C   -1.4188959318   -0.5022573502    0.3490290870
 C   -1.5438657777   -1.7762053073   -0.5018441056
 C   -0.3974620060   -2.3078731105   -1.1686182414
 C    0.5751954208   -2.7393964277   -1.7296527889
 C   -1.6285756170   -1.8258774747    1.0434511939
 C   -0.5535627605   -2.4107381740    1.7920291893
 N    0.3196833775   -2.8677233169    2.3979534593
 H    1.0331675666    1.6528875278   -0.3565998191
 H    0.1815813410    0.6480867510   -1.5569424197
 H   -0.6939238286    1.8956069173   -0.6400635002
 H    0.5696628683   -0.4082203778    0.6926426103
 H   -2.2951704211    0.1411065095    0.3214386127
 H   -2.4962595772   -1.9397651257   -0.9979116049
 H    1.4299393876   -3.1366431995   -2.2191681058
 H   -2.6119223430   -2.0185539052    1.4582252470