16

 C    0.0632014482    1.4047266233   -0.1576793281
 C    0.0002118373   -0.0771070944   -0.0021912406
 O    0.5332344003   -0.9281912392   -1.0774051313
 C    0.0537562056   -1.8655376992   -0.0796127456
 C    0.1725098664   -3.2823080173   -0.2971266982
 N    0.2531663946   -4.4264644876   -0.4415959405
 C    0.5163899643   -1.0119448050    1.1493600865
 C   -0.8762544181   -1.0839872915    1.8090373605
 C   -1.2121751469   -1.0271172634    0.3044641190
 H    1.1010680349    1.7337909204   -0.2637819447
 H   -0.4937149239    1.7194861009   -1.0450818592
 H   -0.3703447691    1.8970783594    0.7182407741
 H    1.5134377465   -1.0221430400    1.5881793528
 H   -1.1221799395   -2.0124911290    2.3288377900
 H   -1.1753244566   -0.2189049538    2.4053695380
 H   -2.1706708639   -1.0544967738   -0.2125527426