17

 C   -0.2497734054    1.5130939604   -0.0793832704
 C    0.1910572127    0.0511205703    0.0203968516
 N    0.8250348800   -0.4413313561   -1.1854238582
 C    0.3018640045   -0.7000934088   -2.5304403073
 C    1.7280616602   -1.2190814324   -2.9131380909
 C    2.1071893385   -0.8714677727   -1.4550887271
 O    3.0950976073   -0.9234618212   -0.7765964330
 C   -0.7843750382   -1.6815071048   -2.5845317071
 N   -1.6511578358   -2.4453153749   -2.6134541055
 H    0.6040564019    2.1657815302   -0.2822272008
 H   -0.9888099199    1.6541020814   -0.8747846291
 H   -0.7111799253    1.8302241187    0.8603673247
 H    0.9331860062   -0.0775561989    0.8139022115
 H   -0.6649293871   -0.5912459418    0.2633395871
 H   -0.0072745761    0.2013794502   -3.0706891797
 H    1.7802490050   -2.2810701462   -3.1539770759
 H    2.2378697015   -0.6331297733   -3.6785329898