18

 C   -0.0189588421    1.5240543752   -0.0460220171
 C   -0.0235587011    0.0221125935    0.0339186079
 C   -1.2985476285   -0.7483793132   -0.2981021747
 N   -0.9926692014   -2.1109194747    0.1471999250
 C   -0.2217910638   -2.0016349476    1.3882747716
 C    0.6570229456   -0.7842969152    1.1079742997
 N    1.2360581267   -0.6714750414   -0.2453850914
 C    1.3999762417   -0.2050959878    2.1948619918
 N    1.9687685437    0.2580333813    3.0888466286
 H    0.9301984074    1.9233768371    0.3170035920
 H   -0.1500616856    1.8509714123   -1.0832027760
 H   -0.8312608617    1.9512106247    0.5507610106
 H   -2.1397706692   -0.2731974654    0.2358765190
 H   -1.5333680722   -0.7399141001   -1.3692197132
 H   -1.8116665186   -2.6973084630    0.2400564549
 H   -0.8238491723   -1.7954142631    2.2892051375
 H    0.3538152219   -2.9164612590    1.5669701460
 H    1.0564388095   -1.5450866436   -0.7402536623