18

 O   -0.0171509271    1.4152250146   -0.0402506919
 C   -0.0344272869   -0.0004364275   -0.0543088150
 C   -1.4437139074   -0.4938723094   -0.0385759982
 C   -2.5569452892    0.2424136269    0.0075700568
 C   -3.7970788989   -0.6201133994    0.0540611646
 C   -3.2703447922   -2.0049674688   -0.3996773792
 O   -3.4560437275   -2.1999902039   -1.7958276038
 C   -1.7656883209   -1.9746255190   -0.0295833982
 H    0.8997875492    1.7033461174   -0.0427156728
 H    0.4789538039   -0.4006718366   -0.9475221593
 H    0.5038668565   -0.4188715325    0.8155928131
 H   -2.5723295679    1.3241146756    0.0441763355
 H   -4.2123579921   -0.6596910231    1.0713215546
 H   -4.6058754932   -0.2843278822   -0.6040772696
 H   -3.8000052517   -2.8352973131    0.0733834789
 H   -3.0333078551   -1.4573886326   -2.2430430242
 H   -1.1839310809   -2.5667890835   -0.7454873058
 H   -1.5847629486   -2.4077779829    0.9647520145