16

 O    0.0129769291   -0.0828002788   -0.0056815984
 C   -0.0059182993    1.1317217903    0.0029057202
 C   -1.3209068648    1.9175348869    0.0052128285
 N   -1.2424890430    3.3475464649   -0.2977437772
 C   -0.1009505717    3.9600571791    0.3774033922
 C    1.2406722728    3.3259255865   -0.0413289059
 N    1.1386655242    1.8809699160    0.0770857849
 C   -0.0725694111    5.4073630599    0.1354270351
 N   -0.0189544712    6.5422617087   -0.0708079185
 H   -1.9974622648    1.4324418381   -0.7009688478
 H   -1.7647957261    1.7843412389    1.0009439980
 H   -1.1578920845    3.4928101341   -1.2994412334
 H   -0.2381961499    3.8020257048    1.4556870956
 H    1.4743170426    3.6340236878   -1.0711191126
 H    2.0493748084    3.6910458233    0.6010822928
 H    1.9898479692    1.3371656996    0.0494162566