14

 O   -0.6814998488    0.7602956429    0.6578801008
 C    0.2125790225    0.9052644617   -0.1331814558
 C    1.3290643109    1.9395331271    0.0169141186
 C    1.4393341211    2.5426334841    1.4335830437
 O    2.7379057165    2.0971051653    1.8927400893
 C    3.2865635668    1.4167782817    0.8541889742
 N    2.6222533960    1.2846856366   -0.2294927712
 C    4.5937941164    0.9006128473    1.0794785892
 C    5.6967974610    0.4693517187    1.2788928123
 H    0.2993293096    0.2857219357   -1.0492797828
 H    1.1536407425    2.6988388268   -0.7583855518
 H    1.4291866227    3.6346011090    1.4475907823
 H    0.6699837610    2.1542671780    2.1046052273
 H    6.6729040720    0.0847424251    1.4481386340