20

 C    0.1044052108    1.5136149838    0.1921851431
 C   -0.0366407599    0.0192625401   -0.1292552900
 C   -1.4599898955   -0.4530854841   -0.0339380178
 C   -2.0659357656   -1.0034010820    1.1999308329
 N   -1.8582642570   -1.9180656916    0.0608760452
 C   -2.9953179841   -1.6210995016   -0.8775418850
 C   -2.5318377309   -0.1502131972   -1.1025845746
 C   -3.4898325930    0.9841265618   -0.8513825554
 O   -3.6938903318    1.8873030520   -1.6232265118
 H    1.1456218606    1.8356540420    0.1012452378
 H   -0.4935556046    2.1254628666   -0.4916117692
 H   -0.2288435760    1.7312525281    1.2121547631
 H    0.3428471742   -0.1817472243   -1.1390540654
 H    0.5749545405   -0.5777898460    0.5570104805
 H   -1.3912456611   -1.1995657339    2.0277460327
 H   -3.0820029182   -0.7586833195    1.5007595221
 H   -2.9241810178   -2.2321642023   -1.7780196912
 H   -3.9838001466   -1.7619188197   -0.4260464553
 H   -2.0871906841   -0.0085313061   -2.0898057279
 H   -4.0191451298    0.9440445439    0.1284258662