27

 C    0.0125423965    1.5980725762    0.1218061843
 C    0.0143335962    0.0691202071    0.0396852683
 C    0.6943921103   -0.4639930674   -1.2254806917
 C    0.6978142136   -1.9928788733   -1.3186464847
 C    1.4359332273   -2.5328804757   -2.5502338080
 O    2.7910063450   -2.0779172833   -2.5865746652
 C    1.3569748468   -4.0608818327   -2.6566616202
 C    2.0162809747   -4.6245097832   -3.9196287670
 C    1.9847167844   -6.1534861702   -3.9835693449
 H    1.0337198088    1.9951830455    0.1159396585
 H   -0.5161656221    2.0393712347   -0.7304918989
 H   -0.4767807642    1.9503114194    1.0354318618
 H    0.5185332937   -0.3441414978    0.9237881280
 H   -1.0188570836   -0.3013482141    0.0825722059
 H    0.1903704499   -0.0503628176   -2.1103617621
 H    1.7287171494   -0.1041879739   -1.2733523245
 H    1.1633759930   -2.4184555913   -0.4158482207
 H   -0.3338746963   -2.3690418519   -1.3311420170
 H    0.9863075705   -2.0934290508   -3.4513503172
 H    3.2356805254   -2.4376919590   -1.8101901967
 H    1.8299084571   -4.5003775252   -1.7643215980
 H    0.3023583049   -4.3652195368   -2.6188105697
 H    1.5114506291   -4.2094188069   -4.8021301828
 H    3.0498494182   -4.2655827559   -3.9670059619
 H    2.5118169272   -6.5976697951   -3.1313870291
 H    0.9565622379   -6.5327334286   -3.9667299671
 H    2.4602937062   -6.5243009320   -4.8970306491