15

 C   -0.0553395733    1.4610431599    0.0267024787
 N   -0.0138555789    0.0157459568   -0.0006954112
 C   -0.0119435527   -0.7713682736   -1.1542957282
 C    0.0957766913   -2.0772488099   -0.7558013917
 O    0.1157051315   -3.1424296133   -1.6111631736
 C    0.1727806513   -2.1141037762    0.6707587493
 C    0.1042551911   -0.7991573983    1.0802534161
 O    0.1393723982   -0.2265638236    2.3132611959
 H    0.8956899579    1.8983682514   -0.2999507748
 H   -0.8509750124    1.8256326093   -0.6299207841
 H   -0.2603581857    1.7920244357    1.0448780313
 H   -0.0936884816   -0.3304949457   -2.1322117967
 H    0.2147722722   -3.9447321051   -1.0918093325
 H    0.2583997331   -2.9841530635    1.3044403598
 H    0.1411492980   -0.9287591839    2.9697530817