23

 C   -0.2277612482    1.5804368044    0.0904656691
 C    0.1633061860    0.1003873867   -0.0748414422
 C    0.8520564010   -0.4432166623    1.0920787870
 C    1.4213921928   -0.8617544375    2.0682163541
 C    2.0992916320   -1.3965943103    3.2444193912
 C    2.0713441529   -2.9413434616    3.3296415504
 C    2.7964601396   -3.5966538896    2.1506206345
 C    2.6604230563   -3.3892467939    4.6674363660
 O    2.5074861552   -4.7964154737    4.7756103397
 H    0.6580198164    2.1996925285    0.2563738260
 H   -0.7398011502    1.9434788838   -0.8058597280
 H   -0.8953245717    1.7123917128    0.9463663464
 H   -0.7372231435   -0.4938263150   -0.2774927143
 H    0.8009535779   -0.0111264262   -0.9614828170
 H    3.1450831917   -1.0567242796    3.2518822108
 H    1.6386831910   -0.9763567367    4.1489964041
 H    1.0215393860   -3.2600696801    3.3166470409
 H    3.8485996417   -3.2860681971    2.1211768757
 H    2.7683626157   -4.6841708953    2.2437356561
 H    2.3355985310   -3.3089737120    1.2021278561
 H    3.7242874785   -3.0995246261    4.7152976848
 H    2.1424196407   -2.8725563800    5.4921230601
 H    2.9333906873   -5.0847122689    5.5877137086