12

 O    0.0610522416    0.0857512156   -0.7933252011
 C    0.0424767847    1.1827263885   -0.3098410160
 N   -1.1763547287    1.8796836360   -0.1353358959
 C   -1.3994764940    3.1391962526    0.3647911774
 N   -0.6251051090    4.1620303787    0.3444420186
 C    0.6277394580    4.1132954164   -0.2355788159
 N    1.4953529192    3.1725354713   -0.2342300274
 C    1.2607240034    1.9155773724    0.2923626238
 O    1.9563411363    1.3514597043    1.0948877904
 H   -1.9853932237    1.2795690612   -0.2507173044
 H   -2.3940324130    3.2613463526    0.7923350023
 H    0.9094492452    5.0516912603   -0.7133277418