16

 C   -0.1398997852    1.5362029419    0.0137613450
 C    0.1085200693    0.0395716747    0.0522761597
 N    1.2233010070   -0.4528863787   -0.8431468878
 C    1.7748504839   -1.2356853281    0.2893619425
 C    2.2589129693   -0.2637761693    1.3309232923
 C    0.7915043105   -0.5943530321    1.2750372276
 C    2.2133506439   -2.5841335324    0.1625179366
 N    2.5585741996   -3.6825704834    0.0380341070
 H    0.7710872268    2.0947006188    0.2444111218
 H   -0.4797680047    1.8426720308   -0.9806823934
 H   -0.9132460098    1.8153500810    0.7374792281
 H   -0.8207368384   -0.5033675067   -0.1555266170
 H    0.8640234112   -1.0626494833   -1.5709141924
 H    2.7867186456   -0.6988100773    2.1725056440
 H    2.6400770605    0.6900816438    0.9799793441
 H    0.2785093804   -1.0473380096    2.1129382622