16

 C   -0.0102080298    1.3654820680    0.0781384383
 N   -0.0323224990   -0.0692574925   -0.1032644458
 C    0.6313797205   -0.6561586642   -1.1418231193
 N    1.1875008839    0.0334772137   -2.0678971175
 C    0.6331674838   -2.1408637232   -1.1015925640
 N    0.0860159525   -2.8384859931   -0.1137145034
 N    0.3329704674   -4.1123197999   -0.4886147529
 C    1.0022481603   -4.1314929097   -1.6603783219
 N    1.2107584923   -2.9018618248   -2.0778988145
 H    0.9990110088    1.7431910288    0.2902804707
 H   -0.3580716142    1.8615496250   -0.8320774584
 H   -0.6726624152    1.6290870666    0.9056388943
 H   -0.2872227982   -0.6606382121    0.6689968572
 H    1.5908651582   -0.5983408343   -2.7579204657
 H    0.0215325412   -4.8777983245    0.0873601615
 H    1.3061958575   -5.0419679938   -2.1544768687