19

 C   -0.0693708621    1.5910711168    0.0528152697
 C    0.0148300211    0.0580816873    0.0093538709
 C    0.7771032054   -0.4805055988   -1.1912281545
 C    1.7709898687   -1.2998825271   -0.8469821499
 C    1.8674238596   -1.4315075528    0.6444905994
 C    2.3415474301   -2.7111338016    1.2816522335
 N    2.2010767985   -0.1145157381    1.2687907009
 C    0.7881723837   -0.5572928453    1.1782968115
 H    0.9335046757    2.0176890903    0.1321616739
 H   -0.5474000439    1.9855182304   -0.8498374083
 H   -0.6564796712    1.9254481384    0.9145837287
 H   -1.0087732923   -0.3455057474    0.0064582640
 H    0.5364408975   -0.1767874227   -2.2048643782
 H    2.4529875198   -1.7962395319   -1.5282541624
 H    3.4013467104   -2.8914206651    1.0663499405
 H    2.2219809846   -2.6779076803    2.3697647136
 H    1.7758825483   -3.5711413891    0.9070617663
 H    2.5195369827   -0.2823024547    2.2230160453
 H    0.2659565934   -0.7984030281    2.0991725351