11

 O    0.0413371303   -0.0325351712   -0.0743334591
 C    0.0232727324    1.1669492061   -0.0092016855
 N   -1.1126873580    1.9686761831    0.1162845873
 C   -0.8818844352    3.3416785100    0.0137541031
 O   -1.7206170065    4.2007337241   -0.0296388781
 C    0.6294277912    3.4916866901   -0.0501081943
 O    1.2542522598    2.9432699413    1.1171118890
 C    1.1942615807    2.1346161696   -0.0644317860
 H   -2.0371123354    1.5825451332    0.2460251422
 H    1.0804474744    4.3714262162   -0.4935891127
 H    2.1329125663    1.8427723675   -0.5202798659