14

 N    0.1307732911    1.0418928884    0.6032393229
 C    0.0898012981   -0.0419541875   -0.2257333084
 O    1.0193690468   -0.3688280903   -0.9365182573
 C   -1.2153757760   -0.7929073675   -0.2152384442
 C   -1.4883822704   -1.6951524454   -1.3839611029
 C   -1.1767039375   -2.3176998748   -0.0462274621
 C    0.0551667138   -3.0208815824    0.1890244148
 N    1.0071382879   -3.6355159509    0.4188677987
 H    1.0188322879    1.5058193091    0.7113871404
 H   -0.5686084296    1.1929961504    1.3094130807
 H   -2.0579346373   -0.3071287796    0.2656101158
 H   -2.5037957961   -1.7839314907   -1.7498773884
 H   -0.6997459169   -1.7274165616   -2.1260541493
 H   -2.0140549419   -2.7349857271    0.5037136495