16

 C    0.0612506445   -1.1671133380    0.0036695719
 C    0.0030223775    0.0328717855   -0.0366338011
 C   -0.1106219199    1.4588002211   -0.0776386022
 C   -1.2975408398    2.1582861104    0.4891713988
 C   -1.3600243017    3.4050382265    0.0071959250
 C   -0.1246169623    3.6738149822   -0.8122541289
 C    1.0743768331    3.6239719105    0.2055165629
 N    1.2859939393    2.1682889612   -0.0254934569
 C    0.4020069383    2.2673335553   -1.2187701930
 H    0.1250663801   -2.2263171608    0.0390690058
 H   -1.9524904950    1.6948424183    1.2141955991
 H   -2.0592495451    4.1755875790    0.3075529414
 H   -0.1577631524    4.4878823621   -1.5332669858
 H    1.9593414060    4.1344383243   -0.1819018910
 H    0.8790715768    3.9289681938    1.2379121783
 H    0.6677417906    1.8797254786   -2.1972122241