23

 C    0.0333253244    1.5460729539   -0.0581210501
 C    0.0707047746    0.0092700681   -0.0538461062
 C    0.7605012006   -0.5324004727   -1.3139324815
 C    0.6923313232   -0.5098517160    1.2351526128
 C    2.2164284383   -0.3032151940    1.5160270032
 C    2.3707707164   -1.8245214356    1.8292131481
 C    0.8516118115   -2.0116958660    1.6387529742
 O    0.1069280354   -1.8051148135    2.8559864216
 C   -0.1518104395   -0.4225711956    2.5245609738
 H    1.0466973139    1.9633927988   -0.0416389149
 H   -0.4660836903    1.9239190045   -0.9560561309
 H   -0.5034232411    1.9383624569    0.8121589873
 H   -0.9682134297   -0.3518209915   -0.0698823197
 H    1.7914951479   -0.1722311875   -1.3986108858
 H    0.7845681897   -1.6270008812   -1.3195413026
 H    0.2279774082   -0.2064710495   -2.2132125208
 H    2.7916446927    0.0239842099    0.6473119537
 H    2.4376599853    0.3766745524    2.3431032969
 H    2.9671517548   -2.3566391446    1.0824213272
 H    2.7292428542   -2.0900192710    2.8259572703
 H    0.4848409471   -2.8723843681    1.0708212997
 H    0.1992279271    0.2666845571    3.3036180108
 H   -1.2237297646   -0.2490851548    2.3525386927