22

 C   -0.2101094813    1.5257363713    0.1512559219
 C   -0.0395239398    0.0204269557    0.0240828494
 O   -1.3235129657   -0.5524188810   -0.1590006790
 C   -1.3967914081   -1.9619739388   -0.0555477477
 C   -0.5908732624   -2.6771208821   -1.1367979062
 C   -1.2270318474   -2.5811304725    1.3705594719
 N   -2.6229858502   -3.1453681429    1.3480543103
 C   -3.5095869161   -1.9724001131    1.2440031015
 C   -2.8441848457   -2.4394402496    0.0158944818
 H    0.7622146837    2.0116984458    0.2767925904
 H   -0.6883720337    1.9321244275   -0.7445010837
 H   -0.8370017104    1.7709832386    1.0132777033
 H    0.6202491555   -0.2145780703   -0.8246497684
 H    0.4380191802   -0.3887037996    0.9289801831
 H    0.4848703501   -2.5236957308   -1.0089863209
 H   -0.7806892976   -3.7536462801   -1.1006829021
 H   -0.8784038173   -2.3067637446   -2.1262537092
 H   -0.4907972983   -3.3858062708    1.4264455644
 H   -1.0564957183   -1.8717678118    2.1869168290
 H   -4.5587036614   -2.2236121646    1.3659668577
 H   -3.2030347000   -1.0313032417    1.6931005998
 H   -3.3772933958   -2.9157542946   -0.8012473374