21

 C    0.0407940647    1.7972335342    0.0466413534
 C    0.0376798868    0.2612150448    0.0553952595
 C    0.6939873053   -0.3575752229   -1.1926983743
 C   -0.0726410745   -0.0869889175   -2.5039429504
 C    0.5400661394   -0.7388283982   -3.6550901511
 C    1.0668861370   -1.2840197065   -4.5878860295
 C    0.7400761297   -0.2477360638    1.2978411909
 C    0.0184813643   -0.6029276444    2.5254028908
 O    0.5197476289   -1.6150755668    1.6485199794
 H    1.0637648646    2.1869093088   -0.0130713384
 H   -0.5174143706    2.1997884700   -0.8028530000
 H   -0.4150509880    2.1950487633    0.9588976511
 H   -1.0011686998   -0.0931535378    0.1060176061
 H    1.7204445952    0.0164619014   -1.2956017799
 H    0.7669445203   -1.4399776851   -1.0474546104
 H   -1.1089828230   -0.4346158579   -2.3966201251
 H   -0.1320576508    0.9914992600   -2.6942304619
 H    1.5228195472   -1.7637861248   -5.4179253767
 H    1.7816129058    0.0687669590    1.3988088762
 H    0.5154319092   -0.5328495356    3.4920596415
 H   -1.0666580517   -0.5081613800    2.5549639787