18

 C   -0.0525930075    1.6824783908   -0.0965649309
 C    0.1696823886    0.1777224288    0.0956998568
 C    0.7700024146   -0.4709279594   -1.1520085987
 C    0.9245129273   -2.0111273664   -1.2698357474
 C    0.3974200551   -2.9139565660   -0.1765917090
 O    0.0319642475   -2.0022615042   -2.4443333475
 C   -0.1581505137   -0.6482491479   -2.3565005201
 O   -0.8531694707    0.0335273047   -3.0420283175
 H    0.8954417436    2.2008931466   -0.2771498588
 H   -0.7050522694    1.8710554944   -0.9535765739
 H   -0.5125694775    2.1251275631    0.7915696032
 H    0.8402635992    0.0011167489    0.9457277490
 H   -0.7825633906   -0.3029147076    0.3453851702
 H    1.6842916813    0.0577826252   -1.4418291316
 H    1.9216801229   -2.3256270834   -1.5910910661
 H   -0.6187753219   -2.6390891212    0.1167487510
 H    0.3836877136   -3.9518169120   -0.5214669608
 H    1.0431910876   -2.8574373544    0.7057674021