17

 C    0.3042197713    1.5579141012   -0.4761274301
 N    0.0461422002    0.1715779593   -0.0937018626
 C    1.1828609602   -0.7245250668    0.0050373113
 C    0.4573144108   -0.3032982839    1.2417831307
 C    1.1294567448    0.5613807481    2.2273954911
 N    2.2358398541    1.2791150571    2.0812481652
 C    2.3812131954    1.8772484774    3.2947949462
 N    1.4522826628    1.5799114616    4.1874668129
 N    0.6566714096    0.7400540380    3.4828292348
 H    1.2543974763    1.9581535053   -0.1014405292
 H    0.3028992334    1.6079401259   -1.5691860659
 H   -0.5128123838    2.1864202037   -0.1078266593
 H    1.0391900858   -1.7290993783   -0.3847339539
 H    2.1801076927   -0.3075372484   -0.1217686868
 H   -0.2633817923   -0.9874610792    1.6862449831
 H    3.1972228348    2.5447712731    3.5278883852
 H   -0.1605204259    0.3421272459    3.9165139975