16

 C   -1.3480500008    0.6513411078    0.3119851330
 N   -0.1283350334   -0.1004751119    0.0550156482
 C    0.8709136946   -0.1794112692    1.0172646907
 N    0.7527069207    0.3972585867    2.1445334850
 C    0.0372777641   -0.7383339747   -1.1534856531
 N    1.0822116759   -1.4554185546   -1.5338072642
 C    0.7302402855   -1.8471741735   -2.7915750990
 N   -0.4442546466   -1.4308131682   -3.2177634724
 N   -0.8864381341   -0.7087569888   -2.1418552619
 H   -1.4632758793    1.4682930787   -0.4099054979
 H   -2.2274654674   -0.0014106296    0.2634314994
 H   -1.2661952554    1.0679373464    1.3144987081
 H    1.7146443364   -0.7763349743    0.6688545221
 H    1.5793829274    0.2280347475    2.7122196924
 H    1.3695912456   -2.4616307991   -3.4078163494
 H   -1.7839782430   -0.2580063733   -2.1756211809