18

 O   -0.1847758914    0.0169944001   -0.2716079726
 C   -0.1096314577    1.1550504045    0.1312629930
 C    1.1436151701    1.9407238120    0.0971396289
 C    1.2399664997    3.4424193164   -0.1915001045
 C    0.0107582018    4.3375148691   -0.0801440040
 C   -0.5503808892    4.1288677272    1.3511723543
 C    0.5988976143    3.4973958924    2.1803150973
 C    1.5945577686    2.9358993993    1.1714197660
 H   -1.0051416750    1.6576365029    0.5504527378
 H    1.9529614410    1.3562064271   -0.3305718955
 H    2.0035511568    3.7210339857   -0.9095153680
 H    0.3384244915    5.3744171106   -0.2149133752
 H   -0.7398796112    4.1432706950   -0.8527983604
 H   -0.8903465496    5.0707249503    1.7896802800
 H   -1.4230479048    3.4710121789    1.3337356058
 H    1.1142355694    4.2662237958    2.7668500512
 H    0.2348224526    2.7509759733    2.8934021580
 H    2.6269443832    2.8304541995    1.4865236578