20

 C    0.0818968609    1.5302692997   -0.0189696172
 C   -0.0465487322   -0.0067768275    0.0225848876
 C   -1.5148236173   -0.4370715898    0.0443520854
 C    0.7634051484   -0.6383267261   -1.1346787225
 O    2.1169875597   -0.6578669644   -0.6949554075
 C    2.1040685749   -1.0079505034    0.6814346998
 C    0.7587817699   -0.5479949145    1.1939368290
 N    0.3097784120   -0.5981370543    2.3798571739
 O    1.2730100767   -1.1386805639    3.2559507081
 H    1.1303409287    1.8320559465   -0.0975705117
 H   -0.4556779228    1.9332614789   -0.8843383147
 H   -0.3379493517    1.9752598438    0.8874282580
 H   -2.0384847344   -0.0682200403   -0.8443521369
 H   -1.6090196292   -1.5269348438    0.0706180266
 H   -2.0186722523   -0.0373273492    0.9281513823
 H    0.4052219536   -1.6608390110   -1.3400127703
 H    0.7211075797   -0.0599049254   -2.0611938969
 H    2.2109879629   -2.0950759506    0.8296347230
 H    2.9428157615   -0.5208290607    1.1876655035
 H    0.8099734208   -1.1315272539    4.1003063306