23

 C    0.2997113064    1.4322179177    0.4995601314
 C    0.3281405807   -0.0470065373    0.1255796566
 C    0.4180307912   -0.3038507768   -1.3729478842
 O    0.3569861496    0.5990707572   -2.1805530872
 C    0.6239221614   -1.7424801976   -1.7977889335
 C    0.3252256694   -2.1172357091   -3.2693268079
 C    1.6450896587   -2.9285617301   -3.3200256285
 C    2.1214255007   -2.2165084963   -2.0200716790
 C    3.1450691107   -1.1096446433   -2.2544205427
 H    1.2127914661    1.9361654008    0.1712435785
 H   -0.5393494446    1.9376030425    0.0153576961
 H    0.2058021275    1.5583254834    1.5818530131
 H    1.1640835823   -0.5708927607    0.6103781483
 H   -0.5723628516   -0.5639593548    0.4883361369
 H    0.1329465992   -2.4135016427   -1.0862916599
 H   -0.6048059592   -2.6579177763   -3.4577265984
 H    0.3486721204   -1.2244481700   -3.8975871204
 H    1.4856591562   -3.9999968706   -3.1710654717
 H    2.2778494242   -2.7938196592   -4.2016496030
 H    2.4813321991   -2.8879929339   -1.2351380467
 H    2.7995059689   -0.3925127224   -3.0049796932
 H    3.3576556839   -0.5501930286   -1.3365699192
 H    4.0885119389   -1.5416047718   -2.6055582453