13

 O    0.0708492339    1.3502510010    0.2439285125
 C    0.0850729822    0.0261871233   -0.0176910679
 C    0.2170960662   -0.7599150871   -1.1273053891
 O    0.5207886823   -0.7540313937   -2.4694347576
 C    0.2913801546   -2.1306371081   -2.8378906850
 O    0.3504134616   -2.9538937956   -1.6572953841
 C    0.1324014048   -2.0656274486   -0.6479565981
 N   -0.0546338598   -2.1890395790    0.6389631002
 N   -0.0327107931   -0.8558216934    1.0345524199
 H    0.1780924015    1.8319190250   -0.5826246317
 H   -0.7095303853   -2.2213035948   -3.2838450043
 H    1.0703360796   -2.4471905624   -3.5335790306
 H   -0.4638418186   -0.6245330067    1.9144430358