19

 O    0.1023097195    1.3385758206    0.3502148388
 C    0.0438712387   -0.0764743038    0.2885168129
 C   -1.3820772522   -0.4650946426   -0.0790700230
 C   -1.5645681976   -1.9765995074   -0.1839431815
 C   -2.9770727927   -2.4026232757   -0.5387590708
 O   -3.8820678315   -1.6201870273   -0.7125031682
 C   -3.2301211987   -3.9101476450   -0.6412120536
 C   -4.3320162426   -4.3302953799    0.3223652987
 O   -4.2554712934   -5.2794060956    1.0556005095
 H    0.9979380702    1.5944466867    0.5887400583
 H    0.7458275981   -0.4734631179   -0.4644268292
 H    0.3177528997   -0.5310259480    1.2555625161
 H   -2.0692713153   -0.0580045152    0.6690278237
 H   -1.6490181175    0.0098143896   -1.0283879572
 H   -0.8889319921   -2.4134858477   -0.9345508375
 H   -1.2983732326   -2.4825387951    0.7567268536
 H   -3.6040299312   -4.0988156156   -1.6562967551
 H   -2.3400028676   -4.5175860569   -0.4675785412
 H   -5.2252727812   -3.6726798230    0.2934400257