15

 N    0.1454760097    0.9482446844   -0.9555067664
 C   -0.0079081699    0.1038104697   -0.0241434441
 O    0.9794512319   -0.0731336030    0.9406177871
 C    1.5072957966   -1.3314980312    1.2386412248
 O    2.6516013243   -1.5928221130    0.9904845628
 N    0.6291984975   -2.1467559453    1.8716665556
 C   -0.7173422367   -1.7843892701    2.2860352441
 C   -1.6220299188   -1.4112597248    1.1363800270
 C   -1.2778233318   -0.6142738481    0.1233535294
 H    1.0731803418    1.3718294583   -0.8960662500
 H    0.9993296291   -3.0475159944    2.1275602716
 H   -1.1299898723   -2.6485172436    2.8109993671
 H   -0.6835223711   -0.9617414901    3.0145727835
 H   -2.6263514622   -1.8240721930    1.1566989469
 H   -1.9798755580   -0.3995945158   -0.6742277794