18

 O   -0.1057419201    1.3639754956   -0.6250309519
 C    0.0362380699    0.1068893801    0.0233621363
 C   -1.3343743007   -0.5107879352    0.1197033880
 C   -1.9050828768   -1.3046708295   -1.0289163187
 C   -1.5578359841   -1.9992068875    0.2664864025
 C   -0.4270133036   -3.0126675075    0.3362210887
 C   -0.9077606106   -4.3986196701   -0.0453314352
 O   -0.3625391971   -5.1240621432   -0.8353891155
 H    0.7533502509    1.7966285005   -0.6279536733
 H    0.7157912474   -0.5514700581   -0.5389065693
 H    0.4626955435    0.2309808923    1.0323629821
 H   -2.0365285257    0.1187846136    0.6595179111
 H   -2.9480740535   -1.1717006795   -1.2926438093
 H   -1.2511262412   -1.4808052335   -1.8777090282
 H   -2.4033974522   -2.2649902464    0.8970711720
 H    0.4119946447   -2.7566353104   -0.3146145721
 H   -0.0459370214   -3.0745362433    1.3672973005
 H   -1.8403383994   -4.7188546381    0.4774765022