14

 N    0.0041761335    1.3336274985   -0.1272655592
 C   -0.0650667897   -0.0248482310   -0.0466875515
 C   -1.2424433861   -0.7306715918    0.0185747790
 O   -2.4342537633   -0.0258211493    0.1180543712
 C   -1.1627631518   -2.1346539354    0.0709354575
 C    0.0369780252   -2.7905520503    0.0312095672
 C    1.2743677258   -2.0730766292   -0.0436608071
 O    2.4050682031   -2.4716489343   -0.0830554784
 O    1.1163774008   -0.6363146661   -0.0655682246
 H    0.8842222485    1.7503785082    0.1341257796
 H   -0.8302936234    1.8188971045    0.1645228561
 H   -2.8906822751   -0.0548642961   -0.7304655903
 H   -2.0904660196   -2.6948866034    0.1472516981
 H    0.1092432220   -3.8688107342    0.0665534122