23

 C    0.0054434885    1.5254715459   -0.2000482826
 C    1.3971580268    2.1757660120   -0.0010442732
 C    2.3379991958    1.3875447615    0.9305545393
 C    1.8499369335    1.2796314793    2.3880876100
 C    0.5278146929    0.4913745601    2.5603856311
 C    0.2290782053   -0.5035973561    1.4442487856
 C   -0.0359475906    0.0209531479    0.0441333371
 C    1.2228853293   -0.7664669225    0.3341952098
 C    2.5440025498   -0.0255374709    0.3616050379
 H   -0.7277996261    2.0076346899    0.4599510142
 H   -0.3400910668    1.7323316155   -1.2185107682
 H    1.8969281660    2.2557742313   -0.9741707596
 H    1.2768560074    3.2018933536    0.3645232029
 H    3.3038091141    1.9072228198    0.9423974311
 H    2.6416925745    0.7791398300    2.9588649785
 H    1.7443326187    2.2788040593    2.8257490153
 H    0.5547361659   -0.0412118203    3.5169802625
 H   -0.3144053228    1.1913922686    2.6402009878
 H   -0.3830050438   -1.3472014722    1.7505879001
 H   -0.8111764710   -0.4998553171   -0.5107871076
 H    1.2648213608   -1.7805294860   -0.0536457367
 H    2.9633422925    0.0349572504   -0.6512638276
 H    3.2714410595   -0.5744328100    0.9739310524