18

 C   -0.0633711821    1.5272599054   -0.1519546768
 C    1.4990937098    1.5661822568   -0.0269698491
 C    1.9595717639    1.3655334828   -1.4565179209
 C    2.0281081074    0.0528252168   -1.7056950165
 C    0.9648121399   -0.7673776151   -2.4384845518
 C    0.4929195041   -1.1007565580   -0.9691835109
 C    0.0406545186    0.0023618158    0.0920497288
 N    1.4553094358    0.1797500176    0.6168648468
 C    1.9169272854   -0.7628453303   -0.4336693597
 H   -0.5645945023    2.0125791089    0.6912021449
 H   -0.4985956879    1.8931114119   -1.0849637589
 H    1.9478098679    2.3557219348    0.5803450212
 H    1.7253029366    2.1203287997   -2.2017016487
 H    0.3065544891   -0.2179002786   -3.1147383242
 H    1.2988107774   -1.6937299064   -2.9196524315
 H    0.0109870071   -2.0713510707   -0.8273223218
 H   -0.6800655388   -0.4176675324    0.7982918832
 H    2.6765978683   -1.5066620290   -0.1843276941