14

 C    0.0720390334   -1.2556185369   -0.0944974458
 C    0.0385188907   -0.0563432156   -0.0274658294
 C   -0.0041795559    1.3880883686    0.0558291353
 C   -0.3025492875    2.0672233881    1.4541095171
 C    1.0373096717    2.8077660931    1.3224616598
 O    2.0637372218    1.8130824602    1.2110363954
 C    1.3451932107    2.1460792188    0.0337098627
 C    1.3846876491    4.1043281809    1.8132982206
 N    1.6205392354    5.1609081416    2.2195986672
 H    0.1073350661   -2.3155923196   -0.1521496988
 H   -0.6757044611    1.8016807575   -0.7029858200
 H   -1.1739851032    2.7217910386    1.4205495827
 H   -0.3589055237    1.3970054554    2.3117194641
 H    1.9105006725    2.4951967895   -0.8221884908