19

 C    0.0331975776    1.5041273628    0.0863118085
 C    0.0164773217    0.0028990579   -0.0352998352
 C    0.6399055759   -0.6399630716   -1.2924554210
 C    0.0745561005   -2.1068058474   -1.2639105556
 C   -0.7827860931   -2.1402207264    0.0273374030
 C    0.1655337844   -1.9659335856    1.2222078230
 O    0.6427444675   -0.6012722595    1.1167783947
 C   -1.3476645609   -0.7148608154   -0.0122849361
 O   -2.4664517170   -0.2885336643   -0.0345848082
 H    1.0585767748    1.8847785270    0.0756048513
 H   -0.5161822033    1.9540457332   -0.7452699258
 H   -0.4421005026    1.8136174118    1.0204550986
 H    0.3399811870   -0.1102226639   -2.2016913405
 H    1.7297855130   -0.6081042068   -1.2219140894
 H   -0.5418534253   -2.3116203025   -2.1430861256
 H    0.8678020273   -2.8584826964   -1.2324469924
 H   -1.5041346693   -2.9500880688    0.1114132049
 H   -0.3491246598   -2.0952282210    2.1824930243
 H    1.0202268314   -2.6530755732    1.1888606915