18

 C   -0.0554767163    1.3917943475    0.0243098089
 O   -0.0454254458   -0.0220569053    0.0026574298
 C    0.6220020812   -0.5793927871   -1.0470447526
 C    0.6573677378   -1.9470051755   -1.2707023513
 N    0.0323130497   -3.0139366809   -0.6042855399
 N    1.3931470318   -2.1211047519   -2.4037872223
 C    1.7312469382   -3.3777424256   -3.0307462716
 N    1.8541386198   -0.9596083921   -2.9069582659
 C    1.3747915722   -0.0135042431   -2.0936046020
 H    0.9610571004    1.7988656256    0.1136058666
 H   -0.5218263390    1.8033886345   -0.8811098214
 H   -0.6383499084    1.6889237923    0.8980465409
 H   -0.6954856523   -2.6526240486    0.0025251348
 H    0.6767472108   -3.5459967025   -0.0260538738
 H    0.9155029869   -4.0852442562   -2.8667774365
 H    1.8661480422   -3.1985785218   -4.0977678171
 H    2.6575186321   -3.7997851281   -2.6226855785
 H    1.5929793986    1.0242881487   -2.2930955080