19

 C   -0.6977665932    1.3250472912    0.1549936925
 C   -0.0011096281   -0.0216250695    0.0866633763
 O    1.0850935924   -0.0763838505   -0.8773646028
 C    2.0833724305   -0.4290251466    0.0955741911
 C    2.9310538092   -1.7155384074   -0.0565535058
 C    4.1194942684   -0.9406440366    0.5764490982
 C    3.3890739745    0.3878030182    0.2366394541
 C    1.0176248267   -0.3581460469    1.1875837548
 O    0.9946295845   -0.4822010579    2.3756275436
 H    0.0178102916    2.1271904558    0.3559768601
 H   -1.2010545761    1.5391997840   -0.7923488910
 H   -1.4476023988    1.3158655381    0.9521865853
 H   -0.7241555364   -0.8303727453   -0.0892824607
 H    2.5718413534   -2.6206255011    0.4383518153
 H    3.0922315634   -1.9214538296   -1.1184470217
 H    4.1793230454   -1.1036397742    1.6546230500
 H    5.1063341217   -1.0948204096    0.1377417409
 H    3.6816974769    0.7815748797   -0.7407450991
 H    3.4011847041    1.1953706082    0.9721059788