20

 C    0.0130507624    1.4493928948   -0.0013183771
 N    0.0156373954   -0.0081629256    0.0042291629
 C   -0.0424310602   -0.6560737956    1.2177815643
 O   -0.0793186871   -0.1033701238    2.2961842294
 C    0.0471634819   -0.6872629541   -1.2170159844
 C    0.0148764840   -0.1202520341   -2.4320208384
 C    0.0090346728   -1.1459734548   -3.5359330476
 C    0.3795396478   -2.4589003435   -2.8017296592
 C    0.0825889698   -2.2024653633   -1.3041132404
 H    0.8940745190    1.8261111207   -0.5301153422
 H   -0.8846332064    1.8298166190   -0.5000915965
 H    0.0277591207    1.7835179091    1.0345586953
 H   -0.0557114971   -1.7511931101    1.1117924040
 H   -0.0531985048    0.9418972296   -2.6252891330
 H   -0.9818128308   -1.2095213960   -4.0089378494
 H    0.7147483114   -0.9115155530   -4.3411916895
 H   -0.1569028620   -3.3289685380   -3.1873710088
 H    1.4480820846   -2.6568226352   -2.9273890203
 H    0.8431347710   -2.6520896418   -0.6571777712
 H   -0.8812443924   -2.6302132444   -0.9958240580