21

 C   -0.0091128490    1.3717418342    0.0303432674
 O    0.0309326869   -0.0335809403   -0.0079492747
 C    0.6551133774   -0.5359583300   -1.1728051126
 C    0.6399115644   -2.0350606032   -1.1046187762
 C    1.4647627893   -2.8046270391   -0.0313936133
 C    1.5001218233   -3.9537073642   -1.0348309740
 C    0.1410483771   -3.9726589437   -1.7549049109
 C   -0.6942275424   -2.8347541394   -1.1752462434
 C    1.2320605515   -3.0267840363   -2.1961359086
 H    1.0013887186    1.8111635189    0.0155943174
 H   -0.5738239834    1.7890114173   -0.8190149613
 H   -0.5056857607    1.6611069069    0.9598813472
 H    0.1235868076   -0.1854130340   -2.0756722635
 H    1.6927771437   -0.1635097699   -1.2442778178
 H    2.4565483083   -2.3616703107    0.1017386809
 H    0.9948921433   -2.9590234974    0.9459957620
 H    2.1338725321   -4.8314413589   -1.0280920855
 H   -0.2011973353   -4.8639990556   -2.2652804216
 H   -1.2356122116   -2.9901624138   -0.2357470140
 H   -1.3708171423   -2.4150708926   -1.9260226000
 H    1.7316810611   -2.8803572182   -3.1429734073