18

 C   -0.0199158189    1.5245629670   -0.0236163304
 C    0.0090443687    0.0162790931    0.0309265322
 N   -1.2949618927   -0.6615610374    0.1187450606
 C   -0.9681007762   -1.4522732495    1.2107554003
 O   -1.5752929275   -2.3077224081    1.7958752210
 C    0.4336895690   -0.7951939797    1.2888796076
 C    1.5620285259   -1.4637065981    0.4596802868
 C    1.0401514169   -2.1792235492   -0.7514047324
 C    1.1401795189   -0.6823879252   -0.7886983035
 H    0.9853148299    1.9318725190    0.1236601346
 H   -0.3774743170    1.8746151973   -0.9995102422
 H   -0.6801756444    1.9301958417    0.7481992677
 H   -2.0307354850   -0.7900089759   -0.5631730299
 H    0.7267626845   -0.3039511042    2.2146325130
 H    2.5565629100   -1.6426174574    0.8464799622
 H    1.7980200187   -2.6952707587   -1.3322914131
 H    0.0770664792   -2.6811075036   -0.7405675777
 H    1.7596615799   -0.1627091812   -1.5102438566