17

 N   -0.0739239254    1.2655489235   -0.2853372657
 C   -0.0409658928    0.0414196865    0.0340224533
 O    1.1223692646   -0.5756047029    0.4079148967
 C    1.1074893303   -1.9723624596    0.7624770571
 C   -0.2809309642   -2.5879337235    0.6623194568
 C   -0.9188510587   -2.1693048370   -0.6884114474
 C   -1.2647490355   -0.8292266947    0.0297153898
 C   -1.2985509267   -1.6457634668    1.3576074723
 H    0.8621830161    1.6711614748   -0.2153809770
 H    1.8103430209   -2.4808018926    0.0913453909
 H    1.4960014249   -2.0474104722    1.7853919742
 H   -0.2473728067   -3.6444474160    0.9388897412
 H   -0.2805904068   -2.1293900869   -1.5752172503
 H   -1.8211861087   -2.7436867101   -0.9092476197
 H   -2.1310059888   -0.2486791925   -0.2795983044
 H   -2.2684893621   -2.1269345490    1.5010822739
 H   -0.9960610104   -1.1428768110    2.2801028086