22

 C   -0.3077571689    1.4415718015    0.0431819979
 C    0.1756869189   -0.0110206593   -0.0584827406
 C    0.8995573295   -0.4644922815    1.1733606652
 C    2.2655272089   -0.0127744809    1.6982476276
 C    2.1475602617   -1.1775002264    2.7234049415
 C    3.3618938415   -1.8249790349    3.3322647656
 C    0.9294780144   -0.7216737894    3.5488585476
 N    0.0496926105   -0.8954807208    2.3484856118
 C    1.0651512472   -1.8174563099    1.7558777063
 H    0.5314587624    2.1315978701    0.1821356419
 H   -0.8405963874    1.7436601763   -0.8633856053
 H   -0.9850978465    1.5592210138    0.8941619849
 H   -0.6804815777   -0.6750155434   -0.2215211104
 H    0.8375447879   -0.1267139156   -0.9266979420
 H    3.0434842875   -0.2043696793    0.9527639068
 H    2.3800384194    1.0015308415    2.0991863368
 H    3.9097421314   -1.1106452407    3.9586552972
 H    3.0860497789   -2.6771812642    3.9632307041
 H    4.0527121834   -2.1868404746    2.5628979619
 H    0.6247375261   -1.4480917092    4.3084252159
 H    0.9428092307    0.2858750207    3.9839924783
 H    0.8473403201   -2.8174898038    1.4011614369