14

 N    0.2059816769    1.4489629050    0.2446593165
 C    0.0285816358    0.0423712575    0.0268054890
 C   -1.4709876157   -0.4742378693   -0.0160264881
 N   -1.1282660406   -1.1416799578   -1.2951725279
 C    0.1093032067   -0.5858222616   -1.3828113027
 N    0.6620217101   -0.6476083538   -2.5416185045
 O   -0.3462253337   -1.3459619600   -3.3073479856
 C   -1.5016621227   -1.5658881451   -2.5635273526
 O   -2.5130442740   -2.0368160162   -2.9907105311
 H    1.1884046213    1.6848364384    0.3313871965
 H   -0.1704329974    1.9954244268   -0.5237327776
 H    0.6249773896   -0.5147625558    0.7524008891
 H   -1.7828482925   -1.1583870022    0.7734761452
 H   -2.1955222437    0.3344945141   -0.1333094962