18

 C   -0.0844429483    1.5413243405    0.0112779924
 C    0.0832042084    0.0314844107    0.0018569843
 O    1.1738945062   -0.4906354607   -0.0118592955
 C   -1.2028063328   -0.7886962408    0.0095406334
 C   -0.9675490416   -2.2977868885   -0.0008735653
 C   -2.2887425812   -3.0917417692    0.0072777552
 C   -2.0838415561   -4.5351833467   -0.0024714872
 C   -1.8901700569   -5.7213535937   -0.0107858479
 H    0.8940974325    2.0226299607    0.0043506741
 H   -0.6615631499    1.8677724903   -0.8612332577
 H   -0.6446534101    1.8586625604    0.8980486741
 H   -1.7913225287   -0.4864531693    0.8882138717
 H   -1.8077502617   -0.4770059100   -0.8545632565
 H   -0.3792101594   -2.5729706731   -0.8808988085
 H   -0.3627525865   -2.5824541735    0.8648639978
 H   -2.8798457806   -2.8146710681    0.8907813381
 H   -2.8963662623   -2.8051716973   -0.8618729768
 H   -1.7270692209   -6.7703266419   -0.0180607756