20

 C    0.0248361486    1.4523640380   -0.0268285980
 N    1.2103882997    0.5920593261    0.1613393049
 C   -0.1266235076   -0.0160615786    0.0046259562
 C   -0.6588031925   -0.8258383568    1.1778893535
 C   -0.3789572476   -2.2857888800    0.7525516972
 C   -0.5785690365   -2.3014878668   -0.7737647476
 C   -2.0295593985   -2.1643912564   -1.2783573663
 O   -1.8394044412   -0.7697671032   -1.6042679866
 C   -0.4398742824   -0.8223039301   -1.2367901602
 H   -0.2526327618    2.0410155286    0.8434095984
 H   -0.1085775510    1.9628156479   -0.9774612968
 H    1.7292043654    0.5324717025   -0.7132222515
 H   -0.1736796483   -0.5495658705    2.1160372919
 H   -1.7357725669   -0.6537963176    1.2853854422
 H    0.6613086677   -2.5394602234    0.9836401018
 H   -1.0152013150   -3.0135221015    1.2659063421
 H    0.0224696000   -3.0541456864   -1.2845479769
 H   -2.2737561971   -2.7575103852   -2.1685296577
 H   -2.8176561842   -2.3090872844   -0.5281097441
 H    0.2076063089   -0.5811271023   -2.0896472126