18

 C    0.4651128847    0.8320296326    0.5978120351
 C   -0.5288187705    0.1048830037   -0.2799935358
 O   -1.7246504658    0.1638153519   -0.1093934089
 C    0.0400658787   -0.7614201127   -1.4128616320
 C    0.1538217902   -2.2265165214   -0.9797851110
 C   -1.1293268538   -3.0257654978   -0.7984893543
 C   -0.2368851418   -3.3239342336   -1.9631836893
 C    1.2445411511   -2.5118325772   -0.0821324789
 N    2.1272791097   -2.7133469435    0.6391900451
 H    1.1949664712    0.1254172814    1.0096315266
 H    1.0315572303    1.5539729722   -0.0026644960
 H   -0.0536480428    1.3504568904    1.4046046254
 H   -0.6622407239   -0.7031098472   -2.2482560263
 H    1.0160089936   -0.3966796595   -1.7472157262
 H   -1.1645939553   -3.7384220112    0.0163685112
 H   -2.0454475452   -2.4705208653   -0.9604386609
 H   -0.5362899867   -2.9968111307   -2.9524979545
 H    0.3442639862   -4.2380882421   -1.9439629792