15

 O   -0.2699542470   -0.0434066826    0.0119544458
 C   -0.0850879726    1.1148862763    0.2801231557
 C    1.2164068925    1.8491118179    0.0107157985
 C    2.3412320971    0.9659064794   -0.6213137799
 C    2.2476004258    1.8060741101   -1.8991912924
 O    2.8145439583    1.7886780956   -2.9483067320
 C    1.1535387199    2.7176189904   -1.3116505981
 C    1.6514160207    2.6583015588    1.2096348951
 O    1.0758674259    2.6820289495    2.2664468060
 H   -0.8827607132    1.7437290996    0.7231401761
 H    3.3180494847    0.9995243595   -0.1293565428
 H    2.0302251164   -0.0765260315   -0.7371457000
 H    0.1951004000    2.7030445883   -1.8386557080
 H    1.4690695968    3.7600482151   -1.1946127051
 H    2.5789663945    3.2537952937    1.0413638309