23

 C   -0.0051007116    1.5846931070    0.0291497180
 C    0.0188954847    0.0485713867   -0.0087668967
 C    0.7808442912   -0.4968453061   -1.2029785266
 C    1.8381705844   -1.2290114317   -0.8407979146
 C    1.9479591947   -1.3556011190    0.6369514429
 C    0.7669422604   -0.5566137477    1.1881929449
 C    0.8158308313   -2.0531248345    1.3966035065
 C   -0.1591871012   -2.9875662508    0.7097336496
 C    1.1731234256   -2.4945450655    2.8063517470
 H    1.0122048546    1.9868210885    0.0755777746
 H   -0.4885522105    1.9941794666   -0.8640001421
 H   -0.5552842610    1.9458903765    0.9050052502
 H   -1.0230470839   -0.3038483742   -0.0344222443
 H    0.4660950587   -0.3056035745   -2.2237479957
 H    2.5314179271   -1.7076843152   -1.5240302952
 H    2.9281434439   -1.3452934082    1.1041554909
 H    0.8862316206    0.0702546317    2.0669187335
 H   -0.3298875383   -2.7217247945   -0.3348447361
 H    0.2144077826   -4.0180870337    0.7351545601
 H   -1.1271973374   -2.9783730783    1.2253914621
 H    0.2803394388   -2.5405180963    3.4416190243
 H    1.6280666384   -3.4921533162    2.8022468482
 H    1.8815094369   -1.8057134807    3.2774382785