21

 C   -0.0799619353    1.2231690233   -0.6173959944
 C    0.1721296711   -0.1200097855    0.0490509254
 C    1.4970128757   -0.7973640628   -0.2302329504
 C    1.2458465397   -0.1666422209    1.1158524900
 C   -1.0851346064   -0.9113454510    0.3040094319
 C   -2.0082099563   -1.3837068864   -0.7997772084
 O   -1.4913475136   -1.2809929585   -2.1073536637
 C   -1.3082144539   -2.4022809250    0.0682969154
 O   -0.3632672088   -3.2209312429   -0.5481286192
 H    0.8498228824    1.7934864979   -0.7132496620
 H   -0.5038144292    1.0869318737   -1.6167015442
 H   -0.7816997867    1.8295429573   -0.0315642836
 H    1.5289982172   -1.8770174785   -0.2745887023
 H    2.1730584407   -0.2923357188   -0.9127286906
 H    1.7558221654    0.7590459077    1.3623303685
 H    1.0963535450   -0.8327996373    1.9590220726
 H   -1.6416756637   -0.5411068543    1.1648118156
 H   -3.0776230009   -1.2005267353   -0.7182749942
 H   -2.0133664289   -1.8600724804   -2.6741669399
 H   -1.8670512269   -2.9512764154    0.8196800529
 H   -0.2143280066   -2.8352629468   -1.4237258396