16

 N    0.1970799189    1.2060001842    0.0040099570
 C   -0.1255926062   -0.1306356007    0.0391937533
 C    1.0497355079   -1.0472058373   -0.0629676953
 O    2.1932903653   -0.6549886779   -0.0882203570
 N   -1.2707039846   -0.7027136885    0.1147292744
 C   -2.4555166125    0.0655813690    0.2019157213
 C   -3.7304857667   -0.6081732331   -0.2688966846
 C   -3.5040158373   -0.4046844110    1.1978859129
 H    1.1869980754    1.3803465095    0.1135020472
 H   -0.4109123945    1.8622040328    0.4650733406
 H    0.7681453219   -2.1156449013   -0.1057116237
 H   -2.4005587889    1.1408386783    0.0324255310
 H   -4.4643196505    0.0082881697   -0.7754714071
 H   -3.6157049488   -1.6103808030   -0.6635363531
 H   -3.2379719605   -1.2690893536    1.7938828123
 H   -4.0758896989    0.3558494729    1.7176408007