19

 C   -0.1089742916    1.7804692298    0.2895320077
 C   -0.0995921441    0.2906797343    0.0208315615
 N    0.9142388903   -0.1591827075   -0.9342534314
 C    1.0513377254   -0.5557974624    0.4939456558
 C    2.1664410997   -0.0343564342    1.2331223896
 C    3.0872221355    0.3840342426    1.8835175116
 C   -1.4746847840   -0.3301859283    0.0307219783
 C   -2.2518996517   -0.4838513995   -1.2262003161
 N   -1.7608105618   -1.6681730297   -0.4951943004
 H    0.9085580637    2.1726984621    0.3162528018
 H   -0.6649300739    2.3027617471   -0.4957825091
 H   -0.5899628840    1.9965133659    1.2494962464
 H    0.5977163039   -0.9599862500   -1.4790167088
 H    0.7930923092   -1.5840839060    0.7399487098
 H    3.9050840042    0.7562625522    2.4492819136
 H   -2.0274859703   -0.1094329358    0.9421727979
 H   -3.3306077930   -0.3596228074   -1.2272834102
 H   -1.7609226317   -0.2086906859   -2.1565133646
 H   -0.9498273158   -2.0610333671   -0.9698257033