21

 C    0.1216054884    1.5167169123    0.0050430426
 C    0.0717389125    0.0613773691   -0.0176240297
 C    0.0410658733   -1.1425312860   -0.0367017705
 C   -0.0182569760   -2.5999335458   -0.0481903572
 C   -1.4594862503   -3.1650928376   -0.0429871943
 C   -2.2413805628   -2.7406987608   -1.2884817300
 C   -1.3985918072   -4.7055089269    0.0990913633
 C   -2.7054901340   -5.3305706437    0.2595263031
 C   -3.7904538933   -5.8290546383    0.4006022437
 H    0.9177373148    1.8779177385    0.6656418663
 H    0.3098681646    1.9262750334   -0.9936731741
 H   -0.8221975716    1.9423772381    0.3637016724
 H    0.5112054613   -2.9846268391   -0.9319831715
 H    0.5244263311   -2.9917427622    0.8227887549
 H   -1.9694037746   -2.7690786654    0.8431559987
 H   -1.7607239983   -3.1220193685   -2.1980924969
 H   -3.2619086537   -3.1310040603   -1.2588475892
 H   -2.2851365605   -1.6512778395   -1.3637152617
 H   -0.8975799621   -5.1282051016   -0.7832523336
 H   -0.7693038513   -4.9660866899    0.9602936175
 H   -4.7444132802   -6.2783910857    0.5237691461