16

 C   -0.0825960528   -1.2144110101   -0.0936145231
 C   -0.0420910718   -0.0133422021   -0.0347416628
 C   -0.0024869432    1.4300713226    0.0153801355
 C   -0.0231785226    2.0835814131    1.4543601656
 C    1.4971141071    1.7419617130    1.5356600125
 C    1.4129446283    2.1115743645    0.0379743954
 O    1.0853317216    3.5034898867    0.0433337098
 C    0.0523039939    3.5605990187    1.0588254622
 H   -0.1201289624   -2.2741794901   -0.1471156103
 H   -0.6919228572    1.8687631282   -0.7127190553
 H   -0.7450711820    1.7851173840    2.2122149567
 H    2.1331511419    2.3685043855    2.1647846536
 H    1.6807049950    0.6827585315    1.7105844122
 H    2.1853613193    1.9075389922   -0.7005421110
 H   -0.8749694394    3.9518309206    0.6251176821
 H    0.3676639145    4.2136540319    1.8807757968