20

 C    0.0202198682    1.5946138730   -0.0993231815
 C    0.0973407292    0.1080450791    0.0726283412
 C    0.9310280544   -0.8644280742   -0.6551038233
 C    1.9029240780   -1.7468493812    0.1459969028
 C    1.9512131884   -1.2682045759    1.6359869477
 C    0.5035658070   -1.3705606328    2.0469187175
 C   -0.3653694029   -0.7257905143    1.2640830401
 C   -1.3872643336   -1.3982318543    0.3741740079
 N   -0.6048932233   -0.8770225076   -0.8263560196
 H    0.7733572418    2.1010578105    0.5148756326
 H    0.1933936120    1.8638209113   -1.1455774832
 H   -0.9628385653    1.9777055594    0.1950274522
 H    1.3175875296   -0.5489609308   -1.6212896263
 H    1.6233808549   -2.8058586677    0.1149979635
 H    2.8910406469   -1.6716293845   -0.3239922472
 H    2.6084449583   -1.8980318736    2.2402210243
 H    2.3421785357   -0.2460818311    1.6718174413
 H    0.1869634239   -2.2523909780    2.6006449904
 H   -1.4907674089   -2.4853431456    0.4545941698
 H   -2.3765601042   -0.9355475617    0.3051609397