18

 O    0.1105202377    1.4067039577   -0.0236781335
 C    0.0554021547    0.0130850040   -0.0189330746
 C   -0.3426939119   -0.7265491580    1.2344526827
 C   -1.2770036956   -0.6937285471    0.0213213530
 C   -1.2946674617   -2.1687057063   -0.3156688086
 C    0.1140814065   -2.8022973936   -0.1402929159
 C   -0.6067594806   -4.0459929195    0.3812225154
 N   -1.4232279270   -2.9343380147    1.0401134561
 C   -0.0601084650   -2.2120736612    1.2873138101
 H   -0.5984087593    1.7480911395    0.5314946874
 H    0.8528728096   -0.3742057894   -0.6435936460
 H   -0.5439851508   -0.1708051932    2.1435047875
 H   -2.1924546934   -0.1128988251    0.0030933652
 H   -1.9620995745   -2.5239594943   -1.1023843230
 H    0.9820444507   -2.7350359332   -0.8069472639
 H   -1.1786487119   -4.6472246590   -0.3313325919
 H   -0.0801083068   -4.6858162359    1.0950406307
 H    0.5202102894   -2.6111591008    2.1207123694