20

 C   -0.1155177006    1.6100376804   -0.1520135162
 C   -0.0336738245    0.1114262410    0.0325373943
 C    1.2641303291   -0.6246418427   -0.1922186623
 N    0.7131494141   -0.5292476122    1.1390964263
 C    1.3758203287    0.2953976686    2.1123997905
 C    0.7165593919    0.4232198012    3.4582621616
 C    1.9616071884   -0.4164459669    3.3032999534
 C   -1.2834492102   -0.6482663437   -0.2834253179
 O   -2.2629218868   -0.1690210848   -0.7971886022
 H    0.8632098147    2.0885006887   -0.0870605429
 H   -0.5444664608    1.8286204120   -1.1330511673
 H   -0.7736129172    2.0590771247    0.5982370480
 H    1.2779802731   -1.6155712740   -0.6408674573
 H    2.1154051370    0.0042647233   -0.4505332909
 H    1.9241711022    1.1618535127    1.7424191125
 H    0.7875593720    1.3733233534    3.9753311656
 H   -0.2227881861   -0.1007495005    3.5904078637
 H    1.8429246209   -1.4930169928    3.3311486469
 H    2.8949373324   -0.0454420990    3.7114194576
 H   -1.2315819981   -1.7207719093    0.0080436767