15

 C    0.1020628986    1.4139006649    0.3574260725
 N   -0.0215552476   -0.0072093844    0.0921451307
 C   -1.1270548033   -0.5880724196   -0.1387400368
 N   -1.1199680035   -1.9560256114   -0.3796257848
 C   -2.2584791713   -2.6885721709   -0.6410961631
 C   -3.4483590136   -2.0908263623   -0.6730544451
 O   -3.5782038420   -0.7351811754   -0.4481393368
 C   -2.4994685651    0.0598332574   -0.1834770331
 O   -2.6762789045    1.2310796817    0.0023665659
 H    1.1604723366    1.6360359188    0.5191191603
 H   -0.2608603814    2.0276069121   -0.4742517557
 H   -0.4596965550    1.7238031730    1.2453830615
 H   -0.2110595948   -2.3918809045   -0.3515872888
 H   -2.1393204371   -3.7479670788   -0.8148460514
 H   -4.3931384958   -2.5713511306   -0.8674682054