17

 N    0.0254296076   -1.1277390079   -0.1579559379
 C    0.0014927883    0.0259472434   -0.0916425754
 C    0.0183843933    1.4828426182    0.0058803498
 C    1.4601043334    2.0341603003    0.0516350679
 N    2.1709045134    1.7039206287   -1.1857614762
 C    3.1225594261    2.7677074051   -1.5213299580
 C    2.5131123697    3.9963169402   -0.8804843012
 O    1.1137293233    4.1621105639   -1.1425433680
 C    1.5107503845    3.5514339614    0.0894764562
 H   -0.4827547263    1.9113958773   -0.8669260638
 H   -0.5360052407    1.7812551964    0.9031602695
 H    1.9531705750    1.6606328872    0.9656931457
 H    2.5801382341    0.7799550209   -1.1738085303
 H    4.1307718989    2.6282157580   -1.0949261627
 H    3.2283925955    2.8610189348   -2.6085178279
 H    3.0878900385    4.9115280062   -0.7743948013
 H    1.2555964356    4.0890320257    0.9985374335