20

 C   -0.0206651353    1.5045266076    0.0303027862
 C    0.0251821199   -0.0146475209   -0.0088929791
 C    0.7509839485   -0.5593705384   -1.2566224552
 C    0.9184763733   -2.0511309480   -1.1516742152
 C    1.4611469879   -2.5443048659    0.1631402443
 C    0.6979730538   -1.8570858389    1.3105426550
 O    0.6879011928   -0.4496426760    1.1733312741
 N    0.5526854105   -2.7592745360   -2.1497119990
 O    0.7486039773   -4.1361276890   -1.9360639548
 H    0.9935160161    1.9159514788    0.0393402161
 H   -0.5476901457    1.8960090874   -0.8448342847
 H   -0.5369276562    1.8455940052    0.9314148922
 H   -1.0040654244   -0.4150963120   -0.0071084230
 H    0.2066124786   -0.3075214995   -2.1703424195
 H    1.7402198710   -0.0828479342   -1.3029180987
 H    1.3830663392   -3.6293697380    0.2388981528
 H    2.5217374982   -2.2712861994    0.2368315569
 H   -0.3342368198   -2.2432722548    1.3469863749
 H    1.1731785047   -2.0709187941    2.2719160303
 H    0.4185036997   -4.5121011939   -2.7584350735