13

 O   -0.0587031107    1.4181535495    0.0682706101
 C    0.0307669607    0.0057000549   -0.0006880655
 C    0.7021816310   -0.4651070609   -1.2160800700
 C    1.2718991694   -0.8252891088   -2.2101018126
 C    0.7019908202   -0.5570277348    1.2296793531
 N    0.2417897839   -1.4324000650    2.0697210514
 C    1.2763139637   -1.5171658306    2.9714035270
 N    2.3012886731   -0.7512116803    2.7200885192
 O    1.9201474144   -0.1002067760    1.5385071444
 H    0.8298048295    1.7766753938   -0.0446033991
 H   -0.9988157217   -0.3637958716    0.0205793942
 H    1.7686392978   -1.1488589782   -3.0920025225
 H    1.2599772787   -2.1632396922    3.8369161403