23

 C   -0.0809604335    1.5118792902    0.0329583179
 C    0.0279657777   -0.0039282747    0.0155352542
 C    0.9183763645   -0.7010444891   -1.0677765358
 C    1.2017864200   -1.7942283944    0.0044257652
 C    0.9552459812   -0.6894776551    1.0644299853
 C    0.0778410972   -2.8454944688    0.0296428447
 C   -1.3083888858   -2.2006367886   -0.0477277865
 C   -1.9261459240   -1.4500684927    1.1123806243
 C   -1.3389676565   -0.6878961314   -0.0483975261
 H    0.9096887869    1.9789353731    0.0516532080
 H   -0.6090094065    1.8825660703   -0.8536532100
 H   -0.6336323620    1.8576066160    0.9144097946
 H    0.4348619992   -1.0031499231   -2.0019412078
 H    1.8170987201   -0.1182333305   -1.2921323679
 H    2.1833451816   -2.2745589573   -0.0084208205
 H    1.8530295262   -0.0833407579    1.2207266267
 H    0.5548310421   -0.9701774529    2.0416281601
 H    0.2025805194   -3.5114904961   -0.8328266653
 H    0.1762892303   -3.4761549408    0.9231045344
 H   -2.0144344944   -2.7105650665   -0.6954065924
 H   -3.0075537610   -1.4765686046    1.1989936003
 H   -1.4155208916   -1.4453955972    2.0684567146
 H   -2.0415704412   -0.1994699380   -0.7195567280