16

 C    0.0071173288    1.5456546426    0.0222373119
 C    0.0395154309    0.0398647138    0.0327007044
 C   -0.8460289614   -0.7934647152    0.9118932034
 C    0.6766097882   -0.7783971074    1.1330635560
 C    1.4709458598   -1.8524322949    0.4684032889
 O    2.2436744677   -2.6289040449    0.9593385018
 C    1.1626298833   -1.7554314048   -1.0563231132
 O    1.4942373298   -2.5339987739   -1.9158369332
 N    0.4296060185   -0.6038170487   -1.2043480452
 H    0.9752871983    1.9529622713   -0.2837621267
 H   -0.7549860889    1.9159991200   -0.6730304648
 H   -0.2354925710    1.9317129426    1.0158787501
 H   -1.4255494613   -0.3014314441    1.6855865510
 H   -1.3022887221   -1.6846328281    0.4946642640
 H    1.0563755653   -0.3311771597    2.0425308779
 H   -0.0634864959   -0.4287207286   -2.0681772964