20

 C    0.0110700068    1.5158378795   -0.1779449563
 C    0.0643344274   -0.0061423342   -0.0246972933
 O    0.8214548905   -0.6072233981   -1.0748984926
 C    0.6974535163   -0.4533797868    1.2970830363
 C    0.7687542710   -1.9986708188    1.4636792115
 C    2.2755505788   -2.2737602345    1.6146224861
 O    2.8276568416   -1.0784155267    2.1465805673
 C    2.1763764644   -0.0164539489    1.4685968867
 H    1.0166659795    1.9467952420   -0.1673567198
 H   -0.4648448473    1.7937645607   -1.1257118495
 H   -0.5718382538    1.9711964287    0.6294522105
 H   -0.9680843721   -0.3935137923   -0.0485456127
 H    0.4486658533   -0.3217457686   -1.9144099004
 H    0.0945708415   -0.0258085269    2.1039741043
 H    0.2259605809   -2.3149260857    2.3581192473
 H    0.3463630411   -2.5208845097    0.6028203827
 H    2.5131110279   -3.0886362463    2.3034410136
 H    2.7220798482   -2.5014271179    0.6338537536
 H    2.6331751449    0.1493274580    0.4816733757
 H    2.2999285293    0.8868113367    2.0715346190