17

 C    0.2161492246    1.4354811818    0.1696585709
 N    0.2387992893   -0.0164408504    0.1352034337
 C    0.4189689458   -0.5935836550   -0.9779640011
 O    0.5936490778    0.1148143101   -2.1570613551
 C    0.7828476923   -0.5699462436   -3.3179947322
 C    0.8091789424   -1.9110334804   -3.3820472272
 C    1.0175370515   -2.6697118093   -4.6576420542
 N    0.6375659938   -2.6763360367   -2.2217251133
 C    0.4577450838   -2.0470661575   -1.1161852100
 H    1.1585128371    1.8680867165   -0.1934790488
 H   -0.5851041331    1.8467979895   -0.4595522306
 H    0.0550898299    1.7671983368    1.1975034339
 H    0.9060192731    0.0976550401   -4.1614767183
 H    1.9070754078   -3.3049324897   -4.5866542787
 H    0.1670398448   -3.3311185743   -4.8549383415
 H    1.1390069535   -1.9967354451   -5.5103689595
 H    0.3207651057   -2.6079727227   -0.1945827578