19

 C    0.1495222139    1.5663268603    0.0834094717
 C   -0.0335005990    0.0514186105   -0.0400047607
 O    0.7324140370   -0.6489452716    0.9366482715
 C   -1.4764876074   -0.3590417158    0.0168204750
 O   -1.8605607795   -1.6137587045   -0.5642636029
 C   -2.5522081115   -0.4227592259   -0.9701381053
 C   -3.6199039848   -0.0539125294    0.1063156103
 C   -3.6027511569   -1.0274370377    1.2539447613
 C   -2.5100086038    0.0029442616    1.1481464062
 H    1.2132247392    1.8119293960    0.0334558617
 H   -0.3733561861    2.0959990607   -0.7189923805
 H   -0.2383284143    1.9347916750    1.0401402155
 H    0.3615911439   -0.2904903949   -1.0025781096
 H    0.3833623304   -0.4204221317    1.8055923409
 H   -2.5792405955   -0.1958071507   -2.0295992610
 H   -4.4156035360    0.6593582885   -0.0606064995
 H   -4.3381928660   -0.8278088596    2.0267643289
 H   -3.3838355987   -2.0727210022    1.0785038837
 H   -2.3447188449    0.7694270014    1.8938980728