19

 C   -0.2809314683    1.4814067528   -0.0997194408
 C    0.0307305360   -0.0163360503    0.0287433053
 C    0.9046896039   -0.2873907740    1.2587271185
 O   -1.1746725233   -0.7615776018    0.2440833670
 C    0.7137353302   -0.5237719989   -1.2202753620
 C    0.4103927939   -1.6516178098   -1.9393312965
 N    1.3251824652   -1.6844222503   -2.9710829201
 C    2.1285433298   -0.5938790772   -2.8325669829
 N    1.7886950094    0.1274989930   -1.7899647327
 H    0.6341323863    2.0497434546   -0.2811611912
 H   -0.9539317063    1.6631500747   -0.9459214045
 H   -0.7617630741    1.8439093502    0.8134432521
 H    0.4201633181    0.0999450218    2.1599288391
 H    1.0559271758   -1.3634301597    1.3785392696
 H    1.8793387122    0.1920452706    1.1399699838
 H   -1.7863839791   -0.5215076960   -0.4607347328
 H   -0.3343373488   -2.4160944976   -1.8036942622
 H    1.3836176398   -2.3840616079   -3.6915485471
 H    2.9345303395   -0.3790001644   -3.5186409925