22

 C   -0.0256943006    1.6405623146   -0.3692073142
 N    0.0769766804    0.2331916626   -0.0183679198
 C    1.2778915302   -0.5688052092   -0.1479142242
 C    2.6447491841    0.1057767902   -0.2137987824
 C    2.7436685318    1.0001785818    1.0451424957
 C    1.6425862127    0.5192517508    2.0391169393
 C    2.2274156776   -0.3684580688    3.1445635115
 O    0.9193106151    1.6066346185    2.6229667277
 C    0.6669440872   -0.2959810706    1.1943477224
 H    0.9155247763    2.2050886171   -0.3731187431
 H   -0.4595044934    1.7101656381   -1.3727981154
 H   -0.7033022143    2.1288918926    0.3348161086
 H    1.1545780207   -1.5166004780   -0.6683553802
 H    3.4161551505   -0.6721390801   -0.2044250966
 H    2.7878181879    0.6748049397   -1.1395496633
 H    3.7385249919    0.9485569424    1.4987865813
 H    2.5568840659    2.0499910495    0.8089128175
 H    2.9427405412    0.1988796822    3.7524781038
 H    1.4353939284   -0.7378288632    3.8024233894
 H    2.7599120564   -1.2278912274    2.7238224948
 H    1.5162351207    2.0749907408    3.2163870506
 H    0.0524020891   -1.0188956937    1.7278941768