13

 C   -0.0062307061    1.4519674836    0.0427575653
 C   -0.0156850891   -0.0277964042   -0.0536813345
 N   -0.1643548464   -0.7583751236   -1.1284764159
 C   -0.0900562158   -2.0269296156   -0.6216561252
 C    0.0981983450   -2.0272602246    0.7222201891
 O    0.1513865306   -0.7246769832    1.1275081725
 C    0.1509017675   -3.3835850570    1.0863801402
 N    0.0010608078   -4.1341951283    0.0061626961
 O   -0.1557011729   -3.2643859786   -1.1053745854
 H    0.9424326192    1.8082766947    0.4568563142
 H   -0.1461101344    1.8730908453   -0.9525562061
 H   -0.8072845470    1.8037521488    0.7007835506
 H    0.2850462916   -3.8730082473    2.0389871592