15

 N   -0.2180843386    1.3577347143   -0.0033028551
 C    0.0209093101   -0.0284243220   -0.0610268317
 C    0.9620470649   -0.8986616409   -0.9178472975
 C    0.1379559488   -2.0925555620   -0.3834983636
 O    0.4476340328   -2.1132344021    1.0400318810
 C   -0.2992814867   -0.9122108558    1.1454480724
 C   -1.0815855727   -1.1218610552   -0.1269056090
 C   -2.4451116636   -1.0915550708   -0.4805576036
 N   -3.5611424574   -1.0700414583   -0.7922378688
 H    0.5068318671    1.8514375403    0.5058907006
 H   -0.3142856667    1.7754181557   -0.9221636191
 H    0.7932490994   -0.7307806612   -1.9846605732
 H    2.0313278687   -0.9086734245   -0.6854388409
 H    0.1116450200   -3.0743021102   -0.8472481839
 H   -0.6130041162   -0.5463871075    2.1135176524