23

 C    0.2764260046    1.0238759872    1.0134218243
 C   -0.1580443590    0.1034401904   -0.1296365470
 C   -1.1420440770   -0.9728006266    0.3261668832
 C   -1.5842116655   -1.9009158658   -0.7877653235
 O   -1.1734604312   -1.8051328655   -1.9224450053
 C   -2.6263688517   -2.9840720280   -0.4485845680
 C   -2.2712349369   -4.3143533370   -1.1177997981
 O   -2.7455990265   -3.0738255935    0.9588967838
 C   -3.9212731758   -3.7049129962    1.4141439439
 H    0.9816660801    1.7837976776    0.6629710149
 H   -0.5809238934    1.5446801026    1.4548965388
 H    0.7663304284    0.4602105615    1.8154982330
 H   -0.6147272319    0.6902489636   -0.9342352941
 H    0.7166257912   -0.3788938096   -0.5792710312
 H   -0.7215591830   -1.5946500833    1.1277247107
 H   -2.0420829886   -0.5345039582    0.7788758510
 H   -3.5778590693   -2.6123058980   -0.8725485245
 H   -1.3843192699   -4.7467132802   -0.6445618376
 H   -3.0912845762   -5.0328333763   -1.0428279769
 H   -2.0543378523   -4.1366832651   -2.1726635180
 H   -3.9370891514   -3.6064978315    2.5023336065
 H   -4.8226327535   -3.2253467905    1.0011323210
 H   -3.9513940714   -4.7735755977    1.1598888532