16

 O    0.0174010998   -0.0301064922    0.2427764207
 C   -0.0397098611    1.1627008423    0.0223894367
 C   -1.3055382053    1.9090058824   -0.0879498088
 C   -1.2810715058    3.2091874005   -0.4148530241
 C   -0.0368967785    3.9172736484   -0.7756019177
 C    1.1491657973    4.1280201129    0.1137432498
 C    1.3398986774    3.0278635378    1.1429023519
 C    1.2127669370    2.0234924557   -0.0451884245
 N    1.2061761984    3.1680185766   -1.0524200945
 H   -2.2253502849    1.3686400641    0.1064770839
 H   -2.2027326285    3.7815704997   -0.4841039033
 H   -0.1767329299    4.7165634873   -1.4998185288
 H    1.6766957657    5.0770371031    0.0996471810
 H    2.3475115369    3.0246262707    1.5606959438
 H    0.6135683692    2.9587516682    1.9575762475
 H    2.0824264721    1.3873359924   -0.2011481537