19

 C    0.1463936124    1.5429257776   -0.1380623649
 C   -0.0855327403    0.0289590525   -0.0218462455
 C    0.4776692941   -0.5275754483    1.2454049721
 O    1.9189416795   -0.6940523156    1.3658834526
 C    1.0924217624   -1.8245771713    1.6338313435
 C    0.6720006709   -1.7121010515    3.1113061186
 C    1.7497028855   -1.7362621394    4.1861904322
 C    0.0302338917   -0.3460936685    2.6986549163
 O   -0.6577081783    0.4495856535    3.2675612484
 H    1.2161913250    1.7707157452   -0.1357508760
 H   -0.2840953403    1.9299936176   -1.0657539570
 H   -0.3158506594    2.0699945877    0.7013251717
 H   -1.1604036063   -0.1877527920   -0.0480485417
 H    0.3706604313   -0.4959662054   -0.8685454801
 H    1.2271668947   -2.7091919153    1.0222754825
 H   -0.1505481736   -2.3986241794    3.3517877171
 H    2.5967085633   -1.1138760700    3.8874468571
 H    1.3530688696   -1.3484096401    5.1292723739
 H    2.1105452476   -2.7542907673    4.3647348592