19

 C   -0.0711168034    1.6099045145    0.1157731725
 C    0.0218140098    0.0916554279    0.1161352799
 C    1.0500772514   -0.6022369426   -0.8707696506
 C    1.7170307891   -1.2853873123    0.3261123780
 O    2.1174089586   -2.6081549055    0.3335836400
 C    2.2248567916   -0.2695966630    1.3030743760
 C    0.7488507344   -0.6135832047    1.2878964172
 C   -1.3342631758   -0.5527790930   -0.0773411531
 O   -2.3725160867    0.0420600459   -0.2130200249
 H    0.9101906499    2.0698289651    0.2596123044
 H   -0.4850558971    1.9710928275   -0.8300121070
 H   -0.7346399153    1.9558736121    0.9133734748
 H    0.5695910702   -1.3198469343   -1.5411989412
 H    1.6671058780    0.0814000449   -1.4621442788
 H    3.0503111838   -2.6467732925    0.0955199979
 H    2.7547287252   -0.6965335230    2.1489634889
 H    2.5886584937    0.7043424744    0.9854788969
 H    0.2623118221   -1.0121088373    2.1702828808
 H   -1.3052314595   -1.6675715443   -0.0850249218