19

 C   -0.1047566348    1.5771998423   -0.0771048489
 C    0.0772819020    0.0641363717   -0.0018477401
 C    1.0131624465   -0.5765018279   -1.0610430591
 C    2.4458915407   -0.3070700512   -0.5433482965
 C    1.9151821345   -1.3083480793    0.5076291592
 O    1.1356025243   -1.9446595148   -0.5562419990
 C    0.8384043099   -0.4968506028    1.2222274158
 C    0.9564475871    0.0869985834    2.5579725963
 O    0.1366332943   -1.0661984771    2.3159579092
 H    0.8473220075    2.1112143840    0.0038735355
 H   -0.5709567016    1.8660536938   -1.0253701246
 H   -0.7557790581    1.9346328875    0.7270303764
 H   -0.8959903160   -0.4333166594   -0.0582925877
 H    0.7294398644   -0.5111522210   -2.1115513313
 H    3.2021235988   -0.7579298477   -1.1860981415
 H    2.7327765437    0.6999592395   -0.2303438903
 H    2.5346842082   -1.9863860569    1.0933328373
 H    1.8500156232   -0.0923232972    3.1562103636
 H    0.4173819652    1.0009248634    2.8032061256