17

 O   -0.2210805914    1.3603577092    0.1334271531
 C   -0.0799264943   -0.0173217255   -0.0199634148
 C   -0.4909677984   -0.6978035409   -1.2987288096
 C   -1.2833656000   -0.9123740269   -0.0209204967
 C   -0.8713055861   -2.0034166501    1.0230219650
 O   -0.1388649291   -1.2008894522    1.9691174185
 C    0.8452551546   -0.7517937623    1.0192839470
 C    1.3265356758   -2.0837119278    0.4433367070
 C    0.2510098042   -2.8705673383    0.4476858875
 H    0.4602050969    1.7896530398   -0.3950181328
 H   -0.9680386091   -0.0515311890   -2.0302216887
 H    0.1051214605   -1.5017001885   -1.7142312543
 H   -2.2773245159   -0.4904585649    0.0566295437
 H   -1.7033930346   -2.5097096363    1.5091347239
 H    1.5752905420   -0.0969043374    1.4923849233
 H    2.3115341906   -2.2791418354    0.0424704646
 H    0.1355638444   -3.8680967437    0.0469538234