17

 C    0.1174545077    1.5664536077    0.0776498461
 C   -0.0523790438    0.0876939832   -0.0451531110
 C    0.3539435627   -0.7553034299   -1.2851756273
 C   -0.5799032156   -1.8243740377   -0.7245007652
 C   -0.4582883257   -1.6754595252    0.7913359321
 O    0.5164559715   -0.6801719958    1.0633208444
 C   -1.3993801955   -0.7700273667    0.0469747914
 C   -2.7719676799   -0.4663875660    0.1222073525
 C   -3.9420115954   -0.1845893803    0.1816992025
 H    1.1827840327    1.8216322947    0.0790480641
 H   -0.3604876863    2.0774756043   -0.7629798493
 H   -0.3262693600    1.9299012734    1.0083738981
 H   -0.0369257746   -0.3280818927   -2.2118012023
 H    1.4202601281   -0.9833879611   -1.3802410746
 H   -0.9637638964   -2.7172361358   -1.2000324083
 H   -0.6475388824   -2.4506461367    1.5214154143
 H   -4.9731981469    0.0606673547    0.2387269026