21

 O   -0.0779210633    1.4647458312   -0.5433081244
 C   -0.0151409439    0.1237504615   -0.0792630818
 C   -1.3839841816   -0.5178692995    0.0458620144
 C   -2.3659621931    0.2042539165    0.9571236434
 C   -1.9822437922    0.1464308504    2.4499931988
 C   -2.9610149987    0.9207147051    3.3007125741
 O   -3.6007835202    0.4625959814    4.2122120952
 C   -1.9340395389   -1.1813252685   -1.2005147214
 C   -1.4547591056   -2.0217466870   -0.0422750481
 H   -0.5257401436    1.4522133130   -1.3962597536
 H    0.6200851420   -0.4976761688   -0.7301564557
 H    0.4844128550    0.1781319424    0.8943113839
 H   -2.4333304037    1.2519306282    0.6409469820
 H   -3.3632592737   -0.2326491734    0.8305517359
 H   -1.9371592955   -0.8837614998    2.8140318538
 H   -0.9943702489    0.6066029047    2.5901561988
 H   -3.0662598364    1.9936138515    3.0115391052
 H   -3.0016526448   -1.1243366092   -1.3840434358
 H   -1.3284113723   -1.1699353815   -2.1018174610
 H   -0.5303345324   -2.5773048347   -0.1621288883
 H   -2.2001354583   -2.5292794135    0.5609629647