18

 C    0.0122719198    1.5828832685    0.0652519340
 C    0.0699173431    0.0719491944    0.0485054902
 C    1.3003021595   -0.7568810566   -0.2955102453
 C    2.5300863968   -0.1253837252    0.3594578441
 O    1.8687705015   -0.0743589876    1.6456094259
 C    0.7164594256   -0.7701454803    1.1074389236
 C    0.0910520201   -1.8086667672    1.9771108464
 C    3.7053496531   -1.0006578541    0.3962229571
 N    4.6322568612   -1.6903382480    0.4021325699
 H    0.8467269933    2.0061357748    0.6295419125
 H    0.0324658140    1.9937367443   -0.9493705290
 H   -0.9108359762    1.9230907118    0.5453865575
 H   -0.8208444340   -0.4092515892   -0.3529919862
 H    1.3296340142   -1.5155981167   -1.0652974134
 H    2.8347304707    0.8684616842    0.0111342383
 H   -0.3411828040   -1.3474581313    2.8721144851
 H   -0.7122389959   -2.3203476822    1.4395022219
 H    0.8296618672   -2.5494560395    2.2969198475