21

 C   -0.4865353192    1.4881848595    0.0914455772
 C    0.0925493722    0.0851362593   -0.0474937656
 O    0.8192117885    0.0265322715   -1.2843016947
 C    2.0648371142   -0.6188830849   -1.2361481800
 C    2.3700760718   -1.7197545626   -0.2548861612
 C    1.3623710351   -1.8470624242    0.8764405686
 C    0.9841465004   -0.3701236869    1.1239728653
 C    2.3508574633    0.3521030059    1.0638199342
 C    3.0249184045   -0.3402377686   -0.1129216327
 H    0.2992546118    2.2396697275    0.2094474985
 H   -1.0614231382    1.7413577847   -0.8036742049
 H   -1.1554093262    1.5421233211    0.9570201930
 H   -0.7489326627   -0.6234389688   -0.1215952142
 H    2.4582340005   -0.7111833232   -2.2423482023
 H    2.9317371810   -2.5873118976   -0.5832824803
 H    0.4903886088   -2.4576883197    0.6180361608
 H    1.8334940311   -2.2915401157    1.7611396153
 H    0.4531877469   -0.2154128117    2.0667230888
 H    2.2528008850    1.4330356190    0.9230283515
 H    2.9163726206    0.1901411014    1.9884709304
 H    4.0774279509   -0.1749138859   -0.3144631377