17

 C    0.9755587710    0.0869627091    0.5853645163
 C   -0.2756146353    0.5124102867   -0.1524378919
 O   -0.3114700120    1.4532063949   -0.9179379739
 C   -1.5039487842   -0.2807698902    0.0865561457
 O   -1.5977247519   -1.1614271152    1.2241904393
 C   -1.7531631932   -1.7314525948   -0.0677087342
 C   -3.1813768900   -1.4576179662   -0.6187266310
 C   -3.9947866752   -0.6388723246    0.3501789225
 C   -2.9268296776    0.0374772929   -0.4602820932
 H    1.8232456403    0.6672931385    0.2198068618
 H    0.8450393560    0.2544575869    1.6597544707
 H    1.1666129696   -0.9832461536    0.4587436029
 H   -1.0794381074   -2.5314645605   -0.3522539896
 H   -3.6013628097   -1.9839986584   -1.4643781745
 H   -5.0075553823   -0.4340553944    0.0186746422
 H   -3.8768203353   -0.7739741516    1.4179433483
 H   -3.0987326729    0.8326667705   -1.1703383216