18

 C   -0.1121160586    1.4796337353    0.0845362529
 C    0.0303000989   -0.0276307587    0.0395777290
 C   -1.2801288531   -0.7953577914   -0.1576655710
 O   -1.1476076204   -2.0351821082    0.5524824095
 C   -0.0989241206   -2.0038139108    1.4312870679
 N    0.1326182908   -2.8851907385    2.3044831717
 C    0.7573248893   -0.7907452893    1.1726434541
 C    1.8559702346   -1.0262658180    0.1134581763
 O    1.0346464098   -0.4472614580   -0.9233218087
 H    0.8602130978    1.9519384671    0.2471996394
 H   -0.5115874779    1.8509417613   -0.8653014291
 H   -0.7898692086    1.7880095973    0.8869877338
 H   -2.1394357134   -0.2476446156    0.2479148289
 H   -1.4546397349   -1.0151044214   -1.2139962328
 H   -0.5825540171   -3.6143138271    2.2773908572
 H    1.0430690671   -0.2746755439    2.0870140051
 H    2.7712787197   -0.4455779473    0.2795903361
 H    2.1175863368   -2.0693315928   -0.0892288503