22

 C    0.6906731121   -0.3210245100   -1.3810095973
 C   -0.0116839700   -0.1939253873   -0.0260871629
 C   -1.5460132390   -0.2895422887   -0.1241154829
 C   -2.0708215122   -1.7272692661   -0.3794199676
 C   -2.4728033619   -2.2447045984    1.0096892509
 C   -2.7453855783   -0.9791224929    1.8211055727
 O   -3.3142195967   -0.9024547443    2.8914855780
 N   -2.2112065933    0.0737248223    1.1231577702
 C   -2.2782363377    1.4293588207    1.6169299466
 H    1.7754370715   -0.2362571150   -1.2689079578
 H    0.4841675056   -1.2832430052   -1.8609536663
 H    0.3652084657    0.4673745381   -2.0689470265
 H    0.3505365706   -0.9659379380    0.6648823035
 H    0.2544280457    0.7695215331    0.4240958029
 H   -1.8803535777    0.3919148816   -0.9193943909
 H   -2.9469186322   -1.6873698019   -1.0327521829
 H   -1.3231202334   -2.3513219895   -0.8732019806
 H   -3.3533709642   -2.8894318385    1.0098797928
 H   -1.6667004255   -2.8002485450    1.5018730528
 H   -2.8797932369    1.4133321480    2.5275506979
 H   -1.2862860399    1.8314879488    1.8561074715
 H   -2.7487473723    2.0915447384    0.8794734857