17

 C   -0.1193083828   -1.2284431355   -0.0304421216
 C   -0.0691704804   -0.0284751182   -0.0013176577
 C    0.0050483830    1.4252104730    0.0120680390
 C    1.4614716133    1.9700751491    0.0490402566
 C    1.4450858651    3.5163976416   -0.1183633951
 C    2.7722172974    4.0977053480   -0.2587008953
 C    3.8706646215    4.5657665820   -0.3914336323
 C    2.1450470707    1.5758822121    1.2760915890
 C    2.6815846163    1.2706875551    2.3067107792
 H   -0.1660801152   -2.2890371919   -0.0455978314
 H   -0.4892207825    1.8239253740   -0.8829575988
 H   -0.5423324373    1.8199800819    0.8767132735
 H    1.9990179386    1.5464945970   -0.8073300634
 H    0.8444270387    3.7606291233   -1.0037480408
 H    0.9313418552    3.9600109719    0.7432380183
 H    4.8411598164    4.9827763809   -0.4987600659
 H    3.1694807520    0.9909627657    3.2073885768