15

 O   -0.0153094482    0.0334292903    0.3337697336
 C    0.0060803128    1.1895870964    0.0266241859
 O   -1.1156864630    1.8691396864   -0.3317407122
 C   -0.8722053509    3.2456630951   -0.6759944315
 C    0.6331296113    3.5000303169   -0.4905102244
 C    1.0922880666    4.0855296408    0.8672133856
 O    0.4325738738    3.3334324622    1.8903914597
 C    1.6141601755    2.7821397608    1.3039565694
 C    1.2004999663    2.1262890550   -0.0387763808
 H   -1.1957434452    3.3900202931   -1.7108050387
 H   -1.4867785072    3.8670478962   -0.0195898630
 H    1.1179147734    3.9502696950   -1.3563798223
 H    1.3983422734    5.0965777710    1.1081238725
 H    2.4235486724    2.5068904518    1.9681356864
 H    2.0263209791    1.7057096689   -0.6112275202