22

 C    0.0089025584    1.5490767968    0.1764455531
 C   -0.1000262712    0.0218843795    0.1222083291
 C   -1.5069994714   -0.5110974843   -0.2099683136
 C   -1.9757872198   -0.1207724669   -1.6204514653
 C   -1.5516714329   -2.0217860870   -0.0453569293
 C   -1.7473354111   -2.6480200440    1.3227866318
 C   -2.8346266110   -2.7291642822    0.2785364341
 O   -3.9798525897   -1.9335073792    0.4075250997
 H    1.0129058684    1.8588337262    0.4838819131
 H   -0.1918860996    2.0107180038   -0.7951857573
 H   -0.7026762256    1.9697344615    0.8962534405
 H    0.6150620011   -0.3707818686   -0.6144728925
 H    0.2062079502   -0.3927143962    1.0906542070
 H   -2.2147567041   -0.0789892864    0.5082283914
 H   -2.9849143809   -0.4995191219   -1.8036019475
 H   -1.9949659492    0.9644374250   -1.7570273341
 H   -1.3104298649   -0.5406467303   -2.3851527157
 H   -0.8879789325   -2.5582592176   -0.7211854680
 H   -1.1999108827   -3.5467387662    1.5864268310
 H   -1.9229016164   -1.9641100487    2.1478157612
 H   -3.0102830556   -3.6966334650   -0.1924611894
 H   -4.5093173293   -2.2889775385    1.1285639708