18

 O   -0.0850206535    1.4253850727   -0.3925013580
 C   -0.0335160894    0.0837783989   -0.0226125999
 C   -1.3399013858   -0.6083012511    0.3179798321
 C   -2.6443692929    0.1608094790    0.2895032270
 C   -3.5892044473   -0.3372367288   -0.7973035020
 O   -3.2776697696    0.1685390208   -2.1072202133
 C   -2.0706384013   -0.0021216482   -2.6776956173
 N   -0.9595736004   -0.4624523164   -2.2825996806
 C   -0.6162799767   -0.9336243267   -0.9808242680
 H    0.0018504177    1.4581727492   -1.3544108173
 H    0.8581829579   -0.1826764784    0.5406759041
 H   -1.2747716253   -1.3861981804    1.0738638846
 H   -3.1518167155    0.0615970148    1.2550319583
 H   -2.4552358439    1.2283246743    0.1351176903
 H   -3.6003886268   -1.4336452794   -0.8349271384
 H   -4.6110791030    0.0107606377   -0.6246994369
 H   -2.1381524676    0.3613584949   -3.7038903270
 H   -0.0956298765   -1.8863422428   -1.0263058177