20

 C   -0.0609413804    1.4859656953    0.0389418772
 C    1.2856589622    0.8144091070    0.1218736583
 C    0.0284527918   -0.0182983466    0.0217119085
 C   -0.4343426149   -0.8047022285    1.1974165856
 C   -1.7750094385   -0.6750513229    1.8101338972
 N   -0.5986149627   -0.1691095401    2.5540234075
 C    0.1964530366   -1.3267937966    3.1309428617
 C   -0.2852276835   -2.7255476737    2.8682458646
 C    0.4174299886   -1.9610444547    1.7793635405
 H   -0.4346743431    1.9435049927    0.9480849089
 H   -0.3352762112    1.9924906205   -0.8794746822
 H    1.9440133903    0.8565354161   -0.7386158937
 H    1.7895789045    0.8390283401    1.0817982511
 H   -0.1486150234   -0.5066333577   -0.9341882973
 H   -2.3930322160    0.1395783777    1.4441404794
 H   -2.3399338914   -1.5233748838    2.1773136842
 H    0.8923623820   -1.0837919423    3.9236442732
 H    0.3417737840   -3.4752335322    3.3429525574
 H   -1.3280166750   -3.0174702862    2.8165724597
 H    1.3364969902   -2.2922650840    1.3150250282