22

 C    0.7965679965   -0.3484834404    1.3306559966
 C    0.1222240479   -0.1789050434   -0.0339034782
 C   -1.3510808891   -0.6223841304   -0.0622604807
 C   -1.5163729423   -2.1349798171    0.1634567773
 C   -2.9416644343   -2.6780274811    0.0050838521
 N   -2.2198828475    0.2689941698    0.7839860017
 C   -3.0501501505    0.7059982024   -0.3715317422
 C   -2.1096870184   -0.0808430165   -1.2945316021
 O   -1.9960250748   -0.2181387419   -2.4764261459
 H    1.8003789641    0.0866478183    1.3193856012
 H    0.2160102142    0.1618621221    2.1053288424
 H    0.8994720599   -1.4002845883    1.6146879147
 H    0.1616026785    0.8789605047   -0.3176466494
 H    0.6656844606   -0.7318751871   -0.8094862366
 H   -0.8530630735   -2.6502092464   -0.5411346238
 H   -1.1452768591   -2.3758273427    1.1671711643
 H   -2.9664124616   -3.7513974158    0.2137122771
 H   -3.6431499828   -2.1988696909    0.6970138241
 H   -3.3176899621   -2.5298942860   -1.0121457509
 H   -2.7506388643   -0.2365056864    1.4838826774
 H   -4.0795457153    0.3244453950   -0.3975540050
 H   -3.0770016363    1.7906660020   -0.5246236840