12

 O    0.0026009520   -0.0386801977    0.0035372446
 C   -0.0138222064    1.1709573053    0.0098256725
 N   -1.1110048539    1.9918308134   -0.2341863527
 C   -0.8105898897    3.3732957269    0.1110843592
 C    0.7228459109    3.3950496192   -0.0684093465
 N    1.0607036098    2.0187337431    0.2625161880
 H   -2.0179269303    1.5961582941   -0.0437597986
 H   -1.3139681322    4.0824069599   -0.5512833507
 H   -1.0811368885    3.6135874308    1.1495519268
 H    0.9866219841    3.6533860441   -1.1042834742
 H    1.2068812294    4.1106376323    0.6013689544
 H    1.9780081249    1.6498303985    0.0681220472