15

 N   -0.0549848858    1.3578349725    0.1305647047
 C    0.0036579897   -0.0231692886    0.0626533510
 N   -1.0853258736   -0.7708551547    0.0498967257
 N   -0.5996520605   -2.0623020963    0.0346295223
 C    0.7448693049   -2.1222542386    0.0418932270
 N    1.4558247901   -3.3087595379    0.1036090565
 C    1.2047916410   -0.8053664573    0.0470914403
 C    2.5415869300   -0.3734215651    0.0148878117
 C    3.6904012731   -0.0032887108   -0.0292286864
 H    0.7297425791    1.8200749170   -0.3063545317
 H   -0.9416215004    1.7319993620   -0.1776274307
 H   -1.2458647086   -2.8225334143    0.1499906633
 H    1.1178727675   -4.0350958794   -0.5146540278
 H    2.4466357444   -3.1553475659   -0.0346984243
 H    4.6988579991    0.3269860174   -0.0398650014