17

 C    0.1424717241    1.2366984068   -0.4393795303
 C   -0.0850580414   -0.1745702629    0.0174695155
 C   -0.8892945789   -0.5489893957    1.2478491867
 C    0.5861193994   -0.8819144921    1.1439093335
 O    0.8871235097   -2.1900677688    0.7040068944
 C    0.6926237541   -2.2062531947   -0.7008220761
 O   -0.1671190545   -1.1322735971   -1.0334949246
 C    2.0415252378   -2.0249215480   -1.4034086137
 O    2.4975193015   -2.8096634511   -2.1901824872
 H    1.0607426308    1.3161783993   -1.0297478919
 H   -0.6925060926    1.5783296546   -1.0592625397
 H    0.2216126157    1.9080215013    0.4202644558
 H   -1.1792660889    0.2481502479    1.9253134256
 H   -1.5886882614   -1.3721980763    1.1597466801
 H    1.3310044343   -0.4430093354    1.7979297294
 H    0.2387534300   -3.1548993963   -1.0024659596
 H    2.5741350205   -1.0892862214   -1.1174290779