17

 N   -0.2000694128    1.4586496734   -0.0561975082
 C    0.0150441223    0.0185355748   -0.1297951491
 C    1.0193902318   -0.3630121555   -1.1530891185
 N    1.7947813884   -0.6227199407   -1.9703355225
 C    0.4451812519   -0.5649640087    1.2224725058
 O    1.1363650566    0.3041709453    2.1109229530
 C   -0.1376554917   -0.2391990127    2.5332512596
 C   -1.2571294650    0.7305841751    2.8232930917
 O   -1.1193694179    1.2749756826    4.1277644184
 H    0.6313755009    1.8954239411    0.3306610096
 H   -0.3547345882    1.8399980056   -0.9834896460
 H   -0.9271129562   -0.4652672746   -0.4198213309
 H    0.8951440929   -1.5532071418    1.1181930878
 H   -0.0264304383   -1.0032017058    3.3052372013
 H   -1.3069751553    1.5003270231    2.0478034713
 H   -2.2062235556    0.1820765721    2.8257130446
 H   -0.3204082540    1.8128763167    4.1305310122