13

 O   -0.0542314236   -0.0676418248    0.0218841515
 C    0.0320224099    1.1363110911    0.0019214766
 N   -1.0457597110    2.0277911625   -0.0185705317
 C   -0.7119794620    3.4521000450    0.0222610124
 C    0.7706164627    3.3229766548    0.0102977218
 C    1.2055321810    2.0499584529   -0.0061486819
 N    2.5929397908    2.0332772526   -0.0248012542
 C    2.8963415078    3.2897534054   -0.0199554320
 O    1.8242691614    4.1627167996    0.0001036474
 H   -1.9863911088    1.6845915539    0.0788328522
 H   -1.1052343507    3.9951136879   -0.8474367601
 H   -1.0930481480    3.9436636982    0.9276833987
 H    3.8720605305    3.7490062509   -0.0282828908