19

 C   -0.0052890550    1.4766673158   -0.0196098478
 C   -0.0173173706   -0.0309923129    0.0273077739
 C   -1.3234499047   -0.7573250621   -0.2609436454
 O   -1.2246019264   -2.0436560855    0.3334134565
 C   -0.2947933689   -1.9971020925    1.4097480583
 C    0.6483063389   -0.8535389924    1.0993897193
 C    1.2527783094   -0.8140931975   -0.3009976127
 C    1.2848058396   -1.9482037082   -1.1777533530
 C    1.3536335047   -2.8822644687   -1.9327949108
 H    0.9672047940    1.8757952086    0.2836536503
 H   -0.2128544507    1.8450366727   -1.0307124224
 H   -0.7642645852    1.8968162576    0.6504002490
 H   -2.1583948928   -0.1786622982    0.1692627844
 H   -1.5197939036   -0.9053286599   -1.3284807288
 H   -0.8002847536   -1.8089438964    2.3710906959
 H    0.1921885446   -2.9766946614    1.4600237280
 H    1.2067557614   -0.3967039564    1.9087682108
 H    2.1360479818   -0.1834343854   -0.3718032829
 H    1.3964888469   -3.7127868471   -2.5925614427