18

 O   -0.1781017301   -0.0024504767   -0.0336141882
 C   -0.0519568670    1.1923864946    0.0173434710
 C    1.2729958685    1.9271230946   -0.0047697964
 C    1.3675149767    2.8168704625   -1.2592323224
 C    2.7273825885    3.5208080536   -1.2992210261
 C    3.1305680120    4.1959607958    0.0066439020
 O    3.9687801024    5.0760335010    0.0489890524
 N    2.5358676035    3.7171399252    1.1441607724
 C    1.4073821817    2.8045083756    1.2479050444
 H   -0.9431718614    1.8630679714    0.0684426989
 H    2.0680264250    1.1746097859   -0.0235842462
 H    1.2243218918    2.2174304711   -2.1639590774
 H    0.5585406294    3.5589925123   -1.2385354050
 H    3.5172702966    2.7961380853   -1.5337418347
 H    2.7668212516    4.2840463379   -2.0798645363
 H    2.8188322456    4.2080376913    1.9807590928
 H    0.4698048346    3.3647064923    1.3974315005
 H    1.5444799406    2.1720204861    2.1320686883