20

 C   -0.1802002348    1.4052455554    0.0865104192
 N    0.0654726502   -0.0175980034   -0.0053190679
 C    0.3504201106   -0.6970008395   -1.1670363028
 C    0.4820438957   -2.0285188205   -0.8612580829
 C    0.2738619124   -2.1688362648    0.5398359513
 C    0.3537726778   -3.4424385019    1.3202784203
 O   -0.8468674540   -3.6235309988    2.0794197989
 C    0.0155894629   -0.9064944250    1.0470146179
 C   -0.2804566887   -0.4689500572    2.4441208290
 H    0.4955385983    1.8788626717    0.8063203252
 H   -0.0118463232    1.8575048200   -0.8922805171
 H   -1.2111498442    1.6165320761    0.3922041358
 H    0.4278257294   -0.1688286918   -2.1041668545
 H    0.7050148924   -2.8226600679   -1.5582472931
 H    0.5045699259   -4.2797110117    0.6218232949
 H    1.2232803154   -3.4324353383    1.9985930459
 H   -0.7263497075   -4.4048277792    2.6290037436
 H    0.5291097626    0.1326449811    2.8794001593
 H   -1.1956780813    0.1333557620    2.5031083680
 H   -0.4324084000   -1.3505562463    3.0679131588