14

 O   -0.0173994929    0.0437569511   -0.5228711737
 C   -0.0144805736    1.1369440781   -0.0180071042
 C   -1.3221917942    1.7927240958    0.4246255793
 N   -1.1361183803    3.1776312586    0.8320711130
 C    0.0691133113    3.5525764080    1.3870501906
 N    1.2088855409    3.0126076697    1.1915139138
 C    1.2667486874    1.9255528182    0.2304961707
 C   -0.0070788129    4.7113864064    2.2564841900
 N   -0.1145482010    5.6370764824    2.9397674493
 H   -2.0362643297    1.7322092685   -0.4020805619
 H   -1.7179002200    1.1736120503    1.2441922636
 H   -1.9542634500    3.6620098730    1.1699834447
 H    2.0558522775    1.2207784576    0.5095084569
 H    1.5691223076    2.3389443322   -0.7455700521