17

 C    0.1397839160    1.4434432864   -0.1903161832
 C    0.0216887297    0.0274127157    0.3299624589
 O    0.8007743213   -0.4215575328    1.1436372409
 C   -1.1662500057   -0.7834007938   -0.1913032042
 C   -0.9908887358   -2.2668947694   -0.2036735385
 C   -1.4837910463   -3.2394433837   -1.0389647250
 N   -1.0825419267   -4.4887884884   -0.6280599614
 C   -0.3513074719   -4.2773939489    0.4435793982
 N   -0.2741997613   -2.9541916123    0.7527453524
 H    0.8911816979    1.9922452890    0.3780961370
 H    0.4298206667    1.4178202562   -1.2476120791
 H   -0.8256910565    1.9583543812   -0.1395740442
 H   -2.0057150952   -0.4850582136    0.4610789262
 H   -1.4456043663   -0.4365767187   -1.1909394177
 H   -2.1086434220   -3.1066638911   -1.9100999100
 H    0.1449927032   -5.0353151416    1.0310997549
 H    0.3015220430   -2.4935955343    1.4414757749