21

 C   -0.4520671103    1.4812294342    0.0232785596
 C   -0.0227768058    0.0173914803    0.0397800242
 C    0.8036620127   -0.4255567114   -1.1949096526
 C    1.6789614176   -1.6162682589   -0.7260142066
 C    1.3566802096   -1.8215820086    0.7750424944
 O    2.3991385220   -2.3711189207    1.5414075474
 C    0.8497777757   -0.4221328241    1.2448820393
 C    1.9847814924    0.4584682619    1.5005820581
 C    2.9622095622    1.1327875127    1.7010243670
 H    0.4190624846    2.1437716517    0.0178281253
 H   -1.0481536154    1.6975769272   -0.8696049381
 H   -1.0604481920    1.7322484589    0.8986731226
 H   -0.9246429814   -0.6073617717    0.0900512946
 H    0.1500721719   -0.6827800217   -2.0330770027
 H    1.4345429916    0.4039550666   -1.5303049105
 H    1.5015453906   -2.5323194171   -1.2947447605
 H    2.7438024914   -1.3831449432   -0.8250293969
 H    0.5197794470   -2.5200303066    0.8836586895
 H    3.0872250405   -1.6963439330    1.6101955699
 H    0.2565034538   -0.5114162784    2.1614521753
 H    3.8015146613    1.7558510318    1.8899520307