21

 C    0.3965384469    1.4174534007   -1.2144491256
 C    0.3626275772   -0.0760144870   -0.8908227155
 C    1.6031556725   -1.0481126565   -0.9855701403
 C    2.1136964989   -0.5272197263    0.4067868973
 C    2.9323976009    0.7599644178    0.5392583068
 C    0.5362176121   -0.6073495124    0.5901709830
 C   -0.2763436770   -0.2687899604    1.8059908867
 C    0.7202053233   -1.9585590745   -0.1196019710
 O    0.3642492981   -3.0945285767   -0.0342605860
 H    0.7701667985    1.5894351012   -2.2298013917
 H   -0.6253347862    1.8095960671   -1.1773637861
 H    0.9917037023    2.0153679744   -0.5270277931
 H   -0.5165170465   -0.5002439489   -1.3902047155
 H    2.1947497200   -1.2946418403   -1.8652744163
 H    2.6168481958   -1.3050939886    0.9923622429
 H    2.6391561432    1.3299869256    1.4281019001
 H    3.9884734122    0.4988255863    0.6597990853
 H    2.8665367563    1.4183243431   -0.3255163237
 H   -0.1981242214    0.7944350735    2.0593461941
 H   -1.3346743400   -0.4986431206    1.6439636275
 H    0.0604943429   -0.8466287275    2.6731126510