18

 C   -0.0257725406    1.5442755329    0.0130165263
 C    0.0156191142    0.0451036362   -0.0125488276
 C    0.4733907762   -0.9783170166   -1.0816581738
 C    1.2461081070   -1.7728061380   -0.0307811692
 C    0.6332999147   -0.8544141006    1.0851591862
 N   -0.3404336158   -1.5036935921    1.9557847581
 C   -1.3769140097   -1.9294810184    1.3673974387
 O   -1.6911897568   -1.8229664946    0.0498029826
 C   -0.9693703293   -0.8389488189   -0.6827338368
 H    0.9754460966    1.9679264443    0.1504364551
 H   -0.4339980750    1.9492056957   -0.9189082310
 H   -0.6545152470    1.9044270902    0.8359075666
 H    0.7808230443   -0.8042474687   -2.1069970766
 H    1.0243213363   -2.8402056239    0.0532638780
 H    2.3267352933   -1.6386171306   -0.1199146600
 H    1.3854970935   -0.3553713498    1.6967981717
 H   -2.1583577357   -2.4662268774    1.9008446222
 H   -1.6277267561   -0.3924343298   -1.4192963904