16

 O   -0.1567940438    0.0629784455    0.5350704555
 C   -0.0443843337    1.2131634358    0.1655821531
 N    1.1129087181    1.7948745133   -0.2460194515
 C    2.3963183193    1.1122392753   -0.2391431682
 C    3.0018604561    0.9761219265   -1.6316591472
 C    4.2006960060    1.5533427782   -1.7223042795
 C    4.5635367819    2.1901859167   -0.4169553408
 O    3.6347081129    3.2355022896   -0.0217574037
 C    3.4626727793    1.9172224821    0.5119159061
 H   -0.8957121454    1.9202444330    0.1202058963
 H    1.1225443038    2.7725491213   -0.4955898263
 H    2.2181887214    0.1381227837    0.2262341234
 H    2.4533288506    0.5025200262   -2.4374075691
 H    4.8255971630    1.6007370654   -2.6052493997
 H    5.5905468494    2.3496778950   -0.1059636227
 H    3.5737822512    1.8232766422    1.5879175145