21

 C   -0.1623886076    1.0783717133    0.2033513496
 C    0.9227452632    0.0633447949   -0.1475762576
 O    1.3874135419   -0.6568732048    0.9937508250
 C    0.6131471672   -1.7936240000    1.3297273980
 O    0.6763028137   -2.7733976202    0.3130469562
 C    1.6867267337   -3.7780893958    0.3849033806
 C    2.8049820338   -3.4858362761    1.3919904837
 C    2.1868613055   -3.0638550356    2.6985906625
 C    1.1193403879   -2.2729884408    2.6655823387
 H    0.1953439845    1.7723556162    0.9695770814
 H   -0.4413821161    1.6559033099   -0.6844908833
 H   -1.0679420468    0.5917730354    0.5793865107
 H    0.5772124393   -0.6386493795   -0.9157602671
 H    1.8028477489    0.5796290690   -0.5450846496
 H   -0.4499018970   -1.5209913697    1.3744430804
 H    1.2017996718   -4.7254453798    0.6615094317
 H    2.0949496212   -3.8943874435   -0.6252129177
 H    3.4240642939   -4.3816111198    1.5034825143
 H    3.4533453077   -2.6873896728    1.0113036841
 H    2.6128168509   -3.4102773339    3.6353455737
 H    0.6162336224   -1.9166306363    3.5574107746