18

 C   -0.0558534875    1.5316571529    0.0110534740
 C    1.3051647757    0.8351901951   -0.0061917048
 C    0.0404392184    0.0528761888    0.0020711642
 C   -0.5376580451   -1.0233385544    0.9334122221
 N   -1.7638774088   -1.0177798672    0.0140747644
 C   -0.5560634129   -1.0132056604   -0.9293184817
 C    0.1137629891   -2.0536026201   -0.0101132337
 C    1.2615832167   -2.9460157628   -0.0263081740
 O   -0.1056775348   -3.4395693196   -0.0154832961
 H   -0.3614380153    2.0249843027    0.9277126955
 H   -0.3794704123    2.0348870604   -0.8939594591
 H    1.8851038602    0.8796817927   -0.9226797573
 H    1.9031344195    0.8698019848    0.8990667465
 H   -0.6221067669   -1.0223577548    2.0201507004
 H   -2.1684587892   -1.9601429406    0.0129462107
 H   -0.6619701328   -1.0004099578   -2.0141010509
 H    1.8052054619   -3.1258755468   -0.9523199077
 H    1.8233760739   -3.1358775228    0.8867710972