17

 C   -0.0238052135    1.4932848670   -0.0594625508
 O    1.1612857636    1.8740260587    0.6642194104
 C    2.2048161216    0.9131145994    0.4609662124
 C    1.4900440069   -0.3525370191    0.0384104769
 O    1.9911268962   -1.2132420988   -0.9965948447
 C    1.5621642198   -1.8043104930    0.2435756988
 C    0.1264004895   -2.3361246526    0.2002784962
 C   -0.7201845114   -1.0852349981   -0.0189007619
 C    0.0456597849    0.0023121084   -0.0812627316
 H   -0.8823116325    1.9090326279    0.4746819365
 H   -0.0084701892    1.9191701056   -1.0762635455
 H    2.8917288686    1.2316462368   -0.3367033166
 H    2.7665527692    0.8312841010    1.3958556092
 H    2.3368800098   -2.3122971058    0.8107903215
 H    0.0055565985   -3.0787783344   -0.5977702619
 H   -0.1415034802   -2.8333971447    1.1413393493
 H   -1.8008008217   -1.1256488084   -0.0958712282