14

 O    0.0054348658   -0.0458805725    0.0290901329
 C   -0.0180336773    1.1519731969   -0.0116339079
 N   -1.1135933075    1.9744354876   -0.0308099098
 C   -0.8220027724    3.3927644156   -0.0022367733
 C    0.7059419286    3.3807668336    0.0077095164
 C    1.4161878309    2.7611595720    1.1691882854
 C    0.6968490879    2.4760230019    2.3854884722
 N    0.1274813293    2.2810542723    3.3729871368
 N    1.1748755893    1.9963031207   -0.0846831395
 H   -2.0311551750    1.5887601263    0.1198842182
 H   -1.1876767150    3.9054612030   -0.8992416085
 H   -1.2493111918    3.8892247130    0.8775380250
 H    1.2347353535    4.1198499158   -0.5841716497
 H    2.4636305538    3.0008604437    1.3255357217