19

 C    0.1666301670    1.2731652777   -0.1793953128
 O   -0.1508299943   -0.0673158424    0.1410454152
 C    0.6199011374   -0.6074449480    1.1808080843
 C    0.1698526098   -2.0237474272    1.4691536845
 O    0.6873671069   -2.9783151245    0.5219838944
 C    1.3430741575   -2.8398656047    1.7973845258
 C    2.5897161452   -1.9816453924    1.7252111616
 C    2.1524122648   -0.7625423553    0.8709889689
 O    2.3911826682   -0.9495711168   -0.5069225210
 H    1.1671242697    1.3541694670   -0.6200117348
 H   -0.5736805110    1.6088710558   -0.9094461123
 H    0.1064690609    1.9233230637    0.7078347996
 H    0.4992655319   -0.0071325411    2.1021844560
 H   -0.8334302009   -2.2261943343    1.8320866911
 H    1.2862098516   -3.7137199294    2.4407610390
 H    2.8838650301   -1.6796305168    2.7379516838
 H    3.4412270692   -2.4874601617    1.2617475471
 H    2.7086285197    0.1352169936    1.1510148844
 H    1.8161803163   -1.6774270932   -0.7791458546