21

 C   -0.2883617617    1.6024251088   -0.0883545105
 C    0.0453231821    0.1023760813    0.0123212557
 C    0.7744472090   -0.4308995450   -1.1882638756
 C    2.0409475754   -0.8765889362   -1.2560589135
 C    3.0575324280   -0.9592930000   -0.1593185059
 C    2.4072826304   -1.3390098583   -2.6462458228
 C    1.1293643882   -1.1209954140   -3.4617982506
 O    0.9788589720   -1.3770791229   -4.6276878945
 C    0.0757623494   -0.5191320128   -2.5263460075
 H    0.6238862769    2.2004064278   -0.1786581150
 H   -0.9160039473    1.8178200965   -0.9587399932
 H   -0.8290269311    1.9392313321    0.8013618547
 H    0.6274838535   -0.0755028837    0.9215796127
 H   -0.8927068939   -0.4574801641    0.1352269490
 H    3.4077206396   -1.9913727850   -0.0276827018
 H    3.9456907949   -0.3622154224   -0.4042428085
 H    2.6751395664   -0.6090269092    0.8016322090
 H    3.2379919410   -0.7730088917   -3.0907055932
 H    2.7092172103   -2.3947275377   -2.6907807481
 H   -0.8203351114   -1.1551592362   -2.5091094104
 H   -0.2555008717    0.4509802226   -2.9203625698