18

 C   -0.3051851169    1.4204452246   -0.0932300297
 C   -0.4458817559   -0.0249556378    0.3471380413
 O   -1.2509667599   -0.7040584481   -0.6144826528
 C   -1.4429181088   -2.0386277875   -0.3285558871
 C   -2.3602454033   -2.5127030198    0.7521092166
 O   -3.4324476154   -1.5609256380    0.9403859408
 C   -3.8686593564   -1.7845710857   -0.3686627243
 N   -4.8940096471   -1.3816131954   -0.9594083105
 C   -2.7459222125   -2.7124145372   -0.7137617257
 H    0.3028019739    1.9777193510    0.6255112793
 H    0.1738393264    1.4798867338   -1.0744566045
 H   -1.2877839624    1.8950619705   -0.1610952820
 H    0.5407822287   -0.5100572797    0.4180912579
 H   -0.9219225121   -0.0921557652    1.3356978765
 H   -0.5696453204   -2.6809343190   -0.4750867710
 H   -2.1639602203   -3.2082150404    1.5571532806
 H   -5.4521693783   -0.7715399874   -0.3602391400
 H   -2.8083763193   -3.5858201087   -1.3459313955