15

 N   -0.0133775350   -1.1270578200   -0.0233077904
 C   -0.0161777452    0.0296390844   -0.0092379555
 C   -0.0078233480    1.4772551942    0.0156463532
 C   -0.1139851326    2.0800283218    1.4613471407
 C    1.4177015908    1.9124680193    1.5784982266
 C    1.4307865136    2.1313935923    0.0380515204
 N    1.2748483486    3.5587363044   -0.2423607039
 C    0.3557684876    4.1062761754    0.4382161316
 O   -0.4441385119    3.4711004382    1.3337144732
 H   -0.7010413660    1.8800447007   -0.7258221694
 H   -0.8008029483    1.6522925518    2.1883713290
 H    1.9615158882    2.6318678100    2.1916447152
 H    1.6768669649    0.8896229508    1.8549268825
 H    2.2140804451    1.6925952842   -0.5761570653
 H    0.1142814682    5.1623064026    0.3625599122