16

 C   -0.0340073486    1.4868178473   -0.0289115789
 N   -0.0081852801    0.0286255576    0.0336149143
 N   -0.0354073161   -0.5913595885   -1.1738032587
 C   -0.0141437067   -1.8810972124   -1.1621706145
 C    0.0369182888   -2.7057658077    0.0591061213
 O    0.0552848566   -3.9196110160    0.0201360035
 N    0.0619481450   -1.9803943938    1.2552061538
 C    0.0393518006   -0.6842186326    1.2035004056
 C    0.0662379701    0.0976898200    2.4893716190
 H    0.8629202467    1.9181624430    0.4246565875
 H   -0.0694847829    1.7539056730   -1.0834234699
 H   -0.9163694981    1.8889635010    0.4770783767
 H   -0.0359596475   -2.3761689122   -2.1282455651
 H    0.1023371706   -0.6146819455    3.3119141920
 H    0.9411110672    0.7543299783    2.5418172639
 H   -0.8237261455    0.7269854785    2.5954717898