18

 N   -0.2669019419    1.2933850533   -0.1588349624
 C   -0.0930150201   -0.1170105462    0.1357789375
 C    0.9655383325   -0.4348586401    1.1887335028
 O    1.6440546408    0.3828994249    1.7580095148
 O    1.0483350242   -1.7628559350    1.4031020597
 C    2.0133403727   -2.1790520719    2.3862948987
 C    1.9959774226   -3.6781225126    2.4325622172
 C    2.3580212547   -4.3953815260    3.6607236361
 O    0.9962202785   -4.2853741567    3.2505645528
 H   -0.5099999897    1.7832694401    0.6978832141
 H    0.6286822409    1.6867220357   -0.4351604316
 H   -1.0421269877   -0.5501826807    0.4719917382
 H    0.1702120213   -0.6615075199   -0.7788681824
 H    3.0024688240   -1.8027881355    2.1033666640
 H    1.7515657433   -1.7576972627    3.3612738327
 H    2.1538231788   -4.1730809377    1.4740306880
 H    2.7952512409   -5.3899185981    3.5907204190
 H    2.6241955640   -3.8338515510    4.5555991507