14

 O   -0.0672017167    1.3001857544    0.0095860706
 C    1.2054330231    1.8003847075    0.0004054791
 C    2.1503705048    0.8302921651   -0.0139184708
 C    1.4272481343   -0.4135650051   -0.0139873241
 C    0.0620597892   -0.0573449909    0.0008004411
 N   -0.9833227589   -0.8532512162    0.0062194716
 C   -0.6750255563   -2.1561833151   -0.0038911866
 C    0.6341861428   -2.6544245146   -0.0189492123
 C    1.7147463331   -1.7785296185   -0.0242474040
 H    1.2703675691    2.8766399135    0.0057921006
 H    3.2186367609    0.9793447599   -0.0231598011
 H   -1.5169374488   -2.8427798773    0.0002211053
 H    0.7930669872   -3.7266667574   -0.0263841823
 H    2.7358258061   -2.1447358653   -0.0358748072