16

 O   -0.1017394346    1.3275351818    0.1711976822
 N    0.0125306780   -0.0503338113    0.0948574730
 C   -1.1295696500   -0.6350477656   -0.0358590421
 C   -2.4313127710    0.0235506750   -0.0973372737
 C   -3.5767900308   -0.6704984373   -0.1421686766
 C   -3.6292950403   -2.1714535701   -0.1684396038
 C   -2.3237904239   -2.7824910678   -0.7051785504
 C   -1.0718099384   -2.1423576135   -0.1234244340
 O   -0.1058882964   -2.7863522125    0.2085484551
 H    0.8171828104    1.6069815140    0.2521497225
 H   -2.4367021537    1.1058154736   -0.0668329437
 H   -4.5235117050   -0.1367017036   -0.1442451993
 H   -3.8299020497   -2.5433251759    0.8472221235
 H   -4.4765040841   -2.5090758477   -0.7755432574
 H   -2.2686747403   -3.8600654878   -0.5376746400
 H   -2.2810321704   -2.6117174613   -1.7904146653