20

 C    0.0070997381    1.5208316867    0.0105009893
 C   -0.0309482126   -0.0114009968    0.0025215454
 C   -1.4811945050   -0.5202320595    0.0063631806
 C    0.7161634815   -0.5484620036   -1.2360549601
 O    0.8698228620   -1.9609967749   -1.1792971275
 C    1.5546713759   -2.3433490707   -0.0170370537
 O    0.8803597838   -1.9734153728    1.1553590470
 C    0.7272787397   -0.5615719223    1.2285272009
 H    1.0346248690    1.9017230949    0.0078535297
 H   -0.5035852979    1.9294253377   -0.8683963603
 H   -0.4955469271    1.9200223700    0.8983085029
 H   -2.0231957703   -0.1586554894   -0.8743272569
 H   -1.5080495427   -1.6114333526    0.0007553428
 H   -2.0152414136   -0.1679424810    0.8956352041
 H    0.1669445650   -0.3315213501   -2.1572646116
 H    1.7083843339   -0.0697382679   -1.3074361126
 H    1.6182125769   -3.4331876186   -0.0231202694
 H    2.5698600362   -1.8983321502   -0.0192521446
 H    1.7201225015   -0.0835814961    1.2960531089
 H    0.1863948156   -0.3544775729    2.1569067851