13

 N   -0.1848853866    1.2944496284    0.0120550021
 C   -0.0134966941    0.0496773335    0.0017211848
 O   -1.1442923180   -0.7360186778    0.0077940769
 C   -1.0476764796   -2.0806618993    0.0002002924
 N   -2.2324431079   -2.6980312914    0.0040483658
 C   -2.1545874857   -4.0172212886   -0.0031279811
 C   -0.9165340811   -4.6671501150   -0.0139565075
 N    0.2184156956   -3.9786263823   -0.0172008218
 N    0.1563203058   -2.6520780635   -0.0098087391
 H    0.7183439815    1.7653517888    0.0056314669
 H    0.9129562088   -0.5214204001   -0.0117952732
 H   -3.0895688200   -4.5726101899   -0.0002948397
 H   -0.8267587288   -5.7474514529   -0.0200935064