12

 N   -0.3650027838    1.3168635234    0.4133846013
 C   -0.0457009472    0.0119067667    0.1230143944
 N   -0.9131932652   -0.8273224586   -0.4592660726
 N   -0.2110037897   -1.9778894609   -0.4823834928
 C    1.0087289750   -1.8018460550    0.0581905995
 C    1.9912340570   -2.8835449587    0.1625016723
 O    1.7706235248   -4.0078838283   -0.2310026528
 N    1.1494193987   -0.5402333446    0.4551391973
 H    0.4367302230    1.9227746974    0.4993650714
 H   -1.1069587709    1.7016311915   -0.1515764706
 H   -0.5985993660   -2.8241963678   -0.8684330003
 H    2.9482418744   -2.5846414651    0.6301608130