19

 C   -0.7065955614    1.1413961444   -0.2456009688
 C    0.2402867614   -0.0079462294    0.0577336876
 C    1.5717897985   -0.1096048954   -0.7381007297
 C    2.3198249049   -0.4736471495    0.5797363265
 C    1.0702403529    0.0396212928    1.3711320448
 C    2.5246313401   -1.9689280913    0.7462228274
 N    3.7066027250   -2.3343043974    1.3245279481
 O    1.6922274768   -2.7915306215    0.4057703112
 H   -0.1882853427    2.1063673778   -0.1895143164
 H   -1.1322478533    1.0505990844   -1.2514388497
 H   -1.5405347025    1.1698170593    0.4650739236
 H   -0.2834826814   -0.9648603341   -0.0027427105
 H    1.6157471822   -0.8514313857   -1.5372552048
 H    1.8980980025    0.8610816014   -1.1240609788
 H    3.2480894409    0.0729293049    0.7674726274
 H    1.2237122433    1.0639031061    1.7250410918
 H    0.7278185997   -0.5758568229    2.2061894244
 H    4.3897254915   -1.6642399769    1.6282192807
 H    3.8719347015   -3.3124022069    1.4975138653