12

 O   -0.1388754544    1.3222595086   -0.2550866865
 C    0.0119514382    0.0108617830   -0.0223538683
 N    1.2125089914   -0.4438632812    0.1117839504
 O    1.3030557705   -1.8343704117    0.3553642810
 C    0.2019075789   -2.6340790744    0.4418960910
 N    0.2657836084   -3.8799600789    0.6594574662
 C   -1.0854038302   -1.9309679057    0.2609446087
 O   -2.1654806545   -2.6875776465    0.3409382615
 N   -1.1806228130   -0.6681092819    0.0390614001
 H    0.7462216400    1.7130810556   -0.2811745261
 H    1.2388257510   -4.1783561966    0.7561129859
 H   -2.9296542762   -2.1048205401    0.2050370262