15

 N   -0.0773682532    1.4383207266   -0.2686798844
 C   -0.0469020780    0.0282073278   -0.0397555090
 C    0.4109930795   -0.8591681254   -1.2417421123
 C   -0.8615286963   -1.7488454204   -1.0889493292
 C   -1.2773070183   -0.9240875083    0.1391560241
 O   -0.6777918908   -1.4541135017    1.3644677204
 C    0.3869658041   -0.5797773656    1.3050995072
 O    1.2496790521   -0.4287245190    2.1101331052
 H   -0.1877147681    1.9564825069    0.5975402729
 H    0.7914275736    1.7477683952   -0.6926475380
 H    0.4133820882   -0.2787395500   -2.1667305272
 H    1.3796786796   -1.3480312525   -1.1250756932
 H   -1.5534114773   -1.6459252980   -1.9274532724
 H   -0.7022024114   -2.8088202165   -0.8846376409
 H   -2.3059120037   -0.6094204790    0.3047804570