15

 N   -0.0821976331    1.3279280666   -0.1266764279
 C   -0.0228567058    0.0655938725    0.0106234559
 C   -1.2927676410   -0.7632051775    0.1104912625
 N   -1.1597684857   -1.9649958171    0.9260287245
 C   -0.0526256969   -2.7945490659    0.4698200024
 C    1.2713189582   -2.0607954248    0.2579562228
 O    2.3519150220   -2.6056397152    0.2445487086
 N    1.1543169685   -0.6884521497    0.0737948406
 H    0.8456486486    1.7500580527   -0.2120612205
 H   -2.0852092162   -0.1209884287    0.4966987680
 H   -1.5858762646   -1.0668014471   -0.9040652064
 H   -1.0128396410   -1.7032945245    1.8959196703
 H    0.1345963728   -3.6084035859    1.1735719056
 H   -0.3227854666   -3.2607807700   -0.4881842140
 H    2.0392811707   -0.2049263655   -0.0263727423