20

 C   -0.1886469630    1.4619054115   -0.2188940537
 N    0.0840185998    0.0530021170    0.0308751734
 C    1.3703958691   -0.5683375858   -0.1473599980
 C    2.5558165778    0.2976991291    0.3316114114
 C    1.9339572204    0.3147172490    1.7585779059
 C    2.7072491501   -0.5436139188    2.7701284075
 C    1.6389830831    1.6455748428    2.4039180726
 O    2.0748915115    2.7114406675    2.0469190870
 C    0.7048002006   -0.4835477646    1.2112374326
 H    0.6433863161    2.1447565747   -0.0143513663
 H   -0.4733484266    1.5730549658   -1.2698370962
 H   -1.0422522124    1.7665967284    0.3945594832
 H    1.4483873718   -1.4185634327   -0.8167464633
 H    3.5091819790   -0.2336921824    0.2997211913
 H    2.6802352398    1.2711193729   -0.1473918899
 H    3.6898218833   -0.1112456062    2.9832982141
 H    2.1598758343   -0.6316470411    3.7158433424
 H    2.8525639186   -1.5533511018    2.3737363274
 H    0.9708784934    1.5709152373    3.2962260856
 H    0.1777404733   -1.2406922726    1.7849380429