17

 O   -0.1382797608    1.2775143791    0.0683305988
 C   -0.1386785231   -0.1103461663    0.1978373004
 C   -0.8773903091   -0.7662782935    1.3116659274
 C   -1.4632609617   -0.8171217631   -0.0981081491
 C   -2.6881679175    0.0238719753   -0.4353501631
 C   -3.9237066474   -0.5268859844    0.1135293529
 C   -4.9282746286   -1.0022474698    0.5712501952
 C   -1.3289900876   -2.1184644811   -0.8074179213
 O   -0.4415048159   -2.9129313135   -0.6013466373
 H    0.3297775943    1.6494440046    0.8231532619
 H    0.7433696203   -0.6183645234   -0.1886668094
 H   -0.4897326542   -1.7008992924    1.7012048236
 H   -1.4009442006   -0.1292790689    2.0167715929
 H   -2.5277085643    1.0426923614   -0.0707208808
 H   -2.7788814901    0.1087758667   -1.5267742256
 H   -5.8213362270   -1.4132813089    0.9722575296
 H   -2.1101276866   -2.3167685919   -1.5736967860