21

 C   -0.1419700671    1.5261084390    0.0017577994
 C   -0.0381579872   -0.0022103295   -0.0311660157
 C    0.7693867192   -0.5234903912   -1.2049222436
 C    0.1440380570   -0.4127017566   -2.6357309537
 C    0.2681318251   -1.9547355812   -2.8113939148
 C    0.9383443337   -2.0646136725   -1.4121991800
 O    2.3372000665   -2.2860758380   -1.3992256971
 C    2.9330618951   -1.0362640804   -1.6730749057
 O    2.1090870198   -0.0472725349   -1.1039908480
 H    0.8515002196    1.9773396795    0.0654384242
 H   -0.6291871723    1.9127829293   -0.8998354089
 H   -0.7263884415    1.8590268385    0.8645944526
 H    0.4302511304   -0.3655815546    0.8914503879
 H   -1.0401866389   -0.4467810349   -0.0769737496
 H   -0.8780962275   -0.0270065698   -2.6487022135
 H    0.7469796686    0.1840245741   -3.3238368751
 H   -0.6865095585   -2.4814560632   -2.8804659498
 H    0.9086237012   -2.2910223887   -3.6298213678
 H    0.4811698038   -2.7487119629   -0.6943828989
 H    3.9199815005   -0.9985647393   -1.2034111111
 H    3.0307437523   -0.8832432828   -2.7632987108