22

 C    0.2835488056    0.9937592640   -0.3670672451
 N    0.0743403601   -0.4334083498   -0.2483434088
 C   -1.0952858309   -0.8253208285    0.0010734747
 O   -1.3660402721   -2.1309882626    0.1781302639
 C   -2.7543188006   -2.5028990749    0.2530637844
 C   -3.3442982920   -2.7340298065   -1.1568094163
 C   -3.1803405297   -4.2545505594   -1.4496012278
 C   -2.4367417312   -4.8370609600   -0.2252892415
 C   -2.8041680493   -3.8785493066    0.9191799133
 H    0.7119225086    1.2235094268   -1.3495880028
 H   -0.6325856221    1.5951106692   -0.2411595739
 H    1.0135333541    1.3242442019    0.3811837849
 H   -1.9665387892   -0.1592590245    0.1164390397
 H   -3.2943889642   -1.7320903753    0.8156342497
 H   -4.3992586464   -2.4427614547   -1.1679825674
 H   -2.8317261819   -2.1049682220   -1.8888128737
 H   -4.1641476809   -4.7230486337   -1.5544267347
 H   -2.6420820315   -4.4396635690   -2.3821432838
 H   -2.7090555911   -5.8751318000   -0.0180958732
 H   -1.3551979205   -4.8033235013   -0.3878434076
 H   -2.1379954572   -3.9353721254    1.7829925141
 H   -3.8285466476   -4.0665595176    1.2626722918