21

 O   -0.2476509882    1.5198180402   -0.2648303507
 C    0.0190715381    0.1441915494   -0.0266107988
 C   -1.3193272995   -0.5635098654    0.0553340282
 C   -2.1887393270   -0.6573591176   -1.2292059772
 C   -2.6016257552   -2.0791645076   -0.7891580853
 O   -2.7281758635   -3.1029009763   -1.7681203429
 C   -1.3809893710   -2.1199715741    0.1874290509
 C   -0.2070500286   -2.9203156801   -0.3778127882
 O   -0.4996757406   -4.3045782127   -0.3931292586
 H    0.5924529408    1.9820541625   -0.3385615696
 H    0.6316125263   -0.2831305871   -0.8361866890
 H    0.5742268149    0.0015663984    0.9150150842
 H   -1.8951421225   -0.0988891830    0.8617766582
 H   -2.9744599131    0.0837358206   -1.3829292203
 H   -1.5590016484   -0.6853181215   -2.1274795971
 H   -3.5459445621   -2.0759587075   -0.2378191757
 H   -2.1747480963   -2.8668826911   -2.5194146497
 H   -1.5993292674   -2.5036207382    1.1877586894
 H    0.0644751206   -2.5590025789   -1.3856531030
 H    0.6832356092   -2.7940479549    0.2478803969
 H   -1.3278516065   -4.3897394152   -0.8851675015