18

 C    0.0173081689    1.5157100353   -0.0232374094
 N    1.2479095900    0.6995976091    0.0592431637
 C   -0.0593587938    0.0410700187    0.0183967890
 C   -0.4836073722   -0.8354391145    1.2090320104
 C   -1.1079982257   -2.0460717173    0.4404306319
 O   -0.2420230641   -2.1301630862   -0.7028122295
 C   -0.5085056928   -0.8103375510   -1.1923132818
 C   -2.0362462193   -0.7753357154   -1.2061745036
 C   -2.4097348593   -1.5489000635   -0.1876888548
 H   -0.2018865608    2.1034461328    0.8644163313
 H   -0.2149518243    2.0186483303   -0.9602429987
 H    1.7016885047    0.6550305125   -0.8509105339
 H    0.3988658357   -1.1434819568    1.7733611937
 H   -1.1905541635   -0.3503459384    1.8857769702
 H   -1.1303336405   -2.9938178561    0.9761312526
 H    0.0186434477   -0.6197873338   -2.1281775050
 H   -2.6443067655   -0.1566464733   -1.8511680780
 H   -3.4018317153   -1.7200163523    0.2070374116