20

 C   -0.0084356539    1.6182108062    0.0728125580
 C    0.1191066978    0.1014985011    0.0514271407
 C    1.1823465431   -0.6066026261   -0.7767097380
 C    2.4270043143   -0.7632652301    0.0436167442
 N    1.2919428802   -1.7447759960    0.1973723474
 C    0.7514743269   -0.6893330530    1.2270252000
 C    2.1754257692   -0.1778207113    1.4031760917
 C    3.0391903184   -0.4049824273    2.6043114218
 C    2.7426861994    1.0049500885    2.1267755383
 H    0.9512680378    2.1014169326    0.2708305570
 H   -0.3792071480    1.9862743179   -0.8901068637
 H   -0.7178799176    1.9422967354    0.8425517031
 H   -0.8477237984   -0.3594699715   -0.1811754255
 H    1.1792985592   -0.7894278235   -1.8465707863
 H    3.3751847102   -1.0638258010   -0.3895342744
 H    0.1578235825   -1.0189252522    2.0790243645
 H    2.5675994161   -0.7420953025    3.5220788322
 H    4.0401609939   -0.7952447308    2.4501395667
 H    3.5443085405    1.5631889944    1.6533984293
 H    2.0734292084    1.6137165491    2.7261595728