18

 C   -0.0657087864    1.4674472580    0.0153844061
 C    0.0467944976   -0.0369927379   -0.0002395754
 C    0.6795971303   -0.6909552226   -1.2568784935
 C    0.0746570285   -2.1244466208   -1.1903121938
 C   -0.7700548046   -1.9922768486    0.0904428414
 O    0.1039558158   -2.0149551138    1.2197360812
 C    0.6760375240   -0.6996095822    1.2475218944
 O   -1.2543905111   -0.6681724538    0.0337898328
 H    0.9293220844    1.9236410883    0.0121118464
 H   -0.6064045358    1.8215963762   -0.8668282509
 H   -0.5981435674    1.8074475808    0.9081807043
 H    0.3611561490   -0.1594268300   -2.1569865368
 H    1.7718868850   -0.6803844780   -1.2242103923
 H   -0.5559249184   -2.3435075563   -2.0557410764
 H    0.8219151644   -2.9139041995   -1.0926496047
 H   -1.5795544763   -2.7059403293    0.2417674269
 H    1.7694552769   -0.7558738495    1.1975696912
 H    0.3831688443   -0.1878234111    2.1725140891