20

 C   -0.0495351441    1.5286988958   -0.0004145926
 C    0.0123937258    0.0115892783   -0.0066533010
 C   -1.2277636005   -0.6426477398   -0.5898285785
 C    1.3254961916   -0.6635730444   -0.2402656211
 O    2.4329522420    0.1421624254   -0.4783517587
 C    0.7175745575   -0.6925018856    1.1812103222
 C    1.3798555483    0.1120284109    2.2918993960
 C    0.1804914387   -1.9554703295    1.6131966902
 N   -0.2382133081   -2.9764340702    1.9653863246
 H    0.8913400939    1.9898058694    0.2974905384
 H   -0.2859259466    1.8875855948   -1.0078151007
 H   -0.8417569882    1.8788731886    0.6697717132
 H   -1.3704713765   -0.3166498961   -1.6258780176
 H   -1.1659801885   -1.7331187929   -0.5802735168
 H   -2.1194168092   -0.3570537918   -0.0212321588
 H    1.3126840152   -1.6065439396   -0.7855557124
 H    3.2261833986   -0.3522903000   -0.2445147868
 H    2.0415362049    0.8707123442    1.8727057094
 H    0.6364003720    0.6043684460    2.9253771678
 H    1.9787145733   -0.5454991335    2.9286477632