19

 C    0.0351809017    1.5448927871   -0.0364653263
 C    0.0177022837    0.0899914248    0.0381670269
 C    0.0227315275   -1.1156770679    0.0919221138
 C    0.0099847038   -2.5712004758    0.1571608514
 C    0.1902799891   -3.2904180581    1.5485327089
 C   -1.1261358031   -4.0384643079    1.3196949529
 C   -2.2411627044   -3.0473883294    1.1579160606
 O   -2.2933831266   -1.8542450419    1.8829248758
 C   -1.3442813226   -3.2903363652   -0.0162274965
 H    0.9137145268    1.9015720396   -0.5852865780
 H   -0.8536467816    1.9290859936   -0.5489530847
 H    0.0628086414    1.9950320424    0.9618833495
 H    0.7390104784   -2.9737841391   -0.5521501560
 H    1.0733842061   -3.9304569490    1.5630540323
 H    0.1984858043   -2.6317753451    2.4194489430
 H   -1.3049373512   -5.0801060509    1.5571343982
 H   -3.2229048648   -3.5066907694    1.0522959021
 H   -1.8956601869   -1.1546082981    1.3502387622
 H   -1.7199125316   -3.6437618199   -0.9697335658