15

 N   -0.0563823489    1.2708986075   -0.0155331666
 C   -0.0184724998    0.0129144781   -0.0134018760
 O    1.0976285598   -0.7884708807   -0.0049865730
 C    0.5649355480   -2.1382210408    0.0382990407
 C    0.0679572699   -2.3943204168    1.4733480706
 C   -1.2394510308   -1.5443147704    1.4607323323
 C   -1.1805092388   -0.9633439188    0.0228571594
 O   -0.6129982431   -2.0591242183   -0.7245156505
 H    0.8859413937    1.6653727490   -0.0076644819
 H    1.2882208287   -2.8226032990   -0.3995126720
 H   -0.1321437431   -3.4569318804    1.6259912070
 H    0.7986662859   -2.0639542987    2.2131462822
 H   -2.1275182687   -2.1686606082    1.5732388513
 H   -1.2605257531   -0.7626564773    2.2216751152
 H   -2.1072090597   -0.6127164152   -0.4206041887