23

 C    0.0566077631    1.7117307196   -0.0126496375
 C    0.0094511984    0.1756344000   -0.0152426106
 C    0.6605383518   -0.4360295599   -1.2670083694
 C   -0.0301923877   -0.0829346923   -2.5793660876
 O    0.6003162021   -0.8343303493   -3.6081417233
 C    0.6699992775   -0.3897544657    1.2501583798
 C   -0.1156565737   -0.1678711174    2.5385575688
 C    0.6173173852   -0.4914720886    3.8294110152
 O   -1.2595784992    0.2276779627    2.5397345961
 H    1.0919260047    2.0710609571   -0.0685450093
 H   -0.4868263531    2.1354142833   -0.8619370057
 H   -0.3983387694    2.1105974878    0.8971678783
 H   -1.0447165461   -0.1272570820    0.0144921258
 H    1.7139922299   -0.1329468914   -1.3329264476
 H    0.6587969855   -1.5301822969   -1.1850462876
 H   -1.1034292910   -0.3270222664   -2.5086058729
 H    0.0462914989    0.9960107972   -2.7804935779
 H    0.1995926877   -0.5887319900   -4.4469347089
 H    0.8049301360   -1.4780968915    1.1584268776
 H    1.6856205449    0.0103863852    1.3794126547
 H    1.4177318302    0.2404313635    3.9908370911
 H   -0.0760717799   -0.4564938359    4.6705590701
 H    1.0947888944   -1.4756723794    3.7754572708