20

 C    0.2482799084    1.5134529108   -0.0975614875
 C    0.1458256060   -0.0054138770   -0.0072857501
 N    0.5860988714   -0.6255226117   -1.2605731778
 C    0.5100145930   -2.0866249777   -1.2784509768
 C    0.8620379539   -2.6318342541   -2.6642935565
 C    2.3952691108   -2.6809133810   -2.6115402635
 O    2.7158518687   -2.9487920542   -1.2361283651
 C    1.6761234140   -2.6242060509   -0.4258979075
 O    1.7281632898   -2.7391372204    0.7650430371
 H    1.2755477164    1.8192343216   -0.3151962542
 H   -0.3975300003    1.9102359869   -0.8902566138
 H   -0.0616707503    1.9769863008    0.8434096638
 H    0.7843226962   -0.3803812529    0.7975273584
 H   -0.8874025865   -0.2992754468    0.2548582312
 H    0.0192647901   -0.2659000201   -2.0231930786
 H   -0.4388229968   -2.4809702853   -0.8823778767
 H    0.4526635061   -3.6391077617   -2.7854047054
 H    0.4885344145   -2.0108696548   -3.4826594173
 H    2.8337862847   -3.4766936804   -3.2167859624
 H    2.8422773900   -1.7223882012   -2.8926278972