17

 C   -0.0393570904    0.8378700498   -0.4744590644
 O    0.1870952305    1.0484514677    0.9074129693
 C    0.7582551848    0.0068167503    1.5535959745
 C    1.1722247535   -1.2413239173    1.1522070886
 C    1.6634371868   -1.9090125433    2.3288082852
 N    2.2711383479   -3.1829319943    2.3699698114
 C    1.5268080136   -1.0420770884    3.3765502501
 O    1.8029568064   -1.2018963825    4.7067228890
 N    0.9978298237    0.1561925788    2.8900510542
 H   -0.7063304741   -0.0181320705   -0.6395642397
 H   -0.5081862416    1.7465320243   -0.8547825053
 H    0.9038052518    0.6603100379   -1.0071764239
 H    1.1652615486   -1.6364587521    0.1498070655
 H    1.7541154499   -3.8586468950    1.8183970485
 H    2.3081600035   -3.5233538631    3.3247085818
 H    2.7144034695   -0.9343769276    4.8794294448
 H    0.6124596556    0.8889562454    3.4601848602