18

 O   -0.1130834340    1.4695143569    0.0973384602
 C   -0.0603270150    0.0678112377    0.1111351430
 C   -0.4809987208   -0.7572082358    1.2864260680
 C   -1.6372284740   -0.0756607013    2.0305035484
 C   -2.4998786493   -0.1492034973    0.7296958811
 C   -3.1527621330    1.1283865565    0.1739428490
 C   -4.2340265388    1.6077543343    1.0323250315
 N   -5.0818627812    1.9684344042    1.7305277964
 C   -1.3061819790   -0.7416731400   -0.0313069264
 H    0.5758691043    1.8013977936    0.6833626046
 H    0.7828466446   -0.3469588421   -0.4425167245
 H    0.1443032209   -1.5450443077    1.6893773478
 H   -2.0503337683   -0.6731452676    2.8437172173
 H   -1.4216350498    0.9289227158    2.4049061760
 H   -3.2706064213   -0.9143781190    0.8530159443
 H   -2.3986724237    1.9122910277    0.0695050392
 H   -3.5607899885    0.9352447054   -0.8254592157
 H   -1.3922776330   -1.5020068614   -0.7993573704