22

 C   -0.1112165153    1.2847911978    0.3634310565
 C    0.1151227968   -0.1944440572    0.0413883807
 C    0.7412599970   -0.4854722001   -1.3328037378
 C    0.9427630131   -2.0145678780   -1.4794986812
 C    1.8203686985   -2.4297832857   -2.5674236094
 C    2.5650940095   -2.7901062883   -3.4402237919
 N   -0.1394982634   -0.0135463452   -2.3998899227
 C    0.0411049680    1.3573552232   -2.8728850619
 C    0.4545829210    0.2084391246   -3.7178141723
 H    0.8192397455    1.8588496034    0.2871300059
 H   -0.8439032744    1.7370879787   -0.3091625299
 H   -0.4850901354    1.3989039269    1.3857874928
 H    0.7706146351   -0.6303741171    0.8056920132
 H   -0.8391804872   -0.7323556433    0.1016461673
 H    1.7330876702    0.0014299905   -1.3854967081
 H    1.3488959789   -2.4038920594   -0.5379246368
 H   -0.0468468564   -2.4700846928   -1.6073075709
 H    3.2139207310   -3.1092501202   -4.2176175115
 H   -0.8716978938    1.9068931424   -3.0854504900
 H    0.8359594871    1.9534007129   -2.4280943518
 H    1.5202954704    0.0317259339   -3.8321625320
 H   -0.1514256263   -0.1061448467   -4.5623575883