14

 N   -0.0927713505    1.2949874769    0.0135894676
 C    0.0781607494   -0.0538158832   -0.0084477725
 O    1.1345543487   -0.6386893390   -0.0055100234
 O   -1.1433969854   -0.6655246180   -0.0941750553
 C   -1.0955677481   -2.0832016092   -0.0239346477
 C   -1.0839513425   -2.5478856080    1.4461664298
 O   -0.9948908213   -1.7957391807    2.3731589922
 C   -2.2359792910   -2.6594734703   -0.7205272443
 C   -3.1802037569   -3.1876512171   -1.2415687616
 H    0.7145636472    1.8409961520    0.2606892054
 H   -1.0014211365    1.6624995680    0.2402908990
 H   -0.1515226151   -2.4351454891   -0.4645231393
 H   -1.1575023379   -3.6495676053    1.5626924173
 H   -4.0101873100   -3.6432744871   -1.7236292574