18

 C    0.1307581239    1.4849427039    0.0991324861
 C   -0.0354445224   -0.0469348300   -0.0277701278
 C   -1.5048647266   -0.4652294897   -0.0417857353
 O   -2.0645938501   -0.0858952635    1.2063067807
 C    0.6691513163   -0.5330748727   -1.2710593607
 O    0.1024833607   -0.8699897119   -2.2890574081
 C    2.2187516191   -0.5861513119   -1.2067964567
 N    2.7599384011   -0.9683030201   -2.3835264878
 O    2.8325096119   -0.3130862438   -0.1923862533
 H    1.1836638383    1.7521573292    0.2027430145
 H   -0.2830248887    1.9955125511   -0.7773849375
 H   -0.4133385629    1.8234887617    0.9826059894
 H    0.4643674139   -0.5015548298    0.8347476089
 H   -2.0179816333    0.0225282627   -0.8830980649
 H   -1.5797835622   -1.5512908592   -0.2014143177
 H   -3.0058114310   -0.2797181312    1.1843757352
 H    2.1445545363   -1.1964576182   -3.1476277278
 H    3.7568635856   -1.0665885864   -2.4712287071