14

 N    0.0628338141    1.4181922760    0.1107048640
 C   -0.0396100383    0.0421567417    0.0249947004
 C   -1.1120688274   -0.7805614381   -0.0222708716
 N   -2.4686038809   -0.5227184448   -0.0915955800
 C   -0.6243814765   -2.1875893189   -0.0399929726
 O   -1.3014429820   -3.1895434759   -0.0565493300
 N    0.7694565188   -2.1218297420   -0.0161585108
 C    1.1936072074   -0.7927864606    0.0202456245
 O    2.3366481376   -0.3978861294    0.0306469965
 H    1.0160373168    1.7310313415   -0.0311473473
 H   -0.5939660966    1.9353838960   -0.4585104240
 H   -2.7928230817    0.2376922049    0.4911231411
 H   -3.0158045376   -1.3645219848    0.0445918072
 H    1.3821044263   -2.9200026056   -0.0242714974