20

 C   -0.0438991814    1.5430522671   -0.0615513218
 C    0.0068987332    0.0084477324    0.0247739288
 C    0.7539042804   -0.4283989994    1.2977055889
 C   -1.4276348599   -0.5476381197    0.0446389556
 C    0.7383476992   -0.5483729997   -1.2624586634
 C    2.2006444553   -0.0829723811   -1.3457574551
 O    2.5263182336    0.9480049084   -1.8676104258
 C    0.7032113764   -2.0090058120   -1.3263855253
 N    0.7157656001   -3.1642481635   -1.3688881020
 H    0.9518849794    1.9903114973   -0.1016800868
 H   -0.5945743054    1.8735647626   -0.9482562356
 H   -0.5584490560    1.9401874467    0.8190919692
 H    0.2039285414   -0.0953490281    2.1830906005
 H    0.8506500595   -1.5171521248    1.3544214609
 H    1.7564185047    0.0087165184    1.3537131785
 H   -1.9776646151   -0.2608902808   -0.8580095878
 H   -1.4390147650   -1.6386235869    0.1184292282
 H   -1.9686336623   -0.1452126358    0.9069089395
 H    0.2259420017   -0.1414247759   -2.1410483153
 H    2.9399346404   -0.7628860753   -0.8740834911