21

 C   -0.1315204965    1.5440669784   -0.0077233870
 C   -0.0056648337    0.0180863303    0.0212927132
 C    0.8261601498   -0.5519803552   -1.1795981959
 C    2.0787365722   -0.6380109317   -0.2377008555
 C    1.0998362208   -0.5261507398    0.9097739700
 C    0.8941849875   -1.0979203991    2.0874320710
 C   -0.4954520500   -1.0784856118    2.6760560828
 O   -1.4614953246   -0.4210810840    1.8674278807
 C   -1.3137321480   -0.6373801577    0.4656743194
 H    0.8395554736    2.0308145832   -0.1430631365
 H   -0.7823870425    1.8590842099   -0.8321845125
 H   -0.5649769273    1.9029374632    0.9297923916
 H    0.4845002757   -1.5442936001   -1.4857897284
 H    0.9113528993    0.0873432446   -2.0618181972
 H    2.6969874489   -1.5378335624   -0.2890052206
 H    2.7292233825    0.2361727620   -0.3473796358
 H    1.6516135261   -1.6785651535    2.6083619068
 H   -0.8081365128   -2.1219517189    2.8664512967
 H   -0.5230698007   -0.5621388124    3.6436403464
 H   -2.2012634189   -0.1906846539    0.0054054743
 H   -1.3027106216   -1.7139364210    0.2332283565