20

 C    0.0199939053    1.6120950819    0.0960474332
 C    0.0159987998    0.0778889831    0.0714923833
 N    0.7284749822   -0.5486240628    1.1911177508
 C   -1.4204437001   -0.5148333258   -0.0089773271
 N   -2.1442397080    0.0764139180   -1.1416187101
 C   -1.3847281335   -2.0694452670   -0.0924650924
 O   -2.6880546171   -2.5968155712   -0.2651922930
 C   -2.1590283901   -0.1740898751    1.2280706570
 N   -2.7212699125    0.0272204555    2.2181842256
 H    1.0515893151    1.9786074093    0.0936226460
 H   -0.5056831715    2.0346329765   -0.7629870954
 H   -0.4700434933    1.9816046999    1.0032987670
 H    0.5156824642   -0.2627608951   -0.8462722053
 H    1.7102851423   -0.2930027373    1.1515220550
 H    0.3754435197   -0.1743618762    2.0695515829
 H   -1.5765004096   -0.0439147614   -1.9777804336
 H   -2.9831681909   -0.4812840868   -1.2895411466
 H   -0.8183202201   -2.3403503254   -0.9901519644
 H   -0.8721289019   -2.4892406799    0.7771848698
 H   -3.1346023300   -2.5700289001    0.5885786372