14

 C   -0.0483160383    1.4884588603    0.0137277189
 C    0.0027012291   -0.0070075158   -0.0515090422
 N   -0.1436510382   -0.6270774210   -1.1651413789
 C   -0.0882352863   -2.0066793309   -1.1727598015
 N   -0.2221018207   -2.6907292478   -2.2222618280
 O    0.1296356208   -2.6838734353    0.0608021951
 C    0.2854617139   -2.0452813200    1.2419054615
 O    0.4682797701   -2.6278888337    2.2707833823
 N    0.2137614243   -0.6619704369    1.1433793761
 H    0.8921567246    1.8890059249    0.4081964963
 H   -0.2196589318    1.8835223452   -0.9861702649
 H   -0.8539542758    1.8177189522    0.6793461930
 H   -0.1486215521   -3.6852653054   -2.0098988237
 H    0.3267854904   -0.1582435357    2.0097281860