18

 C   -0.0466850100    1.4718832017   -0.0275251579
 C    0.0064124852    0.0172181559   -0.0146806254
 C    0.0572230829   -1.1860354489    0.0125037576
 C    0.0825623021   -2.6506476671   -0.0010966552
 O   -1.2244902183   -3.2039936494    0.1776278224
 C    0.7589628719   -3.1871393879   -1.2749737922
 C    0.8601844682   -4.7069389534   -1.2830713760
 O    1.4964650690   -5.0882093305   -2.4946017358
 H    0.7595361145    1.9012114977    0.5773505993
 H    0.0530330316    1.8681820408   -1.0439064730
 H   -0.9955873265    1.8365715361    0.3808673184
 H    0.6465308960   -3.0077590736    0.8709180871
 H   -1.8104501353   -2.7500105389   -0.4383413180
 H    0.1930369115   -2.8558513289   -2.1537814848
 H    1.7614715443   -2.7540633379   -1.3607586487
 H    1.4385561772   -5.0433174163   -0.4058915376
 H   -0.1451640947   -5.1410496921   -1.1970459713
 H    1.5070431805   -6.0487278272   -2.5358681288