19

 C    0.0661696569    1.4973334561   -0.0752021425
 C    0.0542588266    0.0125258313    0.0721859911
 C   -0.9262718259   -0.8270622735    0.8293338268
 C    0.5621815148   -0.9623528993    1.1122215257
 C    1.2157204584   -1.6762307255   -0.0570835316
 C    2.7409094551   -1.8751384796   -0.1225808938
 O    2.5812027096   -3.3071029014   -0.1925501069
 C    1.1481235418   -3.1884812548   -0.3266116058
 O    0.6144797695   -0.7685353230   -1.0038820074
 H    1.0771805842    1.8644033502   -0.2769053489
 H   -0.5791954292    1.8046439165   -0.9058437627
 H   -0.3057594204    1.9750863454    0.8356100428
 H   -1.4849185996   -0.3152325804    1.6071945477
 H   -1.4667257168   -1.6206236111    0.3200865445
 H    1.0045346504   -0.8028587854    2.0867184545
 H    3.1869970309   -1.4547609905   -1.0330177966
 H    3.3224394939   -1.5638548667    0.7535874906
 H    0.6072226896   -3.7994633293    0.4053755305
 H    0.8031227003   -3.4307681088   -1.3399470080