17

 C   -0.4675274995    1.4064574754   -0.0800095500
 C   -0.0357997977   -0.0456757785   -0.0646870560
 N    1.2438198075   -0.3299744482   -0.8188897944
 C    1.8979881636   -0.6637505836    0.2959753142
 N    3.1456784228   -0.8673899661    0.6412002956
 H    3.9152124866   -0.6581731753    0.0227310669
 H    3.1945022073   -0.6939065935    1.6820372492
 C    0.7360383847   -0.5692841565    1.1958674297
 C    1.0983927899    0.3282085334    2.4928946600
 O    2.2335258050    0.0235933872    2.9351447785
 O    0.2353165181    1.1108944010    2.8606073946
 H    0.3497432568    2.0667465419    0.2183513847
 H   -0.8293932666    1.6960977210   -1.0726521731
 H   -1.2672118538    1.5447694890    0.6500980334
 H   -0.8365040957   -0.7062136364   -0.4082864732
 H    1.5977126228    0.0627431912   -1.6812449527
 H    0.3779711181   -1.5193001021    1.5950703726