19

 C   -0.1498958004    1.4819387702   -0.0190566671
 C    0.0508145877   -0.0123764892    0.0627948542
 C    1.3895047713   -0.6540894221   -0.1111768145
 C    2.7190745847    0.0759331368   -0.0428540610
 C    2.7532924597    0.5200466782    1.4192601226
 C    1.6907398889    0.0995271489    2.1236380611
 C    0.7479267061   -0.6671032379    1.2662575650
 C    0.7300533277   -2.1913729498    1.0712859269
 O    1.2906827524   -2.0792949289   -0.2719339943
 H    0.6717518127    2.0328535909    0.4436926063
 H   -0.2282308325    1.8005724447   -1.0639482163
 H   -1.0744047491    1.7731426757    0.4906360820
 H   -0.7741619488   -0.5953232835   -0.3427094525
 H    3.5437165943   -0.6045506042   -0.2858459680
 H    2.7932286433    0.9248781434   -0.7337664687
 H    3.5523991970    1.1416123383    1.8136139134
 H    1.5353134669    0.3025222104    3.1781455194
 H    1.4163144863   -2.7259052105    1.7372719912
 H   -0.2457592184   -2.6917357913    1.0639698503