21

 C   -0.3672055117    1.4434142386    0.1652685184
 C   -0.0649364759   -0.0459774755    0.0147879426
 C    0.7735134781   -0.4698403136   -1.2361733361
 C    0.7731708779    0.3807989483   -2.4961580795
 C    2.0667483416   -0.5307253268   -0.3397003211
 C    2.9141902325    0.6442780209   -0.3626763564
 C    3.6054512229    1.6302584728   -0.3163295264
 C    1.1074957792   -0.5592116087    0.9111716939
 O    1.4728403089    0.1397327288    2.0632881292
 H    0.5184967255    2.0675025724    0.0155332251
 H   -1.1239520510    1.7639476235   -0.5577429717
 H   -0.7508815060    1.6470560195    1.1695206676
 H   -0.9945524804   -0.6105436110    0.1387147411
 H    0.5166755850   -1.5009359238   -1.5001096283
 H    1.0782057662    1.4103332185   -2.2926252828
 H    1.4648892855   -0.0271703385   -3.2411556389
 H   -0.2247399150    0.4037735084   -2.9471702162
 H    2.6827362065   -1.4252978696   -0.4716263698
 H    4.2336745569    2.4866951820   -0.3088056315
 H    0.9374688143   -1.5952226980    1.2172825515
 H    1.9353758690    0.9418909718    1.7881142792