15

 N   -0.0793430750    1.3487597654    0.0935730822
 C    0.0425212770    0.0034105731   -0.1773094328
 O    1.0958774630   -0.5205290602   -0.4782418045
 C   -1.2310981152   -0.7608523887   -0.1055836815
 C   -1.3512469516   -2.0894637466    0.0216940558
 C   -2.8074789951   -2.4385309604    0.1285535001
 C   -3.5178484560   -1.0824800161   -0.0310134286
 O   -4.6981588965   -0.8512534388   -0.1155290082
 N   -2.4972731502   -0.1336248722   -0.0785656493
 H    0.7948515477    1.8443338495    0.1905750292
 H   -0.8324927348    1.6633144582    0.6859217142
 H   -0.5202669873   -2.7746757327    0.0824304206
 H   -3.1615992700   -3.1336736862   -0.6408833626
 H   -3.0757241501   -2.8841488275    1.0944940671
 H   -2.6757505858    0.7844596031   -0.4556474518