14

 C   -0.1037909319    1.5594691643    0.0800983671
 C   -0.0415073739    0.0275320787   -0.0120085345
 C    0.8356022509   -0.5474192000   -1.1594077107
 O    1.8173179158   -1.0299392642   -0.1902261635
 C    1.0836471137   -0.5819919749    0.8734592518
 O    1.3354032088   -0.6619603479    2.0289383324
 C   -1.3414052158   -0.5942307659    0.1545388773
 C   -2.4196422507   -1.1071302466    0.2894578665
 H    0.8901731602    1.9951551260   -0.0577236215
 H   -0.7746008491    1.9586170690   -0.6851957717
 H   -0.4803896965    1.8577925354    1.0610526769
 H    0.4000913661   -1.3762612883   -1.7178138423
 H    1.2813726071    0.1917937104   -1.8278782614
 H   -3.3703912847   -1.5634650361    0.4172316033