14

 C   -0.0389908684    1.5462999295    0.0350884053
 C   -0.0328144828    0.0492647166    0.0034443632
 C    0.0117327966   -0.7722863913   -1.1121572827
 N   -0.0007157566   -0.4924542132   -2.4843264853
 N    0.0031921297   -2.0501549307   -0.6541993915
 N   -0.0329216064   -2.1309120082    0.6989919147
 C   -0.0632748729   -0.8627005268    1.0866868355
 H    0.5554898169    1.9712330992   -0.7833722504
 H   -1.0483332725    1.9697465814   -0.0457587302
 H    0.3914802064    1.9194792492    0.9692196503
 H   -0.0279218006    0.5043724414   -2.6555792354
 H    0.7929110516   -0.8851048612   -2.9793249104
 H   -0.0221261730   -2.8930138251   -1.2018767670
 H   -0.0915708380   -0.6280043206    2.1420803640