21

 C   -0.0372124619    1.4836641722   -0.3995906876
 C    0.0050584361    0.0121232963   -0.0475510208
 C    1.2931527805   -0.7365205642    0.0141273125
 N    0.5132491354   -0.4983520248    1.2279386995
 C    1.0636734881    0.4298902386    2.2094232340
 C    1.8668625840   -0.3491219589    3.2520352888
 C    2.5262126486    0.5740244298    4.2716275689
 N    2.7681961918    0.0045754030    5.4889879463
 O    2.8282402185    1.7267023636    4.0244980959
 H    0.8821839606    2.0067626083   -0.1274239252
 H   -0.1790358165    1.6014525432   -1.4792043348
 H   -0.8738598169    1.9861728786    0.0986378373
 H   -0.8725833621   -0.5383962620   -0.3859058698
 H    1.3634312199   -1.7687435968   -0.3198928905
 H    2.2035931230   -0.1525299697   -0.1246702017
 H    1.7134144512    1.2057755595    1.7833071793
 H    0.2299383075    0.9456185049    2.6996670539
 H    1.2286639752   -1.0912650856    3.7433047186
 H    2.6640918154   -0.9115061434    2.7473693885
 H    2.5488172954   -0.9551261116    5.6879230606
 H    3.2621237361    0.5454310191    6.1797041064