20

 C   -0.0398711929    1.5694729877    0.0464007353
 C    1.5063334679    1.4187708120    0.0098838482
 C    1.7660691240    0.7900166642    1.3934292054
 C    0.8115991198   -0.4392889584    1.2541876017
 C    1.6385685344   -1.6212996406    0.7163724865
 C    2.1664474305   -1.0761802683   -0.6456825872
 C    1.2724387902    0.1475458145   -0.8900051688
 C    0.0017264298    0.0263667161    0.0069676979
 H   -0.4855087431    2.0672018518    0.9136563747
 H   -0.4483311797    1.9924176680   -0.8752319079
 H    2.1581080908    2.2351683326   -0.3056828320
 H    2.8060615884    0.4917911252    1.5586945749
 H    1.4806777888    1.4686324198    2.2029869799
 H    0.2272545624   -0.6673185831    2.1476631329
 H    2.4389792339   -1.9186976471    1.4010596308
 H    1.0002037818   -2.4983908361    0.5585677821
 H    3.2266823642   -0.8050029206   -0.6001451915
 H    2.0636516714   -1.8146613692   -1.4464291158
 H    1.0839206690    0.4027024760   -1.9341629848
 H   -0.8592656418   -0.5812133642   -0.2769397221