22

 C    0.3472525618   -0.5419567296    1.7559540228
 C   -0.1319742662   -0.2597042328    0.3269916117
 C   -1.6104913389   -0.6048389323    0.0327841215
 O   -2.4849532394    0.0496777916    0.9443548138
 C   -2.0323829483   -0.1256740406   -1.3703266382
 C   -2.0237163291    1.3931906533   -1.5684009693
 C   -1.8098988624   -2.1482065646    0.1317043312
 C   -3.1947891263   -2.5705206330   -0.0604639989
 N   -4.2853623453   -2.9205523907   -0.2132835472
 H    1.3851386056   -0.2186348098    1.8756433036
 H   -0.2422439463    0.0114763706    2.4955186399
 H    0.3111322692   -1.6045931791    2.0169287857
 H    0.0046568324    0.8058907321    0.1227288283
 H    0.5019521016   -0.7987793074   -0.3878915487
 H   -2.2740472127   -0.2326213031    1.8400484002
 H   -1.3802958793   -0.6079575345   -2.1089771241
 H   -3.0455626340   -0.4985177775   -1.5538501349
 H   -2.4529335910    1.6447282859   -2.5426834304
 H   -2.6189557625    1.8845367749   -0.7956252161
 H   -1.0139501384    1.8135785948   -1.5413899144
 H   -1.1818360893   -2.6529724467   -0.6110545799
 H   -1.4826519312   -2.5066072415    1.1139290533