17

 O    0.1160950688    0.1126769147    0.1052065252
 C    0.0185735655    1.3036413493    0.0243165195
 C   -1.2273827441    2.2005357990    0.0650638731
 C   -0.4763711561    3.5176795571   -0.0695724287
 N    0.6404297951    3.3063860365    0.9973644784
 C    1.1589781754    2.3334972685   -0.1180662623
 C    2.1840524441    1.8374488028   -1.1739301017
 N    1.0997590409    2.2676659032   -2.1791437563
 C    0.6667836515    3.2683045933   -1.1491779363
 H   -1.9056160474    1.9797778519   -0.7631585238
 H   -1.7619176355    2.1095119312    1.0126473463
 H   -1.0274861895    4.4556663378   -0.0078558929
 H    1.2393245585    4.1339450011    0.9676557332
 H    3.1002748242    2.4322336452   -1.2507092150
 H    2.3966034443    0.7665441843   -1.1772880804
 H    1.4641342325    2.6715651523   -3.0391160168
 H    1.2763601817    4.1818387518   -1.1960684616