17

 C    0.0025762932    1.5599380404   -0.0023477857
 C    0.0107498177    0.0643837815   -0.0232868594
 C   -0.0028351382   -0.7721702692   -1.1010582430
 N    0.0126166018   -2.0628703084   -0.6186515149
 C    0.0060832826   -3.2217325436   -1.3993753059
 O    0.0196684978   -4.3427730620   -0.9794126850
 N    0.0357711580   -2.0918146419    0.7437245002
 C    0.0348445513   -0.8237444667    1.1087996770
 C    0.0570704378   -0.4432035958    2.5533092113
 H    0.8864724175    1.9596656015    0.5079981730
 H   -0.0107515121    1.9710400025   -1.0150104871
 H   -0.8744122654    1.9499905077    0.5271299042
 H   -0.0217202457   -0.5730489103   -2.1615702018
 H   -0.0134133036   -2.9560687174   -2.4734912289
 H    0.9374865953    0.1653654304    2.7893889901
 H   -0.8245166183    0.1507141539    2.8203593199
 H    0.0753596402   -1.3399697426    3.1747801159