16

 O   -0.0135939107    0.0845738021   -0.7235973206
 C   -0.0183808896    1.2020695574   -0.2254509346
 C   -1.3234897777    1.8699643631   -0.0099103671
 C   -1.6370113795    2.9786553649    0.6706128226
 C   -0.7871509195    3.8261723867    1.5282149419
 N   -0.0377852764    3.1796071482    2.6222736597
 C    0.7213622326    3.8288953010    1.5366029979
 C    1.5837609944    2.9844690577    0.6885215060
 C    1.2818307852    1.8746671170    0.0045762188
 H   -2.1228544743    1.3330666595   -0.5135680946
 H   -2.6764007064    3.2996487646    0.6321561665
 H   -1.2347071060    4.7908908530    1.7584111296
 H   -0.0434379015    3.7801583309    3.4435775892
 H    1.1628450486    4.7952187203    1.7717423338
 H    2.6223482787    3.3092129589    0.6616193681
 H    2.0886799721    1.3406683447   -0.4901498372