16

 N    0.1126488985    1.0489699750   -0.7658928864
 C    0.0490106042    0.0034759656   -0.0694653442
 C   -1.2228234440   -0.7232983930    0.3341756967
 C   -0.7441047079   -1.9902824548    1.0080590206
 C    0.1670355571   -2.9152358664    0.1971016184
 C    0.7809380961   -1.8646621432    1.0475412556
 O    1.1530423682   -0.6557629098    0.4395009798
 C   -1.4714947574   -2.5315597296    2.1748001657
 O   -2.4654733273   -2.0381932394    2.6478789656
 H    1.0818008650    1.3386079267   -0.9046676549
 H   -1.8015734393   -0.1220726068    1.0414331777
 H   -1.8542033436   -0.8928692963   -0.5409152401
 H    0.2434282844   -3.9424668520    0.5400630931
 H    0.1792817450   -2.7852158861   -0.8798228701
 H    1.3768126608   -2.1002176497    1.9208184854
 H   -1.0203417897   -3.4538190600    2.6089140570