21

 C   -0.0687163877    1.5752206566    0.0499262074
 C    1.4844388726    1.4555332779   -0.0026672272
 C    1.7511764040    0.8373394153    1.3848197655
 C    0.7452341806   -0.3629946259    1.3144171801
 C    1.4461044580   -1.7122575858    1.0908475507
 C    2.5189110604   -1.5915366219    0.0011120236
 O    2.1026801098   -0.8447334746   -1.1376518880
 C    1.2081446953    0.2131634335   -0.9268983581
 C   -0.0076848822    0.0276886610    0.0179973534
 H   -0.4969453674    2.0525217749    0.9348525127
 H   -0.5073726590    1.9988168723   -0.8566589035
 H    2.1183924560    2.2820838080   -0.3235845859
 H    2.7866671752    0.5305224790    1.5441465313
 H    1.4938403391    1.5396517802    2.1831884081
 H    0.0874043170   -0.4076219409    2.1865723008
 H    1.9240056717   -2.0713790442    2.0097896698
 H    0.6991457426   -2.4620936752    0.8024332454
 H    3.4300876056   -1.1420796021    0.4203197218
 H    2.7986613325   -2.5803004859   -0.3766871601
 H    0.9110872737    0.5412062953   -1.9256533614
 H   -0.8623841679   -0.5904949175   -0.2603138165