19

 C   -0.0341707777    1.5212629995    0.5226389608
 C   -0.0348238283    0.0158414449    0.3827813067
 C   -1.2015429808   -0.7318263631   -0.0993846216
 O   -0.0825166468   -0.4899123760   -0.9555690245
 C    1.3225178965    2.1057103895    0.1469476729
 C    1.8224397563    2.2092717597   -1.3235657999
 C    0.8618596321    3.3914271766   -1.5941488325
 C    1.5552322548    3.5983339925   -0.2260117779
 O    2.8326054793    3.1922994621   -0.8561299752
 H   -0.8390693426    1.9320548128   -0.0935706307
 H   -0.2635008989    1.7810730060    1.5648152588
 H    0.6741762712   -0.5130027782    1.0232199366
 H   -1.3461704407   -1.7691438784    0.1992614477
 H   -2.1127759742   -0.1935824118   -0.3581280516
 H    2.1151198779    1.7367695468    0.8050898891
 H    2.1578940664    1.4202606541   -1.9952802297
 H    1.1943734739    4.0745716351   -2.3761506291
 H   -0.2131369737    3.2069259443   -1.6292969715
 H    1.5724335553    4.4784233037    0.4186168317