15

 N   -0.0197733125    1.1782115094    0.4546795767
 C   -0.0199348661   -0.0138631324    0.0843431572
 O    1.0257884447   -0.8554478697   -0.2839853183
 C    0.1239662932   -1.9239954947   -0.6540694457
 C   -0.2081343041   -2.9015295057    0.4986136513
 N   -1.2138808774   -1.9531389849    1.0465263979
 C   -1.0898918096   -1.0695991252   -0.1342380980
 C    0.2930596793   -2.4125563788   -2.0585491506
 O    0.9908593983   -1.8890555438   -2.8850983728
 H    0.9246768907    1.5646583199    0.4997467429
 H   -0.6341971994   -3.8386154849    0.1182964557
 H    0.6205606313   -3.1270929728    1.1754396760
 H   -2.1375606937   -2.3490155308    1.1637733783
 H   -1.9893992993   -0.8107789395   -0.6915777045
 H   -0.3185095354   -3.3153971862   -2.2878714161