18

 O   -0.1120077213    1.4791856048    0.0581515759
 C    0.0212682527    0.0650920328    0.0477360717
 C   -1.3795988349   -0.5296981960   -0.0190704092
 C   -1.3766983170   -2.0617361620   -0.0086918189
 O   -0.7155709040   -2.5838241113    1.1352618040
 C   -2.8116749350   -2.6201104621   -0.1423575780
 C   -2.8673943948   -4.0743842075   -0.2026452830
 C   -2.9088844206   -5.2735799877   -0.2647078615
 H    0.7658370087    1.8611170544    0.1474003419
 H    0.6077699391   -0.2747885409   -0.8219113939
 H    0.5312403604   -0.3028351804    0.9485664863
 H   -1.9626347291   -0.1546642626    0.8336931497
 H   -1.8786097422   -0.1637330920   -0.9242423299
 H   -0.7863953139   -2.4316771235   -0.8555239537
 H   -1.2314676374   -2.3425313093    1.9132445695
 H   -3.4097411148   -2.2584614547    0.7069964970
 H   -3.2764400732   -2.1933921045   -1.0402763619
 H   -2.9435670926   -6.3334778376   -0.3145597260