19

 C   -0.6345243138    1.2726228066   -0.0298651365
 C    0.5951385286    0.3673415771    0.1696082026
 C    1.0845373206   -0.2138923682   -1.0752477802
 C    1.4613984210   -0.6863841633   -2.1175097565
 C    1.9430006643   -1.2121918892   -3.3699998646
 C    2.2809325580   -0.2004991050   -4.4530965908
 O    1.1353400966    0.4999380544   -4.8880554580
 C    2.5439733613   -2.5602104723   -3.4273969789
 O    1.2172416265   -2.3542999490   -3.8984494573
 H   -0.4012571166    2.1005348843   -0.7043496122
 H   -1.4647112890    0.7087712575   -0.4631819197
 H   -0.9603424482    1.6869553615    0.9287741655
 H    1.4032164236    0.9421643544    0.6402309050
 H    0.3504982151   -0.4387006390    0.8731248491
 H    2.9766720520    0.5490056941   -4.0636300566
 H    2.7728749858   -0.7321287305   -5.2818843848
 H    0.4948804888   -0.1628907861   -5.1712292720
 H    3.2888598833   -2.7806697273   -4.1917521556
 H    2.6310979319   -3.1339194101   -2.5068649388