11

 O   -0.0352801206   -0.0738358922    0.0036131135
 C   -0.0212546422    1.1333402220    0.0095245786
 N   -1.1763268438    1.9078440803    0.0288593485
 N   -1.2567063021    3.2511028852    0.0367625185
 C   -0.1555054787    3.9184381441    0.0255060439
 C    1.1853608137    3.3050348760    0.0045837105
 O    2.2317585849    3.9120773556   -0.0062621864
 N    1.1275458658    1.9093868759   -0.0017694387
 H   -2.0554644970    1.4136542545    0.0380537722
 H   -0.2188266572    4.9994833147    0.0318432561
 H    2.0054629072    1.4058415338   -0.0159941265