27

 C   -0.1273483992    1.5863556831    0.0200556757
 C   -0.0233054126    0.0584900858    0.0026620734
 C    0.6633857869   -0.4532179723   -1.2737650126
 C    0.7963530634   -1.9830620447   -1.2784333009
 C    1.5358933910   -2.5260002549   -0.0378289556
 C    3.0438829652   -2.2288764810   -0.0947543347
 C    0.8351938778   -2.0114961846    1.2465408567
 C    1.4822883442   -2.5219155593    2.5390921404
 C    0.7029385167   -0.4777167315    1.2474789433
 H    0.8675961344    2.0476263506    0.0074176046
 H   -0.6755183562    1.9584633587   -0.8523630874
 H   -0.6451483088    1.9413983433    0.9177610428
 H   -1.0453658014   -0.3512028157    0.0149582203
 H    0.1008149798   -0.1266101612   -2.1569145521
 H    1.6556024674    0.0114046595   -1.3571989735
 H   -0.2098382201   -2.4229503434   -1.3096556478
 H    1.3063918452   -2.3153773579   -2.1907045264
 H    1.4295476405   -3.6197439540   -0.0441945717
 H    3.2639301942   -1.1580114138   -0.0473512564
 H    3.5810786848   -2.7110533245    0.7268842452
 H    3.4694203150   -2.6075661276   -1.0303637759
 H   -0.1874727045   -2.4177104425    1.2143422039
 H    2.4738446904   -2.0848383766    2.6976020923
 H    0.8692738806   -2.2618509042    3.4087747280
 H    1.5966038893   -3.6116624685    2.5253600795
 H    1.7001056677   -0.0181664905    1.3095012677
 H    0.1695092885   -0.1595627922    2.1526164510