16

 C    0.2243613388    1.5098112389    0.0762091276
 C    0.0782648529    0.0060319506   -0.0186766339
 C    0.7979424840   -0.6516069052   -1.2461018235
 N    1.3948638498   -1.7817635921   -0.5792913009
 N    2.1832792345   -2.8376157629   -0.9358006259
 C    2.5170959868   -3.3039844930    0.2593987925
 N    2.0305379246   -2.6213770332    1.3529066256
 C    1.3514476578   -1.6756553400    0.7547306696
 O    0.6633818791   -0.6083689212    1.1801913166
 H    1.2802223365    1.7938975121    0.1040170279
 H   -0.2439050866    1.9868572702   -0.7906742154
 H   -0.2619743094    1.8849156214    0.9799099231
 H   -0.9783421420   -0.2823740140   -0.0205456722
 H    0.0901389647   -0.9455349777   -2.0246422028
 H    1.5575547363    0.0065386363   -1.6849020854
 H    3.1367395421   -4.1824328604    0.3624847470