21

 C    0.0133291315    1.5953744831    0.0339871843
 C    0.0057959523    0.0659651785    0.0812643664
 O   -1.3425322657   -0.4208910642    0.2230362263
 C    0.6111055950   -0.5399420417   -1.1850774728
 C    0.7582215608   -2.0575727242   -1.3612084189
 C   -0.5647320675   -2.7587229209   -1.4933587049
 C   -0.0298564484   -2.0107516343   -2.6805627530
 C   -0.2073084748   -0.4924154480   -2.5370675721
 O   -1.4944267118    0.0731090780   -2.5408262260
 H    1.0362482144    1.9792512511   -0.0317603199
 H   -0.5519350966    1.9449577600   -0.8341630329
 H   -0.4378381417    2.0165992482    0.9405921026
 H    0.5952962864   -0.2774181303    0.9466297816
 H   -1.7535997485    0.0489902892    0.9555327956
 H    1.5805580581   -0.0522886344   -1.3310288226
 H    1.6715907929   -2.6029411014   -1.1554910760
 H   -0.4921532205   -3.8385385603   -1.5815493498
 H   -1.4349101553   -2.4159659156   -0.9484671709
 H    0.1894628798   -2.5154407368   -3.6139454102
 H    0.3550983720    0.0361986643   -3.3118324681
 H   -1.9073162025   -0.1684033403   -1.7006389487