17

 C    0.0877684920    1.1495772337    0.4383700023
 O   -0.1357302080   -0.2383609740    0.2465858847
 C   -1.4209423080   -0.5520615587   -0.1841589830
 C   -1.5220676980   -2.0674412138   -0.3667665475
 C   -1.9322297219   -2.5317874321    1.0374425349
 C   -2.6842002624   -1.3381166905    1.5852560280
 N   -3.4640533327   -1.3367038563    2.5755171183
 O   -2.4008161966   -0.2322911819    0.8171639608
 H    1.1370023338    1.2660722859    0.7157877306
 H   -0.1043016789    1.7127513191   -0.4869448871
 H   -0.5477748489    1.5522245944    1.2348620534
 H   -1.6918722715    0.0435600216   -1.0661835330
 H   -2.3026498766   -2.2946036624   -1.0979892463
 H   -0.5773915008   -2.4812000047   -0.7197052530
 H   -2.5535583979   -3.4270014952    1.0595771624
 H   -1.0541847401   -2.7158435102    1.6642127767
 H   -3.8298889134   -0.3975177949    2.7422387578