18

 O   -0.1465629110    1.3752281397   -0.0669544484
 C   -0.0142011578   -0.0382147673    0.0337568758
 C    0.4644383294   -0.5826878164    1.4146975044
 C   -0.8028963023   -1.3747112839    1.8066362664
 C   -1.9305304144   -0.3629906753    1.4631424832
 C   -1.4279376023   -0.6393326666    0.0063635508
 O   -2.1809537014   -0.3778293978   -1.1300808440
 C   -1.1642741965   -2.0916383388    0.4690319384
 H    0.7262256148    1.7588697978   -0.1906917755
 H    0.5860984672   -0.4196064995   -0.8033166855
 H    1.3546945606   -1.2141381331    1.3369715785
 H    0.6771347993    0.2403809169    2.1035443985
 H   -0.7873542335   -1.9139302757    2.7522685522
 H   -2.9307164050   -0.7712025112    1.6204088213
 H   -1.8551571395    0.6544979910    1.8529238931
 H   -2.0252767613    0.5492962654   -1.3507786334
 H   -0.3872561128   -2.6664852181   -0.0449202229
 H   -2.0870200735   -2.6714082371    0.5350390471