19

 C   -0.1083670652    1.5210084446    0.0013575741
 C   -0.0109932591    0.0291531890   -0.0120752938
 C    0.0727894812   -0.7902884954   -1.0568626454
 C    0.1063971946   -2.2186985164   -0.6014335493
 O    0.0543467026   -2.1539761901    0.8217493603
 C   -0.0296437395   -0.8006222600    1.2551036161
 C    1.1364446231   -0.4838907083    2.2218376548
 C    1.0921514624   -1.2705222713    3.4465978131
 C    1.0358856794   -1.9119341475    4.4611610439
 H    0.7445368781    1.9797837531    0.5162926892
 H   -0.1441488916    1.9263151142   -1.0129139369
 H   -1.0093950822    1.8520993748    0.5328403763
 H    0.0963004066   -0.4993058145   -2.1001696783
 H   -0.7501481362   -2.7990758257   -0.9804187891
 H    1.0181862998   -2.7494599717   -0.9173049281
 H   -0.9720228379   -0.6554127516    1.8095065103
 H    2.0795861712   -0.6593400751    1.6902754156
 H    1.1044561300    0.5839335539    2.4745482769
 H    0.9933107427   -2.4857825618    5.3532016402