14

 O   -0.0097221152    1.4192325219   -0.0519082321
 C    0.0064531686    0.0085326129   -0.0128678154
 C   -1.3995639591   -0.5684315657    0.0205861552
 O   -2.0355879794   -0.1565761950   -1.1844671422
 C   -3.3959736070   -0.5041720544   -1.2350171684
 C   -3.9719548495   -0.0144579568   -2.4911148245
 N   -4.4501828316    0.3617035171   -3.4720541035
 H   -0.5489576871    1.6646586288   -0.8124579841
 H    0.5470221128   -0.4180261109   -0.8722056762
 H    0.5389336359   -0.2836440903    0.8979072156
 H   -1.3750232067   -1.6676205059    0.0897925033
 H   -1.9483747990   -0.1741100150    0.8896839452
 H   -3.5371315654   -1.5960661661   -1.1856106728
 H   -3.9581913172   -0.0654561406   -0.3947188199