21

 C   -0.1274062258    1.5458442897    0.0806476652
 C   -0.0288950054    0.0554310911   -0.0029766570
 C    0.0001145569   -0.7118873071   -1.0941768503
 C    0.0447780952   -2.1896264449   -0.7810459396
 C    1.0598847496   -2.9707624681   -1.6121385085
 O    0.6488064651   -2.9155750311   -2.9703103783
 C    0.3444075349   -2.2097162612    0.7371895252
 C    0.0037078978   -0.7912925120    1.2584496777
 O    0.8926909095   -0.3086857602    2.2612446574
 H    0.6628636777    1.9557096215    0.7190376669
 H   -0.0611895226    2.0127842603   -0.9054810372
 H   -1.0776722927    1.8495327876    0.5393396941
 H   -0.0417126936   -0.3518829029   -2.1163824357
 H   -0.9376308201   -2.6392437854   -0.9855950659
 H    2.0595075742   -2.5251658176   -1.4779643846
 H    1.1097418366   -4.0115154846   -1.2521199657
 H    1.3059524531   -3.3704804636   -3.5046603628
 H   -0.1866894959   -2.9992852431    1.2739604719
 H    1.4172066297   -2.3782820836    0.9013260994
 H   -0.9763546903   -0.7735874053    1.7541685077
 H    1.7742695461   -0.2817174694    1.8717994200