18

 C   -0.5567360942    1.3302745400    0.2240780553
 C    0.1177704710   -0.0080379701   -0.0201131877
 O    0.5871711802   -0.5056276840    1.2195358056
 C    1.2333153903   -1.7473758365    1.1084337216
 C    1.6727772920   -2.1534195509    2.4719630672
 C    1.5812742731   -1.6056693440    3.7064009927
 N    2.1870963189   -2.4551820782    4.6299916184
 C    2.6024662350   -3.4478609206    3.9191449486
 O    2.3316360334   -3.3470176355    2.5926439915
 H    0.1501011727    2.0421011149    0.6593272325
 H   -0.9318483281    1.7434004162   -0.7168132778
 H   -1.3977554751    1.2156294973    0.9134951931
 H   -0.5894380063   -0.7245590951   -0.4705318442
 H    0.9589162443    0.1022297589   -0.7248766240
 H    0.5597254333   -2.5123754008    0.6816263916
 H    2.1036557581   -1.6866048174    0.4302456535
 H    1.1280733911   -0.6720792323    3.9930350669
 H    3.1287735003   -4.3337100819    4.2374086155