22

 C   -0.3399981138    1.4529401955    0.0090264484
 N   -0.0187412786    0.0394896904    0.0313972758
 C    0.1268997713   -0.5761052480    1.3525121673
 C   -1.1866054300   -0.8813531526    2.0430464380
 C   -1.9536919577   -2.1224628501    1.6597837463
 C   -1.2575874777   -2.0496421080    2.9954879698
 C    0.0487003961   -0.7691380121   -1.0755324485
 C   -0.1136058486   -0.1149448049   -2.4422022762
 O    0.2447137482   -1.9723908151   -0.9841199496
 H   -0.2782317498    1.8546315172   -1.0005071055
 H   -1.3511003247    1.6494705519    0.3910153717
 H    0.3677674285    2.0088793464    0.6364065301
 H    0.6879295697   -1.5007884261    1.2078968412
 H    0.7312385202    0.1001103434    1.9714467196
 H   -1.7780266628   -0.0110923729    2.3163924222
 H   -3.0369504160   -2.0718120079    1.6444739819
 H   -1.5168765452   -2.7478552942    0.8900036715
 H   -0.3608683693   -2.6451587252    3.1334097295
 H   -1.8613179048   -1.9460466403    3.8902907365
 H    0.6478601863    0.6498940372   -2.6249366853
 H   -0.0106645336   -0.9022888992   -3.1879109422
 H   -1.0950378977    0.3561682846   -2.5556276524