16

 O    0.3536946937    1.1868382429    0.6548244712
 C    0.0767506039   -0.0880862007    0.1542743591
 C   -1.4059225895   -0.4790003534    0.0541407078
 N   -1.4405867582   -1.5802364248   -0.9281559875
 C   -0.4481841287   -1.2552537639   -1.9741060225
 C   -1.0546298281   -0.6518701991   -3.1581899374
 C   -1.5406031768   -0.1286088385   -4.1237709381
 C    0.5271848662   -0.2492956567   -1.2965276050
 O    1.4271886715    0.3676717277   -1.7978887406
 H    1.0652057797    1.5471944590    0.1049572023
 H    0.5973836424   -0.8726794276    0.7376446836
 H   -1.8422043270   -0.8006099102    1.0006567244
 H   -1.9849068759    0.3730124749   -0.3200011979
 H   -1.1722302393   -2.4471325562   -0.4760134599
 H    0.1101678668   -2.1512131881   -2.2705169362
 H   -1.9748688206    0.3241843148   -4.9807767832