19

 C   -0.0968672277    1.4264887620    0.2487763781
 O   -0.0691389215    0.0324804054   -0.0516810217
 C   -1.2291772399   -0.6418388678    0.0966158751
 C   -1.0540671326   -2.0990856557   -0.2469217416
 N   -2.2849973404   -0.0534709437    0.4785436403
 C   -3.5244259510   -0.8003748823    0.6348743319
 C   -4.4983239357    0.0652995986    1.4371034012
 O   -4.6630949465    1.3305739571    0.8337013734
 H    0.9243019226    1.7804373825    0.1010149452
 H   -0.7831625671    1.9558431405   -0.4188847258
 H   -0.4172821930    1.5968336726    1.2805038694
 H   -0.0355868937   -2.2925561244   -0.5829552860
 H   -1.2659252500   -2.7254632628    0.6255386892
 H   -1.7561522949   -2.3913852279   -1.0338174396
 H   -3.9658025487   -1.0053777995   -0.3517187582
 H   -3.3820635316   -1.7677346911    1.1400097851
 H   -5.4839824480   -0.4107152425    1.4793982933
 H   -4.1251626688    0.1585600630    2.4708929617
 H   -3.7637881616    1.6137943759    0.6189586591