18

 C   -0.1355902480    1.4230119178   -0.2973596201
 C    1.2306202058    0.8588630326   -0.0231776610
 C   -0.0081142771   -0.0445366591   -0.0162088234
 C    0.5211077162   -0.8018596677   -1.2541891310
 N   -0.3217467911   -0.7532885693   -2.4283060810
 C   -0.0596830592    0.1165129393   -3.3089645094
 O    0.9460189827    1.0245755225   -3.3640768629
 C    2.1103001857    0.7884161935   -2.5460635722
 C    1.8055490681    0.0970092654   -1.2245725292
 H   -0.5541143541    2.0017728632    0.5202238288
 H   -0.4158021183    1.7902270133   -1.2789479600
 H    1.8241180333    1.1925857416    0.8195788907
 H   -0.5082144367   -0.5162380942    0.8200966263
 H    0.7369654548   -1.8467801111   -1.0198231439
 H   -0.7044719883    0.2346330633   -4.1789965006
 H    2.7962615366    0.1694727831   -3.1388775598
 H    2.5712498128    1.7702602845   -2.4067971025
 H    2.6812491068   -0.4851372188   -0.9247058485