20

 C    0.1382315658    1.6011843202    0.3030103972
 C   -0.2318406956    0.1515050596   -0.0260296734
 C    0.6227720912   -0.4604113254   -1.1449909889
 N    2.0823277501   -0.4819942679   -0.8443445621
 C    2.1680233268   -1.9352215516   -1.1479949950
 C    0.6320732773   -2.0283006970   -1.2507884362
 O    0.0860011382   -2.7441229196   -0.1699030641
 C    0.3148948560    0.1935024956   -2.4791594973
 O   -0.4753103241   -0.2284258625   -3.2854381814
 H    1.2052029706    1.6739471970    0.5342940181
 H   -0.0808120195    2.2845953924   -0.5245351227
 H   -0.4208362663    1.9534196144    1.1746320073
 H   -0.0908115863   -0.4804804056    0.8557089530
 H   -1.2898137708    0.0790455826   -0.3105919374
 H    2.6495552021    0.1143623964   -1.4398108987
 H    2.6915148051   -2.1899622336   -2.0767564043
 H    2.5887710788   -2.5218625631   -0.3258971396
 H    0.2404883618   -2.3870098979   -2.2073352946
 H   -0.8621308973   -2.8297101328   -0.3114823698
 H    0.9004132163    1.1223022688   -2.6852188599