20

 C   -0.2558696776    1.4431215348   -0.2180117570
 N    0.0440598615    0.0555360875    0.0964699790
 C    1.2963234215   -0.5916182880   -0.2002298656
 C    2.5308332977    0.2907299482    0.0867577192
 C    2.1024164208    0.3720218671    1.5786149577
 O    2.9723415314   -0.4469092952    2.3395103326
 C    1.9751185684    1.7168648048    2.2861787722
 O    1.5875548539    1.5147408932    3.6477646346
 C    0.8090811429   -0.4290669654    1.2213718296
 H    0.6115519089    2.1140734110   -0.2804152309
 H   -0.7638700573    1.4716385210   -1.1876112606
 H   -0.9471606525    1.8417189763    0.5316027296
 H    1.2919618457   -1.4731804529   -0.8321256377
 H    3.4717070256   -0.2556599230    0.0094061139
 H    2.6101842910    1.2269532244   -0.4740561284
 H    2.7439272359   -0.2684878115    3.2628129973
 H    2.9599118040    2.1942206605    2.3274839715
 H    1.2843930218    2.3945918227    1.7740110532
 H    0.6617569762    1.2478237848    3.6508030479
 H    0.3607212701   -1.1688247505    1.8788390721