21

 C    0.2450080223    1.7195796109    0.0416907648
 C    0.0748297047    0.2014806247   -0.1039623731
 C    0.6989247771   -0.5346495128    1.0692017337
 C   -0.0978910343   -1.1822479733    2.1736193785
 O   -1.4247029054   -1.5658086240    1.8805079044
 C   -1.4427882000   -2.7977963517    1.1897394269
 C   -1.1275920894   -2.8182764366   -0.2831598483
 C   -0.0428176695   -3.1194883604    0.7365848780
 C    0.8271720339   -2.0369045615    1.3360625702
 H    1.3034658190    2.0023981745    0.0551901328
 H   -0.2317451285    2.2506261764   -0.7879155079
 H   -0.2072982712    2.0768650605    0.9727896814
 H   -0.9928251837   -0.0272861028   -0.1556061611
 H    0.5227319296   -0.1259875307   -1.0501735324
 H    1.5780089100   -0.0170648991    1.4537922944
 H    0.0513802668   -0.9279935776    3.2190940308
 H   -2.1363288655   -3.5164343557    1.6152919185
 H   -1.5080938264   -3.6711852474   -0.8371774436
 H   -1.1052132368   -1.8981818309   -0.8462471437
 H    0.3508374603   -4.1278832755    0.7842878138
 H    1.7822382571   -2.3688180873    1.7266726821