19

 C   -0.2446941658    1.0761209672   -0.4344408962
 C    1.1066728966    1.2243201669    0.1693400998
 N    0.4086747214   -0.0636395518    0.2051506833
 C   -0.0638083252   -0.5332115433    1.4594486547
 C    0.5706739286   -1.6525356932    2.2644910714
 N   -0.7369826159   -1.8123109767    3.0155465387
 C   -0.7983177178   -0.5097587451    3.7951863045
 C   -0.9643510513    0.2320356777    2.4833443102
 C   -1.4116239816   -1.0587934820    1.8442627643
 H   -1.0755932654    1.5589861269    0.0732899787
 H   -0.3600147110    0.9930747173   -1.5113271439
 H    1.9903338846    1.2596729154   -0.4607014981
 H    1.1753461679    1.7849077473    1.0988871232
 H    0.7526533890   -2.5391666299    1.6522476933
 H    1.4415132235   -1.4501104404    2.8987804666
 H   -1.7029107151   -0.4975529784    4.4103631749
 H    0.0769408202   -0.3177499574    4.4267490414
 H   -1.3291838777    1.2342761152    2.2955941596
 H   -2.2923688450   -1.3793532957    1.3057122436