15

 O   -0.0352144365    1.3979999930    0.0080475697
 C    0.0059698156   -0.0199835063    0.0018594232
 C   -1.4001739600   -0.5286206648    0.0118274092
 C   -2.5427023229    0.2269112158    0.0234352360
 N   -3.6216620492   -0.6298893474    0.0294782761
 C   -3.1996064987   -1.9214036158    0.0217018340
 C   -1.8145989741   -1.9032553520    0.0112664848
 C   -0.9652085724   -3.0351036048    0.0012578391
 N   -0.2460680790   -3.9443532835   -0.0076339544
 H    0.8695014184    1.7222776869    0.0019885482
 H    0.5335615796   -0.4024075126   -0.8871750545
 H    0.5487121028   -0.4097689636    0.8784720401
 H   -2.6656973346    1.2958478949    0.0278266992
 H   -4.5847774157   -0.3419495985    0.0381982516
 H   -3.8858968833   -2.7516741314    0.0244153576