20

 C   -0.1310716270    1.3209689015    0.5814815183
 C   -0.0926863944   -0.1813890539    0.2761494182
 C   -1.4453659199   -0.7417345521   -0.1090163846
 C   -1.7532729948   -2.2046528967    0.0339721895
 N   -2.3957665210   -1.2211238074    0.8825122405
 C   -2.2453394729   -1.1334055918    2.2530348951
 O   -2.0278386376   -0.1184675748    2.8734940707
 O   -2.4637081992   -2.3394738775    2.8241405024
 C   -2.4617910848   -2.3324026232    4.2546753110
 H    0.8698792052    1.6947187401    0.8172257669
 H   -0.5014058086    1.8854465035   -0.2815078879
 H   -0.7871386636    1.5178738874    1.4317082119
 H    0.5965642836   -0.3774977975   -0.5556018197
 H    0.2965638419   -0.7320022573    1.1403798929
 H   -1.9300560392   -0.2150064516   -0.9308486863
 H   -2.3972240646   -2.7089535924   -0.6814462933
 H   -0.9915140336   -2.8335690977    0.4884102667
 H   -1.4998230444   -1.9865752078    4.6416835180
 H   -3.2489531882   -1.6793316607    4.6402868687
 H   -2.6441134870   -3.3647666900    4.5545660108