16

 C    0.0833106202    1.4020958754    0.0553347089
 N   -0.0776325553   -0.0361876893    0.0716908909
 C   -1.2797252323   -0.6244695663   -0.0865928031
 O   -2.3509179524   -0.0826180044   -0.2571389017
 N   -1.1969330489   -2.0531269824   -0.0350556158
 C   -2.2476294727   -2.9108924169   -0.1639262889
 C   -1.7335777904   -4.1790865034   -0.0541901960
 C   -0.3437928109   -3.9868460565    0.1423377531
 N   -0.0196947696   -2.7030404989    0.1538977034
 H    0.7490198451    1.7161230736   -0.7559063977
 H   -0.9002821067    1.8465878316   -0.1003941575
 H    0.4923232445    1.7649295246    1.0045272702
 H    0.7103925507   -0.6539094491    0.2032476890
 H   -3.2419677880   -2.5281585380   -0.3189245868
 H   -2.2746384231   -5.1095309195   -0.1070344741
 H    0.4258623995   -4.7336732306    0.2747768160