19

 N    0.1087715480    1.4921642949    0.1103190631
 C    0.0480470622    0.0552027099   -0.0272865190
 C   -1.3531264419   -0.5943894177   -0.1258667252
 O   -0.9618720658   -1.2769968607   -1.3579098905
 C    0.2609371873   -0.6311672515   -1.3772919200
 N    1.1532017571   -0.6185338970   -2.2535996286
 C    0.9713865720   -1.3662525341   -3.4972422072
 C    1.6944182885   -0.6101129244   -4.6129891154
 O    3.0483677011   -0.3860029064   -4.2822317871
 H    1.0752382160    1.7937849926    0.1817669786
 H   -0.2709204499    1.9441095129   -0.7170459798
 H    0.6605716109   -0.4003618747    0.7557562512
 H   -1.6352625418   -1.3081820978    0.6505307289
 H   -2.1655080666    0.1140284813   -0.3101751112
 H    1.4379450523   -2.3528686884   -3.3799749093
 H   -0.0865444308   -1.5205663426   -3.7472685189
 H    1.6748902453   -1.1959356264   -5.5383929734
 H    1.1649328992    0.3382004124   -4.8069343005
 H    3.0335234869   -0.0823964422   -3.3646736057