19

 C    0.0111403379    1.4691013310   -0.0983203072
 C    1.3158301217    0.7433988295    0.0636101106
 C   -0.0102979332   -0.0270088613    0.0410705968
 C    0.3725388281   -0.6772207097   -1.2885701770
 O   -0.4981492621   -0.3498320468   -2.3630316278
 C    0.1699790304    0.1292107738   -3.5010342424
 O    0.9556877336    1.2567849610   -3.2278382258
 C    2.1159341845    0.8955364318   -2.4798753141
 C    1.7599095108    0.0712245972   -1.2399796434
 H   -0.3203694122    2.0100599740    0.7820285756
 H   -0.2550963235    1.9279481481   -1.0437430511
 H    1.9713475294    0.9227718151    0.9074177243
 H   -0.5263550299   -0.5281852357    0.8498345599
 H    0.4795319946   -1.7664628322   -1.2277373657
 H    0.8003442175   -0.6627923612   -3.9492504630
 H   -0.6046666794    0.4341341823   -4.2075208635
 H    2.7929284454    0.3202804729   -3.1325459212
 H    2.6161931338    1.8307306835   -2.2117547589
 H    2.5570732125   -0.6504332133   -1.0421037761