21

 C    3.8316676681    0.6817326669   -0.3593321832
 C    3.0008609090   -0.6028168278   -0.3261695758
 C    2.3475556955   -0.8615970431    1.0390479184
 O    1.5249200161    0.2344707285    1.4469388889
 C    1.5577016248   -2.1557691204    1.0311517918
 C    2.1668659797   -3.4464268748    1.4683911759
 N    1.1025490671   -2.8272789081    2.2452915743
 C    1.4402301540   -2.2698536601    3.5488945775
 H    4.6782475700    0.6209210777    0.3336379342
 H    4.2323050316    0.8687495645   -1.3600467034
 H    3.2228610379    1.5396495727   -0.0630328694
 H    2.2089875882   -0.5559410462   -1.0880941019
 H    3.6224227684   -1.4683910620   -0.5862292045
 H    3.1335539566   -0.9070991176    1.8005177894
 H    0.7651725635    0.2639594208    0.8539741865
 H    0.8171727224   -2.1926398395    0.2279419255
 H    1.9230029540   -4.3790827526    0.9658825031
 H    3.1808482447   -3.4003343240    1.8678095354
 H    2.4895846993   -1.9532654770    3.6532233722
 H    0.8046261590   -1.4025463595    3.7448346677
 H    1.2437527502   -3.0299073384    4.3116830072