17

 C   -0.0422995697    1.4448330669    0.0073718971
 C   -0.0227974154   -0.0466783124   -0.0067283513
 N    0.2366041103   -0.8029737022   -1.0625833973
 C    0.1671244984   -2.0901560603   -0.6141939270
 O    0.3800302400   -3.1379195629   -1.4433162301
 C   -0.1434410598   -2.1542346730    0.7216513882
 C   -0.3290322972   -3.2752853538    1.6775120312
 O    0.5168649022   -3.1746289153    2.8280532902
 N   -0.2679369056   -0.8134343600    1.0854462668
 H    0.7195936415    1.8568993788    0.6794474151
 H    0.1582903467    1.8076397907   -1.0013222853
 H   -1.0135316739    1.8368863939    0.3299931785
 H    0.5741423401   -2.7586391964   -2.3088792035
 H   -1.3451890631   -3.2956887793    2.0908031051
 H   -0.1797202564   -4.2193926522    1.1364618206
 H    1.4240034501   -3.1406919205    2.5047780434
 H   -0.4258718083   -0.4908980519    2.0258604082