20

 C   -0.0801555011    1.3508955954    0.4998765834
 C   -0.0454999682   -0.0755614760   -0.0460755326
 C   -1.4165557035   -0.5562480909   -0.5076595351
 O    0.8222664381   -0.1583189259   -1.2011354596
 C    2.1330669875   -0.5424080153   -0.9696389739
 C    2.4293997206   -2.0091315666   -0.6882171202
 C    2.7464449193   -1.4201164312   -2.0350737386
 C    2.9958172248    0.4424730302   -0.3425081940
 N    3.6836846800    1.2241161231    0.1620695212
 H    0.9080014398    1.6806902720    0.8272688969
 H   -0.4362969367    2.0405589436   -0.2717350873
 H   -0.7605084425    1.4096609195    1.3556246074
 H    0.3413796731   -0.7575050370    0.7235107103
 H   -1.7865962532    0.0797128079   -1.3179707136
 H   -1.3668362998   -1.5846641213   -0.8757665582
 H   -2.1344790456   -0.5154278615    0.3168168205
 H    3.2448490018   -2.2491037699   -0.0164020772
 H    1.5586132806   -2.6494738925   -0.6107703340
 H    2.0829755079   -1.6535108132   -2.8590921892
 H    3.7822319971   -1.2484299103   -2.3010411563