19

 C   -0.0199170363    1.6584730256   -0.0583335498
 C   -0.0004378493    0.1271494568    0.0245941752
 C    0.7577797144   -0.3627723948    1.2756949183
 C    2.2306123251   -0.0293624001    1.2099179230
 O    2.8415460522    0.5948724379    2.0380307528
 C   -1.4303263742   -0.4768519457    0.0125160230
 O   -2.1890047313   -0.0809422727    1.1520357978
 C   -2.1361816871   -0.1810800067   -1.2371588586
 C   -2.7193803785    0.0931605451   -2.2523101190
 H    0.9953387688    2.0644084102   -0.0843222502
 H   -0.5439292138    1.9969975389   -0.9562129438
 H   -0.5160800969    2.0882978960    0.8184714454
 H    0.5059911750   -0.2687897722   -0.8666296489
 H    0.3292052244    0.0587605653    2.1877443929
 H    0.6802596879   -1.4585759620    1.3370853742
 H    2.7430631741   -0.4197629543    0.2972353714
 H   -1.3330755963   -1.5660146235    0.1069018388
 H   -2.5649198432    0.7865598107    0.9690062763
 H   -3.2405450149    0.3180205157   -3.1503415789