23

 C   -0.4963778038    1.5009680042    0.2706624082
 C    0.0957335621    0.1309743458   -0.0831993373
 C    0.8423309653   -0.4759740873    1.0873774352
 C    0.1528163955   -1.4133770699    2.0443801355
 O   -1.1597659263   -1.7946752121    1.7552609987
 C    1.2586751246   -1.9425660261    1.1575657709
 C    0.8928999216   -2.9410212215    0.0876991896
 O    0.2425271696   -4.0502554337    0.7122942614
 C   -0.0923160650   -5.0708404717   -0.2017630800
 H    0.2852064847    2.2066798340    0.5740078882
 H   -1.0239683759    1.9354858092   -0.5842055121
 H   -1.2074631493    1.4127411017    1.0978417803
 H   -0.7164560406   -0.5361514475   -0.3834204141
 H    0.7694089804    0.2313156310   -0.9442308227
 H    1.5565447083    0.2034019815    1.5478869539
 H    0.3653193775   -1.3104189093    3.1081323296
 H   -1.1354821648   -2.7524966665    1.6235030461
 H    2.2042025222   -2.1468623662    1.6507507673
 H    0.2252287388   -2.5075769985   -0.6688858165
 H    1.7933711374   -3.2936874939   -0.4388363452
 H   -0.5811271335   -5.8691097254    0.3617791733
 H   -0.7799491984   -4.7117128865   -0.9832823539
 H    0.8035213096   -5.4791270913   -0.6940115965