19

 C   -0.2459622002    1.5471739435    0.0895307544
 C   -0.0193261130    0.0258634550   -0.0381373266
 C   -1.3681309107   -0.7049650638   -0.0727017860
 C    0.8860143238   -0.3322951282   -1.2543485381
 C    2.2789864197   -0.5491985338   -0.6892452048
 O    2.7349103533    0.5379587346    0.1110898454
 C    2.2309412827   -0.6363731371    0.7818970269
 C    0.7916746987   -0.4567891278    1.1909462939
 O    0.3358270473   -0.7033133684    2.2788094533
 H    0.7026057192    2.0877160394    0.1001240183
 H   -0.8434740360    1.9081842337   -0.7548438765
 H   -0.7882898585    1.7753657853    1.0121159358
 H   -1.9728218690   -0.3528180099   -0.9147070727
 H   -1.2371396007   -1.7869829014   -0.1765791256
 H   -1.9181787165   -0.5234810465    0.8542601289
 H    0.5457410347   -1.2582772116   -1.7314399570
 H    0.8854053570    0.4494515348   -2.0206031555
 H    3.0473949329   -1.0607364821   -1.2634397412
 H    2.9324533350   -1.1792075955    1.4070218672