20

 C   -0.2799527065    1.5371424948   -0.3165449696
 C   -0.0678858289    0.0633122897   -0.1706921591
 C    0.2079953273   -0.8250612739   -1.1278994268
 C    0.3674985464   -2.2330804374   -0.6116664139
 C   -0.1022704132   -2.1213251329    0.8610528497
 C   -0.1047511211   -0.6042484654    1.1959510148
 N    1.0318700274   -0.1743000432    2.0127444233
 C    0.9127412581    0.3048913063    3.2798744176
 O   -0.1272667256    0.4285457039    3.8921337624
 H    0.4150356526    2.1007969737    0.3171951902
 H   -0.1445505508    1.8645990640   -1.3506958868
 H   -1.2899051330    1.8227239616    0.0035601009
 H    0.3193068139   -0.5756445999   -2.1786615620
 H   -0.2305423299   -2.9558075197   -1.1783523650
 H    1.4090541615   -2.5731201116   -0.6991576039
 H   -1.1219031579   -2.5058334101    0.9529456302
 H    0.5193452209   -2.6843059766    1.5609946732
 H   -0.9821395934   -0.3205274175    1.7827666291
 H    1.9539392829   -0.2184099837    1.6059993443
 H    1.8988707691    0.5798931779    3.7061789712