18

 C    0.1795159888    1.1447431934    0.9485389101
 C   -0.1060253661    0.0885768933   -0.1139267036
 N   -1.4139374948   -0.5206908981    0.0989738334
 C   -1.7212300248   -1.5685904157   -0.8562810341
 C   -2.9184339866   -2.3425787760   -0.4129728177
 N   -3.2997206921   -2.5902037300    0.8057080147
 C   -4.4143454322   -3.3644319528    0.5973150591
 N   -4.7120634444   -3.5914388915   -0.6512648896
 O   -3.7037866356   -2.8986556597   -1.3402237593
 H    1.1470795162    1.6223169839    0.7696516974
 H   -0.5973255319    1.9142845765    0.9456029216
 H    0.2090511825    0.6975599084    1.9487456609
 H   -0.1095534932    0.5550043368   -1.1081974944
 H    0.7101736360   -0.6593965761   -0.1279978072
 H   -1.4825453859   -0.8998098985    1.0385908046
 H   -1.9256084435   -1.1354095690   -1.8427873884
 H   -0.8928997343   -2.2918334638   -1.0045265011
 H   -5.0172147481   -3.7676171310    1.3979857535