11

 O   -0.0201976311    0.0063079709    0.1009459718
 C   -0.0146299613    1.1960847733    0.0302373603
 C    1.3216940213    2.0192789604   -0.0170529237
 C    1.3482631366    2.8136646525   -1.2502765978
 N    1.3275809574    3.4128047658   -2.2371830114
 C    1.4086361192    2.8502121833    1.1757109274
 C    1.4335613761    3.5010098737    2.1911261258
 C    1.4724813104    4.2439617059    3.3369539075
 N    1.5042052463    4.8734806221    4.3118564621
 H   -0.9256457197    1.8228677612    0.0021257117
 H    2.1362168749    1.2854982709   -0.0352855836