19

 C   -0.0717755022    1.4553219674    0.0008484989
 C    0.0749852615   -0.0440077544    0.0092583133
 C    1.4453482671   -0.6645142428   -0.1539533531
 C    0.7115713887   -0.7415240976    1.1905002053
 O    1.1645430617    0.0580426038    2.2487032034
 C    0.0874473963   -2.0326573092    1.5683133586
 C   -0.7717526188   -2.6523343718    0.7601834599
 C   -1.1589602574   -2.0427195521   -0.5592212731
 O   -1.0666315877   -0.6234695644   -0.5617957131
 H    0.7446865531    1.9230901132    0.5518083628
 H   -0.0775742703    1.8309139029   -1.0269953910
 H   -1.0164689120    1.7375996599    0.4745969124
 H    1.5717995534   -1.5862726149   -0.7106076689
 H    2.2803572653    0.0263331033   -0.2154874240
 H    2.0327526245   -0.2655208268    2.5136693864
 H    0.3496520159   -2.4356231710    2.5426905326
 H   -1.2216387918   -3.6024547556    1.0304185180
 H   -0.5589557993   -2.4668913012   -1.3832798932
 H   -2.2060368381   -2.2618393288   -0.7933864849