16

 N   -0.1053181695   -1.1315815173   -0.0222780892
 C   -0.0482124355    0.0230475675   -0.0059360949
 C    0.0236022254    1.4664528632   -0.0236578891
 O    0.6359665566    2.0905221459    1.1184873930
 C    1.3306108592    2.1544290598   -0.1093113458
 C    2.7605708279    1.6089757384   -0.2609833373
 C    3.1314025692    2.9376674444   -0.9474311992
 C    2.2628019430    3.1594036595   -2.1473416032
 C    1.6931718595    3.4563765676   -0.7803811722
 H   -0.8682089234    1.9634373418   -0.4004051351
 H    3.2177975924    1.4860236705    0.7233294226
 H    2.8974555428    0.6935298321   -0.8436379092
 H    4.0554851887    3.4782486060   -0.7920279860
 H    2.4929529572    4.0376832662   -2.7414722249
 H    1.8937600342    2.3149272978   -2.7246366053
 H    1.3282366724    4.4324250466   -0.4878961940