17

 C    0.0908615387    1.4205125209   -0.5061662453
 C   -0.0850121725    0.0840102299    0.2270372846
 O    0.1501701598    0.2333105874    1.6041362487
 C   -1.4787175536   -0.4895411378    0.0146070876
 O   -2.2545933519   -0.7019389604    0.9174434374
 O   -1.7502453509   -0.7367864452   -1.2777217886
 C   -3.0378531014   -1.3109238672   -1.5330314393
 C   -4.1690691907   -0.3159906305   -1.3020608753
 O   -5.3254457541   -0.6315739490   -1.3433029090
 H    1.0909879899    1.8074709215   -0.2980588320
 H   -0.0254967470    1.2958576330   -1.5854638177
 H   -0.6395984869    2.1513852680   -0.1465095280
 H    0.6246848777   -0.6446170204   -0.1957452803
 H   -0.6636712389   -0.0396315629    2.0518118645
 H   -3.0232950585   -1.6019398634   -2.5866381190
 H   -3.2041726322   -2.1955286181   -0.9131868288
 H   -3.8362593175    0.7306122443   -1.1248176797