15

 C   -0.0620920809    1.5441754298    0.0005361514
 C   -0.0387337663    0.0235879565    0.1037540256
 N   -1.3581012096   -0.5319519394   -0.1643118681
 C   -1.5259059341   -1.8953941160   -0.0809497942
 C   -0.6464060695   -2.9367251481   -0.1169602127
 O   -1.3588895412   -4.0790630404   -0.0552158455
 N   -2.7043198057   -3.7169217108    0.0336498616
 N   -2.7832604216   -2.4539785065    0.0167414328
 H    0.9353037193    1.9543744738    0.1786566187
 H   -0.3975404918    1.8613947427   -0.9908017711
 H   -0.7379342289    1.9785010437    0.7458710951
 H    0.6567099449   -0.3858523109   -0.6400406517
 H    0.3388459341   -0.2855714992    1.0932616837
 H   -2.1252181630   -0.0234446157    0.2542657974
 H    0.4227342042   -3.0258735594   -0.1832249930