18

 O    0.0065621007    1.3659082817   -0.5393486838
 C   -0.0275530003    0.0641246633   -0.0550079806
 C    0.0140479611   -0.1629778466    1.4989652344
 C   -1.1235463663   -1.2161556917    1.3683995038
 C   -1.3984499501   -0.6604358611   -0.0286872233
 C   -2.6345455936   -0.0468529400   -0.5510131063
 N   -2.1133642077   -1.3091810969   -1.1189801269
 C    1.0176208370   -0.7744765079   -0.7535707924
 O    1.7259871454   -0.3169056853   -1.6197676766
 H    0.7230140101    1.3879701550   -1.1954718354
 H    0.9622321116   -0.4860131046    1.9346274866
 H   -0.3157033508    0.7542117239    1.9896404233
 H   -0.7515526754   -2.2445816823    1.3439724429
 H   -1.9383796255   -1.1568609802    2.0920783884
 H   -3.5620261870   -0.1483511151    0.0065409286
 H   -2.5286961034    0.8697954510   -1.1234546930
 H   -1.6545536629   -1.1242085871   -2.0090712713
 H    1.1011336272   -1.8313518360   -0.4321332485