10

 O    0.0848463736    1.4165038163    0.1788288254
 C    0.0076269495    0.0229387891    0.0619835616
 C   -1.4160686820   -0.5133398473   -0.1458773132
 O   -1.0172927447   -1.1058068438   -1.4277899499
 C    0.2439329310   -0.5756288792   -1.3422449429
 O    1.1165257493   -0.6109512082   -2.1476303444
 H    0.9960513190    1.6812798770    0.0097899646
 H    0.5743781626   -0.5031700057    0.8424342708
 H   -1.7674846955   -1.2806401212    0.5448538965
 H   -2.1626639229    0.2686869530   -0.2922062485