18

 O   -0.0673297454    1.6909590546    0.1116309194
 C    0.2278515227    0.2997970692    0.1442849854
 C   -1.0910606967   -0.4482113041   -0.0407014978
 C   -2.0468668388   -0.2306723204    1.1531676724
 C   -3.3198656883   -1.0477504756    1.0470480441
 O   -4.4266103065   -0.5778677995    1.1090979625
 N   -1.6872632478   -0.0298890632   -1.3011568910
 C   -2.3714815131   -0.8820862973   -2.1051888985
 O   -2.5381412371   -2.0638086024   -1.8759148026
 H    0.7576229832    2.1836152900    0.1376927231
 H    0.9151338994    0.0218172147   -0.6674579041
 H    0.6861821332    0.0075235697    1.1003470222
 H   -0.8772546794   -1.5172230931   -0.1368116354
 H   -1.5277608273   -0.5526492027    2.0677974569
 H   -2.3059025619    0.8252775435    1.2582082391
 H   -3.1620948626   -2.1396896376    0.9146057360
 H   -1.6357708492    0.9516964002   -1.5272290427
 H   -2.7607390943   -0.3803335961   -3.0117673790