17

 O   -0.1168511363    1.3420507675    0.0024185142
 N    0.0211775074   -0.0596090059   -0.0038344784
 C   -1.1060018527   -0.6401249398    0.0189787297
 C   -1.3224073461   -2.1122983570    0.0259474855
 C   -2.5990270734   -2.3194912310    0.7866798028
 C   -3.0893519747   -0.9475797881    1.2502400157
 C   -2.5455948829   -0.1515781448    0.0347564628
 C   -3.0870283624   -1.0251976194   -1.1187532914
 N   -2.6079988331   -2.3711803052   -0.6892566116
 H    0.8008770082    1.6333056491   -0.0236768006
 H   -0.5244195516   -2.8358520165   -0.0636972858
 H   -2.8227141728   -3.2375087446    1.3162457174
 H   -4.1787666225   -0.8921406699    1.3379638272
 H   -2.6387052601   -0.6388016506    2.1972877318
 H   -2.7096371231    0.9201204892    0.0042785132
 H   -4.1786408156   -1.0269283142   -1.1898067935
 H   -2.6614964084   -0.7741767487   -2.0937819090