23

 C   -0.0808313819    1.5702570226    0.0223616271
 C    0.0315583457    0.0441467045    0.0157913537
 C    0.7801859612   -0.5106232049    1.2328164237
 O    0.0627415403   -0.1017089478    2.3895199545
 C    0.4886255299   -0.7623222599    3.5654743525
 C    0.1826171626   -2.2587648765    3.4938775169
 C    0.6507620683   -2.8300832293    2.1749327734
 C    0.7660735492   -4.3253683109    2.0776416677
 C    0.9424160996   -2.0088713230    1.1649934568
 H    0.9099036434    2.0387858053    0.0083486740
 H   -0.6310785342    1.9270216029   -0.8536515284
 H   -0.6007461686    1.9144804424    0.9194520405
 H   -0.9655639274   -0.4111725952   -0.0057387274
 H    0.5546756341   -0.2925229623   -0.8876030164
 H    1.7864725894   -0.0449334127    1.2552369737
 H    1.5702886565   -0.6112968631    3.7188639566
 H   -0.0382723803   -0.2842420740    4.3965283361
 H    0.6740557594   -2.7788048932    4.3274799530
 H   -0.8954797421   -2.4320169194    3.6182194954
 H   -0.1966334802   -4.8089846479    2.2897767732
 H    1.0929300241   -4.6432870780    1.0838128830
 H    1.4780985692   -4.7174816201    2.8155620746
 H    1.3129799918   -2.4059237095    0.2220122358