23

 C    0.2088009376    1.5201569405    0.2782933938
 C   -0.0048765267    0.0201744562    0.0046994487
 C    0.5347440776   -0.7777248761    1.2082222211
 C   -1.5163818707   -0.2368254129   -0.1553198561
 C    0.7211890410   -0.4644387156   -1.2797403126
 C    0.8509050588    0.4278654760   -2.5088852333
 C    2.0718501138    0.1058664060   -1.6972334897
 C    0.5449915065   -1.8677368698   -1.5714158929
 C    0.4041596632   -3.0365175498   -1.8232714382
 H    1.2619924043    1.7710178883    0.4350448007
 H   -0.1819578155    2.1517940245   -0.5248607259
 H   -0.3260395168    1.7967545700    1.1925564739
 H    0.0183841316   -0.4817690031    2.1274700423
 H    0.3902412560   -1.8519401727    1.0663724489
 H    1.6057647614   -0.5977823116    1.3500099776
 H   -1.9244842978    0.3331781659   -0.9968166807
 H   -1.7197403569   -1.2955196463   -0.3362992627
 H   -2.0548258994    0.0649496809    0.7492485364
 H    0.7344913995   -0.0467246977   -3.4757560798
 H    0.4504253309    1.4326202685   -2.4508504316
 H    2.5008662661    0.8918597516   -1.0877711327
 H    2.7943525491   -0.5899704532   -2.1064129712
 H    0.2795376063   -4.0672842295   -2.0445931660