19

 C   -0.1266323679    1.4739442835    0.0114505055
 C    0.0011423591   -0.0173566832    0.0894032829
 C   -0.0273754277   -0.9507577382   -1.1302231977
 O    0.7012226337   -2.1465762928   -0.8077442978
 C    0.0377963503   -2.0811750444    0.4927427714
 C    0.7316451614   -0.8583397175    1.1452592534
 O    2.1285226755   -0.8625778957    1.1953319284
 C   -1.0674497428   -1.1150497743   -0.0705794787
 C   -2.5611135006   -1.1137679334   -0.0458650774
 H    0.8552592135    1.9395094379   -0.1270942612
 H   -0.7602995385    1.7814552943   -0.8279341223
 H   -0.5657166502    1.8877706039    0.9262648009
 H   -0.0732739418   -0.6260462823   -2.1622270820
 H   -0.0688540398   -3.0506304820    0.9757530146
 H    0.3504146547   -0.6560303423    2.1501947065
 H    2.4068359192   -1.2651338758    0.3605318561
 H   -2.9474694669   -1.0521775434    0.9777157409
 H   -2.9551686320   -0.2535945028   -0.5974185639
 H   -2.9707347691   -2.0200195416   -0.5055307896