17

 O   -0.0743386391    1.3966157227    0.0040263840
 C   -0.0140337281    0.0043267289    0.0227930932
 C    0.3087389667   -0.8266100650    1.3088006160
 C   -0.4411667149   -1.9320029258    0.5132442467
 C   -1.3412570189   -0.7888026829   -0.0413948462
 C    0.5203760946   -2.1866195851   -0.6687677155
 C    0.8462983948   -0.7059187401   -1.0450536767
 H    0.8236172981    1.7384063522   -0.0648123970
 H    1.3571449692   -0.9989285412    1.5731795319
 H   -0.2527428071   -0.4676381693    2.1737904958
 H   -0.8689176702   -2.8007456966    1.0108481497
 H   -2.0670678085   -0.4281182843    0.6903548090
 H   -1.8148436060   -0.9228725800   -1.0184485403
 H    1.4078126621   -2.7508547363   -0.3674203686
 H    0.0384804082   -2.7299682923   -1.4866634249
 H    0.5339489374   -0.4369424603   -2.0581300353
 H    1.9100412719   -0.4641646544   -0.9411666719