15

 C   -0.0048092272    1.5903168671    0.0109473608
 C    0.0395937286    0.0881694319    0.0024192647
 C    0.0561853722   -0.6734789725   -1.1670985384
 O    0.0364758049   -0.0402075870   -2.3531526705
 N    0.0890369885   -2.0089706158   -1.1971829542
 C    0.1102530440   -2.6113322309   -0.0128093017
 N    0.1041604937   -2.0219761999    1.1782657538
 C    0.0710211252   -0.6862410595    1.1632209945
 O    0.0664543425   -0.0659811469    2.3562844524
 H    1.0030930385    2.0223363659    0.0071596518
 H   -0.5242809346    1.9650547712   -0.8734707159
 H   -0.5133804628    1.9552754711    0.9057328284
 H    0.0380700388   -0.7359689076   -3.0258019464
 H    0.1358242362   -3.6981026307   -0.0189221138
 H    0.0765710615   -0.7690546762    3.0212123444