16

 N   -0.0514491858    1.2354513132    0.3328193240
 C    0.0265749807    0.0208593459   -0.0016721991
 O    1.2171651162   -0.6085552155   -0.2351297702
 C    1.1604323153   -1.8106122545   -1.0019005628
 O    0.2798511542   -2.7401201823   -0.4638452594
 C   -1.0637841691   -2.2915372341   -0.5481448150
 C   -1.8218144918   -2.6272668620    0.7386321283
 O   -1.6993034039   -1.2647991844    1.2064147576
 C   -1.2265398410   -0.8237226327   -0.0901526349
 H    0.8820792062    1.6482509456    0.3995250368
 H    0.8924514954   -1.5582958969   -2.0410764479
 H    2.1628375252   -2.2374463704   -0.9627733748
 H   -1.5069997120   -2.5738951127   -1.5096060823
 H   -2.8695075589   -2.9167054105    0.5900060340
 H   -1.3194912685   -3.3442741989    1.3940111239
 H   -2.0016000622   -0.2604166298   -0.6206556280