20

 O   -0.0433708352    1.4077900668   -0.1091088658
 C   -0.0003974947   -0.0102985617   -0.1705893935
 C   -1.4046377919   -0.5356674451    0.0963991089
 C   -1.4863709982   -2.0636227153    0.0618825510
 C   -2.9022729783   -2.5950008439    0.3235427958
 C   -2.9689155084   -4.1013902075    0.2715437652
 C   -4.1201038178   -4.8256589124   -0.2796042698
 O   -2.9107053347   -4.6976897975   -1.0293979266
 H    0.8394511546    1.7432382196   -0.2893892350
 H    0.3435088856   -0.3566591009   -1.1590716181
 H    0.6984866908   -0.4203658344    0.5774944271
 H   -1.7356700140   -0.1591434995    1.0724332104
 H   -2.0833402876   -0.1041093502   -0.6496391358
 H   -1.1497460806   -2.4353576226   -0.9139859168
 H   -0.7980463787   -2.4869510946    0.8067267236
 H   -3.2512636198   -2.2573726568    1.3089305256
 H   -3.5961780823   -2.1840584534   -0.4195341626
 H   -2.3582225982   -4.6207053427    1.0139620049
 H   -4.3508719848   -5.8311396070    0.0703339988
 H   -4.9703919859   -4.2638508110   -0.6650454574