22

 C   -0.0207820887    1.5528754169    0.0105956080
 C   -0.0252637027    0.0111258838    0.0023620439
 C    0.6738511441   -0.5307450710   -1.2744552548
 C    0.7988049805   -2.0591079247   -1.2835341758
 C    1.5141872359   -2.5732223519   -0.0262314948
 C    0.8230332656   -2.0727166989    1.2499716736
 C    0.6980603275   -0.5443560098    1.2596956355
 C   -1.4260025079   -0.4465709269    0.0132988685
 N   -2.5258571210   -0.8041104367    0.0217428119
 H    1.0111953874    1.9165896556    0.0027144901
 H   -0.5344600271    1.9522191705   -0.8683072316
 H   -0.5175770169    1.9427036663    0.9033659566
 H    0.1359772845   -0.1805907387   -2.1617774743
 H    1.6733669288   -0.0775165114   -1.3082019569
 H   -0.2026867489   -2.5034146029   -1.3430227484
 H    1.3348279520   -2.3749374322   -2.1850791528
 H    1.5503296061   -3.6678350201   -0.0324567810
 H    2.5571241323   -2.2260375245   -0.0343389882
 H   -0.1771770027   -2.5177516314    1.3238323068
 H    1.3761734197   -2.3981462527    2.1376559845
 H    1.6980771858   -0.0913975846    1.2792000130
 H    0.1772693756   -0.2038104648    2.1608408364