25

 C    0.0559544804    1.5543391352    0.0281049729
 C    0.0115402046    0.0178034186    0.0376910792
 C    0.8013930689   -0.5080972240    1.2484497133
 C   -1.4385300122   -0.5237456175   -0.0010991645
 C   -2.2363613684   -0.0189981514   -1.2200713084
 C   -3.6231829088   -0.6727243452   -1.2942201713
 C   -3.4976235268   -2.1920954996   -1.2046287937
 O   -2.7983348166   -2.5801360657   -0.0362949513
 C   -1.4798977708   -2.0628781742    0.0049057088
 H    1.0904819183    1.9080762049    0.0863995145
 H   -0.3847149917    1.9799145868   -0.8768035930
 H   -0.4825609782    1.9669194011    0.8900565362
 H    0.5187485179   -0.3361793794   -0.8728073940
 H    0.2979122151   -0.2488421108    2.1877414406
 H    0.9314733708   -1.5932591919    1.2274650411
 H    1.8006364537   -0.0614550839    1.2770370188
 H   -1.9537890008   -0.1843343586    0.9104221492
 H   -2.3413896870    1.0692862889   -1.1925020109
 H   -1.6739067925   -0.2569039986   -2.1353630793
 H   -4.2445805833   -0.3217675744   -0.4610542195
 H   -4.1349867338   -0.3927825552   -2.2224616221
 H   -4.4780687753   -2.6747510530   -1.1492330689
 H   -2.9807319758   -2.5797882451   -2.1011247496
 H   -0.8963131762   -2.4464757466   -0.8529864071
 H   -1.0384893414   -2.4697661204    0.9170208990