21

 C   -0.0024923379    1.5621325268   -0.0875671158
 C    0.0152566563    0.0332799044   -0.0052563654
 C   -1.3777072956   -0.5813948426    0.0432852609
 O   -2.0797208604   -0.2532358673   -1.1555676185
 C   -3.1171927849   -1.2148705059   -1.3494224767
 C   -2.5806873918   -2.5099603710   -0.7700950528
 C   -1.1542639911   -2.8641959201   -1.1450896065
 C   -1.4459210385   -2.1056754891    0.1247644577
 O   -1.2772754815   -2.6979716191    1.3740554716
 H    1.0131429112    1.9676500454   -0.1235460299
 H   -0.5361644733    1.8912208083   -0.9827710378
 H   -0.5064022707    1.9981199577    0.7821797949
 H    0.5540664314   -0.3847803418   -0.8636521406
 H    0.5535148368   -0.2863091013    0.8972455863
 H   -1.9171798458   -0.1915006596    0.9256751115
 H   -4.0379009996   -0.9166711035   -0.8226241028
 H   -3.3291881448   -1.2493593059   -2.4231769430
 H   -3.2639816063   -3.2980549437   -0.4784843465
 H   -0.8756814418   -3.9050286047   -1.0226688481
 H   -0.6875677386   -2.3504526377   -1.9797779843
 H   -0.3321211632   -2.7890202393    1.5357944758