18

 C   -0.0388360117    1.4969342761    0.0841702127
 C   -0.0102418808   -0.0062408173    0.0733811976
 C    0.7961675347   -0.7779486403   -0.9890061749
 C    1.7089913349   -1.4161291729   -0.0127278563
 C    0.7739512204   -0.9180427597    1.1187679433
 C   -0.2693930291   -1.9770085598    0.6538928184
 C   -1.2789490865   -0.8700837748    0.2868048151
 O   -1.9906924395   -0.3700197176    1.4011620738
 N    0.5795448616   -2.2171636153   -0.5812786399
 H    0.9742446504    1.9118770313    0.1242647501
 H   -0.5228966864    1.8873144624   -0.8193921770
 H   -0.5981493271    1.8621083896    0.9500438718
 H    0.9187936883   -0.5687137211   -2.0450041521
 H    2.7446460342   -1.7267638544   -0.0765913187
 H    1.0078132307   -0.6233084309    2.1368684262
 H   -0.5450249474   -2.8899693819    1.1819830445
 H   -1.9316557373   -1.0438355612   -0.5807836001
 H   -2.6330634693   -1.0337593021    1.6713525555