16

 C    0.7521137581    1.2876733357   -0.7875483892
 C    0.1169675859    0.0622678129   -0.2375597237
 N   -0.9051757227   -0.5913625498   -0.6940458512
 C   -1.0772250406   -1.6500207228    0.1943767237
 C   -2.1813228417   -2.6476019268   -0.0017112732
 C   -2.2148860148   -3.6899886053    1.0183177369
 C   -2.2375336767   -4.5457704225    1.8612163037
 C   -0.1287687151   -1.5708857479    1.1545653185
 O    0.6483178823   -0.4735214523    0.8906632226
 H    1.8018229291    1.1070590832   -1.0410040516
 H    0.2154364567    1.5919845595   -1.6862371001
 H    0.7251577011    2.1054109733   -0.0599962075
 H   -3.1425746580   -2.1168676769   -0.0229995879
 H   -2.0787401441   -3.1029077259   -0.9958309751
 H   -2.2662912548   -5.3067684993    2.6011188293
 H    0.1224409752   -2.1532654451    2.0225904147