23

 C   -0.1683060020    1.5985245661    0.0240381271
 C   -0.0725292898    0.0667221615   -0.0080576020
 C   -1.4716932828   -0.5634827164   -0.0114490010
 C    0.7458155139   -0.4412675122   -1.2095699638
 C    2.2360725506   -0.0808090059   -1.1795492084
 O    2.8698025730   -0.5263653974    0.0184226539
 C    2.9755177951   -0.6171750842   -2.4211909134
 C    4.4245035366   -0.1796733704   -2.4724341516
 O    4.9711649015    0.2423806578   -3.4600698674
 H    0.8142481182    2.0716898966    0.1086859302
 H   -0.6497398336    1.9813026530   -0.8843655184
 H   -0.7649823786    1.9315429493    0.8793596776
 H    0.4488435974   -0.2572985285    0.9013512156
 H   -2.0316964906   -0.2754984023   -0.9094440426
 H   -1.4202115915   -1.6574655688    0.0102061421
 H   -2.0523707247   -0.2384158175    0.8579511796
 H    0.6645741303   -1.5380070111   -1.2643303806
 H    0.3077416587   -0.0605710735   -2.1421937314
 H    2.3473689104    1.0093952592   -1.1520313339
 H    2.7136455571   -1.4747472352    0.0979890474
 H    2.9572970916   -1.7178451339   -2.3851784319
 H    2.4848260527   -0.3094076121   -3.3493624030
 H    4.9659912762   -0.2751217040   -1.5071901542