19

 C    0.1794818103    1.6039515679   -0.1853509206
 C    0.1360577591    0.0980733621   -0.0557541458
 C    1.4222821565   -0.7212633774    0.0218474042
 C    0.5301996149   -0.5872260398    1.2108945248
 C    0.8033927706   -0.0192719431    2.5992269112
 C   -0.0516941403   -1.2264150044    3.0802750930
 O   -0.2094495586   -1.7021191949    1.7284755939
 C    0.6920531039   -2.2177335976    3.9501462813
 O    0.5990531606   -2.2628984330    5.1487596294
 H    0.9976810661    2.0303191041    0.4051027983
 H    0.3356891421    1.9058569740   -1.2265489928
 H   -0.7538052448    2.0626621560    0.1595005046
 H   -0.6782604308   -0.3911553167   -0.5848944635
 H    1.4411033365   -1.6838681387   -0.4779869036
 H    2.3711234068   -0.1920091108    0.0291715848
 H    1.8485594642   -0.0372501125    2.9168676782
 H    0.3747879889    0.9599676945    2.8166302478
 H   -1.0053318437   -0.9631695892    3.5496450609
 H    1.3624894176   -2.8959042205    3.3741695537