21

 C    0.6554776993    1.6295981206   -0.1257249423
 C   -0.0613629561    0.2936700876    0.1434663098
 C    0.0622720749   -0.7145647748   -1.0271275893
 C    1.2110652691   -1.6897347504   -0.6207318494
 C    1.2445294028   -1.5273460506    0.8905151815
 C    0.5551590340   -0.4661021460    1.3093553357
 C    0.4007974266    0.0012540601    2.7232082837
 C    1.0053626813   -3.0611588969   -1.0752349661
 C    0.8306476379   -4.1912789069   -1.4472875746
 H    1.7139817041    1.4682826064   -0.3574108476
 H    0.1985008745    2.1513907863   -0.9728613631
 H    0.6022877057    2.2959382478    0.7413217089
 H   -1.1173355370    0.5173090025    0.3458395728
 H   -0.8613900306   -1.2910450822   -1.1223637958
 H    0.2512427796   -0.2322857701   -1.9899534499
 H    2.1662143133   -1.3415002495   -1.0438120422
 H    1.8029490412   -2.2073522208    1.5240009628
 H    0.9198968753   -0.6575688119    3.4243434115
 H    0.7960001819    1.0157896803    2.8571790239
 H   -0.6578212338    0.0397696411    3.0105831250
 H    0.6783918860   -5.1892215728   -1.7757272353