19

 O    0.0453463943    1.4392171903    0.0305480798
 C   -0.0221476987    0.0262839690   -0.0089640796
 C   -1.4744753418   -0.4755984711   -0.0195264211
 C   -2.6162708503    0.4988292201   -0.1304886234
 C   -2.2176621867   -0.3233336988   -1.3298115676
 C   -1.4137377308    0.2826502255   -2.4840173200
 C   -0.0174745007   -0.3291190549   -2.5442563672
 O    1.1085345824    0.5112983358   -2.1982727216
 C    0.6917118793   -0.5016603278   -1.2712707433
 H    0.5585271315    1.7025212821   -0.7480264764
 H    0.4830481810   -0.3762517477    0.8784676429
 H   -1.6379438159   -1.3844440004    0.5510350929
 H   -3.5460855188    0.2554463441    0.3721492418
 H   -2.3531968968    1.5499555403   -0.1289710510
 H   -2.8846024922   -1.1326994657   -1.6101067717
 H   -1.9327877932    0.1256684524   -3.4332232722
 H   -1.3098643309    1.3632577002   -2.3530502925
 H    0.2025549133   -1.0050955930   -3.3683183670
 H    1.4020407153   -1.3149466004   -1.1392139128