12

 O   -0.5785735870    1.3789985831   -0.0627364571
 C   -0.1418192149    0.0359571733    0.0204085722
 C   -1.3152512459   -0.9365201713   -0.0178834662
 O   -2.0064265953   -0.7977948982   -1.2644648829
 C   -3.1647201083   -0.1056517078   -1.2688121261
 O   -3.7463355900    0.1646879564   -2.2756644297
 H   -0.7871506716    1.5647815275   -0.9838389156
 H    0.5687738073   -0.2123983435   -0.7799838460
 H    0.3797917241   -0.0749103132    0.9775473955
 H   -0.9735470887   -1.9737876029    0.0479681518
 H   -1.9985884522   -0.7330462698    0.8156536682
 H   -3.5068430975    0.1645681264   -0.2521030342