16

 C    0.5964018258    1.3862614926    0.0345829697
 O    0.5560366359   -0.0479978705    0.0110655550
 C    0.1225269784   -0.5930722324   -1.1322190123
 O   -0.2649686747    0.0360098263   -2.0847751888
 C    0.2097283352   -2.1180369057   -1.0678275380
 C   -0.6515586163   -2.8083358161   -2.1503100609
 O    0.3087670941   -3.5673395242   -2.9293654647
 C    1.5106199124   -3.2837370769   -2.3918448785
 N    1.6016397250   -2.5244816757   -1.3787122364
 H    1.2659850534    1.7621338226   -0.7427247030
 H   -0.4014516876    1.8013168282   -0.1272041560
 H    0.9684085012    1.6551597217    1.0228230243
 H   -0.0329102144   -2.4328984472   -0.0489045697
 H   -1.3882042592   -3.5057623505   -1.7473948962
 H   -1.1330504281   -2.0820370193   -2.8079088100
 H    2.3494482190   -3.7599725129   -2.8873426046