15

 C    0.2115585550    1.3677429001    0.0071761569
 C    0.0892120655   -0.0794664018    0.0005345375
 C   -0.0198717801   -1.2784913785   -0.0049238689
 C   -0.1464128716   -2.7025994868   -0.0115843172
 N   -1.2780489040   -3.2770442415   -0.0036788161
 O    1.1037329736   -3.2774926093   -0.0264864679
 C    1.1501937110   -4.6930625629   -0.0345319522
 C    2.5539903645   -5.1050047704   -0.0501878611
 N    3.6481055827   -5.4718214806   -0.0626418501
 H    1.2620156532    1.6759224062   -0.0009457095
 H   -0.2771005140    1.8041806731   -0.8704985879
 H   -0.2606361985    1.7946651116    0.8984371929
 H   -1.2260847714   -4.2936052223   -0.0095456560
 H    0.6638938658   -5.1125461369    0.8569517598
 H    0.6468681684   -5.1029914400   -0.9209960201