17

 O    0.0641622652    0.2025066992    0.9786437807
 C   -0.0338575794    1.2497761890    0.3638104419
 C    1.1291707922    1.8559762539   -0.2706281825
 C    2.0968540811    2.3550691886   -0.7846954252
 C   -1.3119522623    1.9662742315    0.1903916473
 C   -2.4727058028    1.6694504191    1.1156850584
 C   -2.6346443189    1.3020977733   -0.3132597774
 C   -2.9234307688    2.5334303066   -1.1778495029
 C   -1.6055787521    3.2037021127   -0.6672280972
 H    2.9617460620    2.7822678295   -1.2311384572
 H   -2.2858347324    0.8457040065    1.7950824814
 H   -3.0229994511    2.5096467890    1.5335783617
 H   -2.7346770238    0.2688523956   -0.6222847340
 H   -2.8929686565    2.3229881644   -2.2482975279
 H   -3.8588582891    3.0539347263   -0.9496378693
 H   -1.7124136699    4.1429963945   -0.1157587793
 H   -0.8746988433    3.3479862002   -1.4644147987