20

 C   -0.2238971272    1.3262610916    0.0920918465
 O    0.3324469163    0.0509086728   -0.1287003627
 C    0.7766497947   -0.5742223897    1.0498880487
 C   -0.2827413423   -1.2053724775    2.0233246472
 C    0.3991060113   -2.5599043900    1.8120584067
 C    0.3585037648   -2.9089097486    0.3506721621
 C    1.4108591539   -1.9449646487    0.8303360453
 C    2.8844922630   -2.1762158493    0.6538883702
 H    0.5029581431    2.0128259869    0.5553734389
 H   -0.5170415970    1.7284436649   -0.8808471626
 H   -1.1134248248    1.2837342678    0.7388833588
 H    1.4546650621    0.0982535755    1.5989768238
 H   -0.2085770750   -0.8143523218    3.0405821391
 H   -1.3249149774   -1.1460276430    1.6919159449
 H    0.5773408934   -3.3031908164    2.5798382144
 H    0.7363888977   -3.8935172012    0.0926226148
 H   -0.4625951871   -2.5658877662   -0.2730716398
 H    3.2229613064   -1.8315080193   -0.3304473662
 H    3.4688047321   -1.6417701989    1.4121536519
 H    3.1302307921   -3.2403826290    0.7327265780