16

 O    0.2361165174    1.3783327195   -0.0835504826
 C    0.1431689798    0.0072202367    0.0942404973
 C    0.2253620682   -0.5251567129    1.5469990918
 N   -1.2419405562   -0.7059513418    1.5609340010
 C   -1.3493667021   -0.6171047846    0.0820116477
 C   -2.4120551077    0.3764344461   -0.3886193018
 O   -2.5389438884    1.4619473789    0.1190508922
 C   -1.4454277370   -1.8831554458   -0.6220683650
 C   -1.5405386538   -2.9350066061   -1.1989559051
 H   -0.4967155513    1.7974188630    0.3928465848
 H    0.8085639871   -0.4644470706   -0.6286073531
 H    0.8097382313   -1.4510130069    1.6237888039
 H    0.5921176270    0.1960553270    2.2843714765
 H   -1.5847805782   -1.5781906202    1.9474593575
 H   -3.0310667742    0.0596995787   -1.2527755683
 H   -1.6195779518   -3.8644521309   -1.7074169168