12

 O    0.0668608785    1.2653082810    0.1287309430
 C    0.0784072372   -0.0638860970    0.0191335638
 N    0.1486781024   -0.7522982246   -1.1037292333
 C    0.1296005060   -2.0576216086   -0.7074696355
 O    0.1862027907   -3.0639837694   -1.5844917392
 C    0.0472553261   -2.1757939946    0.6665431455
 N    0.0152008369   -0.8360502018    1.1144370030
 C   -0.0002720302   -3.2816006735    1.5236513042
 N   -0.0408784232   -4.1840859305    2.2530792810
 H    0.1194244200    1.6244740256   -0.7664537780
 H    0.2377830610   -2.6728079358   -2.4656953243
 H   -0.0436486454   -0.5245480907    2.0692945197