14

 N   -0.0614481564    1.2172186840   -0.0258350834
 C    0.0882889722   -0.1138878691   -0.1971070665
 O    1.1424176518   -0.7055004459   -0.3235737029
 C   -1.2863515128   -0.8265727064   -0.1902795863
 O   -2.3118842428   -0.2204705596    0.0561748389
 N   -1.2330010656   -2.1401540633   -0.5584096364
 C   -0.4645596718   -3.2196499546    0.0097227667
 C   -1.9704263198   -3.2348615238    0.0208832739
 H    0.7478020122    1.8121395178    0.0199988167
 H   -0.9911133783    1.5831058211    0.1041862545
 H    0.0781778175   -3.8369851169   -0.6994668274
 H    0.0549300241   -3.0281047672    0.9431533566
 H   -2.4842636517   -3.0395327742    0.9584475535
 H   -2.5064255786   -3.8694289119   -0.6786833279