18

 C   -0.0685265273    1.4501203873    0.0318728994
 C    0.0244775621   -0.0359739269    0.0029335902
 C    0.0247122779   -0.9034794824   -1.0256655315
 C    0.0341706027   -2.2573606243   -0.3575571035
 N    1.0226479262   -2.0015009936    0.7574155517
 C    0.0355728296   -0.9469008663    1.2273627632
 C    0.1369352169   -0.4038198078    2.6257831274
 C   -1.0662846106   -1.9922216389    0.7487269375
 O   -2.0589262993   -2.4861638444    1.1744858331
 H    0.7887796735    1.8984204769    0.5485900549
 H   -0.1074264477    1.8602691943   -0.9808282731
 H   -0.9673668170    1.7851619743    0.5649637440
 H   -0.0578936831   -0.7121375658   -2.0856909579
 H    0.1235476714   -3.1714599032   -0.9392339796
 H    0.9886135554   -2.7898257794    1.4127076384
 H    1.1056395239    0.0790533432    2.7888580080
 H   -0.6489359748    0.3348509977    2.8093010830
 H    0.0198401301   -1.2008256909    3.3663514449