23

 C    0.2190194969    1.5780903709   -0.1018467227
 C    0.2235200472    0.0480893296   -0.0678912623
 C    0.4421676945   -0.5153483926    1.3446713009
 C    0.4955376706   -2.0219798688    1.3829806145
 C   -0.7374219791   -2.8694996411    1.0922338812
 C   -0.3121019952   -4.3106436811    1.4614286999
 C    0.7731804444   -4.1531880117    2.5545594640
 C    1.3919731678   -2.8046682623    2.2477558350
 O    1.7001251810   -2.6206501083    0.8561070755
 H    1.1673868981    1.9851556937    0.2663197718
 H    0.0685770295    1.9534558992   -1.1188093830
 H   -0.5808473220    1.9874890767    0.5257312604
 H   -0.7243954174   -0.3288026419   -0.4716136511
 H    1.0131886704   -0.3383252164   -0.7228592995
 H    1.3817979336   -0.1206971632    1.7489288363
 H   -0.3610208508   -0.1687454277    2.0096317806
 H   -1.5599057282   -2.5195979793    1.7294110750
 H   -1.0734972619   -2.7895366835    0.0539124616
 H   -1.1538281764   -4.9243476470    1.7910712647
 H    0.1247404386   -4.7946676084    0.5856943186
 H    0.3338393818   -4.1206049700    3.5597876594
 H    1.5030314925   -4.9687698570    2.5428735308
 H    2.0866346941   -2.3363358998    2.9421750383