22

 C   -0.1919494360    1.5995692229    0.0089051900
 C   -0.0050952483    0.0740776114   -0.0223504501
 C   -1.3772903126   -0.6116563499    0.1009939820
 C    0.7517771128   -0.4340344652   -1.2924393485
 C    2.1104535910   -0.8926719069   -0.7710086795
 C    2.9573963516    0.2672918351   -0.1911512955
 C    2.3627455518   -0.1125207708    1.1557626773
 C    0.9109917185   -0.4261539557    1.0981812213
 N    1.8692925178   -1.4538902814    0.6386682382
 H    0.7571770804    2.1309134998   -0.0987928806
 H   -0.8563978339    1.9276860318   -0.7982405455
 H   -0.6430993926    1.9163074687    0.9559748114
 H   -2.0076314811   -0.3761253556   -0.7635345057
 H   -1.2679172141   -1.6994696248    0.1541277032
 H   -1.9082938090   -0.2799567243    1.0003429498
 H    0.2152159779   -1.2764548984   -1.7411665301
 H    0.8507867478    0.3399701585   -2.0605345229
 H    2.6317529556   -1.5991357336   -1.4167624831
 H    4.0253108895    0.0380460344   -0.2211240601
 H    2.8018398536    1.2781708633   -0.5810444316
 H    2.8786892436   -0.0355528859    2.1090077579
 H    0.4461448058   -0.6626276333    2.0526173520