17

 C   -0.0805477178    1.5889275729    0.0425999629
 C    0.0076751125    0.0597180660    0.0271979496
 N    0.7726470634   -0.4649400211   -1.0948238278
 C    1.8385652836   -1.2744640180   -0.8030225377
 O    2.5696877125   -1.8032547486   -1.6091899031
 C    1.9182534646   -1.3759788880    0.7221705388
 C    0.7826873763   -0.5206966600    1.2059553032
 N    0.4338112143   -0.2492140005    2.3966022308
 O    1.2725834610   -0.8780544283    3.3261245855
 H    0.9187998070    2.0332498777    0.0507679862
 H   -0.6171870088    1.9549845587   -0.8387687434
 H   -0.6172919482    1.9167501630    0.9360992784
 H   -1.0119144952   -0.3522154165    0.0214644044
 H    0.5301723540   -0.2780798540   -2.0550703360
 H    1.8221786116   -2.4181113682    1.0447104270
 H    2.8901269210   -1.0290158233    1.0871914299
 H    0.9026076081   -0.5900348616    4.1677932011