18

 C   -0.1991081939    1.5607354413    0.0976570056
 C    0.2176767880    0.0934375381    0.0618061103
 C    0.8150906213   -0.3261701314   -1.2611577430
 O    0.9539397775    0.4103882067   -2.2107598608
 C    1.2655536732   -1.8016064338   -1.3684255996
 O    1.0905083836   -2.5662312490   -0.4402112217
 C    1.9080146734   -2.2156321263   -2.6422068373
 C    3.1963099083   -2.9811477485   -2.5064708519
 N    1.9800863697   -3.6609781825   -2.9152906870
 H    0.6561538899    2.2164114421   -0.0861554954
 H   -0.9444010094    1.7758840950   -0.6725883866
 H   -0.6256667137    1.8142611456    1.0715885181
 H    0.9487444613   -0.1468757262    0.8450048982
 H   -0.6237620420   -0.5802592127    0.2699865185
 H    1.7656601287   -1.5635765407   -3.4940126946
 H    3.9490958953   -2.8535382445   -3.2786266384
 H    3.5719489111   -3.1396687424   -1.4992622383
 H    1.5859879579   -4.1374247106   -2.1027004961