17

 C   -0.0415034676    1.3651994323   -0.1273530271
 N   -0.0330235732   -0.0427328514    0.1845467214
 C   -1.1830540057   -0.9646398185    0.0415675127
 C   -0.7461635657   -2.1079591362    0.9950799375
 C    0.3815187971   -2.2490032523   -0.0799164488
 C   -0.7287880462   -1.8845820015   -1.1323947957
 C    1.0644781632   -0.8707678386    0.0318462618
 O    2.2305621603   -0.5599120056   -0.0389847117
 H    0.9939724017    1.7118638246   -0.0968646816
 H   -0.4483833118    1.5700571725   -1.1281889492
 H   -0.6257083646    1.9316729706    0.6059890836
 H   -2.1499963798   -0.4667824648    0.0929226362
 H   -0.4600424015   -1.8274193506    2.0107814211
 H   -1.4320950602   -2.9579470443    0.9965178928
 H    1.0386038447   -3.1104282354   -0.1649553415
 H   -1.4101536650   -2.7139934566   -1.3359539752
 H   -0.4174480657   -1.4004920041   -2.0616446662