16

 C    0.0718447314    1.5883251441   -0.0766741087
 C   -0.0505083947    0.0596915280    0.0504840423
 C    0.6103391588   -0.4763707268    1.2857496547
 C   -0.0133669953   -1.0526636978    2.3377183531
 C    0.7599322568   -1.5083718321    3.4712798931
 O    0.3296919364   -2.0430179029    4.4807193001
 C    2.2090966330   -1.2507993837    3.2868339226
 N    2.7787835164   -0.7015251766    2.2759684223
 O    1.9503129209   -0.3003084015    1.2313737953
 H    1.1204395669    1.8936527371   -0.1060545672
 H   -0.4114871340    1.9292449996   -0.9959473214
 H   -0.4077630018    2.0908789977    0.7683761641
 H   -1.1015465059   -0.2410615883    0.0704193549
 H    0.4104539188   -0.4187446443   -0.8216970153
 H   -1.0893032376   -1.1744844401    2.3364512290
 H    2.8885719898   -1.5509797322    4.0806476111