21

 O   -0.2664792074    1.4936119032    0.5260410513
 C   -0.0991839235    0.1333669342    0.2455041988
 C   -0.7531979273   -0.8986909459    1.1311472044
 C   -1.3024439714   -0.6107380666   -0.2561201504
 C   -2.6373017330    0.0848855542   -0.4164514429
 C   -3.8272408772   -0.8794247543   -0.2977154806
 C   -5.1531770109   -0.1761137381   -0.4480022791
 C   -6.3510826143   -0.5787056494    0.2981456719
 O   -5.6076522049    0.5793976852    0.6810115900
 H    0.2299468443    1.6950314816    1.3257455047
 H    0.8648882156   -0.1207130447   -0.1959565826
 H   -0.2387943819   -1.8346189097    1.3209858557
 H   -1.3297157606   -0.5171717796    1.9684929601
 H   -1.0954131222   -1.3671648699   -1.0099713417
 H   -2.7319257930    0.8744091836    0.3343595664
 H   -2.6709381263    0.5863084793   -1.3932559795
 H   -3.7528136134   -1.6624919237   -1.0651060699
 H   -3.8003255327   -1.3827521058    0.6756892814
 H   -5.3050930591    0.3360301630   -1.4010359397
 H   -7.3413244694   -0.3860260409   -0.1131694884
 H   -6.2932977914   -1.4202749056    0.9879775801