16

 C   -0.1346150809    1.5525930461    0.0252916142
 C    0.1071750415    0.0513691659    0.0603305265
 O    1.2178905664   -0.4249866764    0.1909249062
 N   -1.0287180064   -0.7132928109   -0.0524465618
 C   -1.0773659082   -2.1122239004   -0.0232799381
 C   -2.2218167022   -2.8807897710   -0.1325602847
 N   -1.8073413232   -4.1715941521   -0.0543937034
 N   -0.4809112007   -4.2958895719    0.0969088054
 C   -0.0210597345   -3.0472678221    0.1177112855
 H    0.5736264052    2.0023598276   -0.6739519040
 H   -1.1510110661    1.8334254152   -0.2634640504
 H    0.0755140662    1.9674089158    1.0157449814
 H   -1.9068467641   -0.2327056860   -0.1574548154
 H   -3.2595897125   -2.6148063147   -0.2551412935
 H   -2.3751960041   -4.9998816811   -0.0975530772
 H    1.0277331137   -2.8379365937    0.2294625293