21

 C   -0.0030182289    1.3412447537   -0.3995554997
 O    0.0124739286    0.0022608330    0.0608109549
 C   -1.2561113663   -0.5608272488    0.1890542900
 C   -2.1269840089   -0.1205117124    1.3619528131
 C   -3.0866192819   -1.3006987926    1.6378742586
 C   -2.3773644389   -2.5617434337    1.0806175476
 C   -1.4128421845   -2.0569029670    0.0173051887
 C   -1.9198761966   -1.0946220943   -1.0479163979
 O   -3.2800377830   -0.8541289662   -1.2789730125
 H    1.0383339759    1.6471166736   -0.5254741857
 H   -0.5236022310    1.4310007408   -1.3637247664
 H   -0.4855646202    2.0182465835    0.3192129839
 H   -1.4537161508    0.0539734586    2.2095048616
 H   -2.6717322946    0.8097960107    1.1744980816
 H   -3.3206901020   -1.3983248276    2.7015140436
 H   -4.0240032361   -1.1388723283    1.1048177398
 H   -1.7988727756   -3.0640539238    1.8644383444
 H   -3.0948192414   -3.2969830768    0.6987780054
 H   -0.5546848616   -2.6646490571   -0.2495419885
 H   -1.2933287487   -1.0483546286   -1.9394809268
 H   -3.6541541337   -1.6393826665   -1.6925396056