17

 C   -0.5957100209    1.5368118857    0.0596015617
 C   -0.1352550111    0.0838152716    0.0118544738
 C   -1.2425204812   -0.8882598252   -0.3737150805
 O    1.0445608785   -0.0742628193   -0.8401632853
 C    1.9260153017   -0.4678357365    0.2385944267
 C    3.0424655078    0.4253418859    0.4696438767
 C    3.9570147207    1.1744912314    0.6867913137
 C    0.7182623599   -0.3481492406    1.2148255802
 O    0.5390731325   -0.5275376355    2.3763105355
 H    0.2310871266    2.2000490145    0.3255398353
 H   -0.9749324736    1.8353294919   -0.9226424712
 H   -1.3958602117    1.6581981364    0.7958105292
 H   -1.6308173368   -0.6317979878   -1.3643567818
 H   -0.8725163348   -1.9164033865   -0.4052572077
 H   -2.0636361866   -0.8344439523    0.3471716480
 H    2.2713428138   -1.5040580534    0.1180537263
 H    4.7706942050    1.8317155696    0.8722525094