25

 C   -0.1398692859    1.5723522496    0.1576085266
 C   -0.1443819523    0.0489512999    0.3120089576
 C   -1.4081126371   -0.6045191578   -0.2682954958
 C   -1.4641494961   -2.1170713025   -0.0963919940
 C   -0.4400909962   -2.8755681629   -0.9306096275
 C   -1.7611102759   -2.7781759045    1.2296426441
 C   -2.7903832752   -1.9986528827    2.0604638155
 C   -3.8115308486   -2.1165763450    0.8827535062
 C   -2.7614842100   -2.8783237412    0.0651057219
 H    0.7668366978    2.0156723654    0.5814500278
 H   -0.1903820434    1.8643636283   -0.8975235848
 H   -0.9996893264    2.0251949616    0.6644336189
 H    0.7475711778   -0.3650248063   -0.1733629681
 H   -0.0613297423   -0.2152069661    1.3740812535
 H   -2.2823395295   -0.1337375498    0.1932171305
 H   -1.4771950568   -0.3692077546   -1.3400941939
 H    0.5857534805   -2.6050494799   -0.6594524978
 H   -0.5408333148   -3.9568692498   -0.7930368319
 H   -0.5696476099   -2.6618024345   -1.9980888048
 H   -1.1057846284   -3.5455872959    1.6273107294
 H   -3.1198355306   -2.5486702468    2.9446866448
 H   -2.5025130708   -0.9899167546    2.3738517223
 H   -4.6636873745   -2.7466607264    1.1476254722
 H   -4.1970770315   -1.1866162260    0.4522292127
 H   -2.9786051301   -3.7310583976   -0.5692617852