16

 O    0.1305937953    1.4095108262    0.2114069792
 C    0.0774900984    0.0270654696   -0.0221912824
 C   -1.3834164245   -0.5157141202   -0.0158542379
 C   -2.1611853474   -0.0990670456   -1.2802878897
 O   -2.1530084047    1.3231889452   -1.3466039188
 C   -1.4003555039   -1.9626239161    0.1110979960
 C   -1.3814163204   -3.1681195564    0.1990586501
 C   -1.3702296191   -4.5294137735    0.3005343693
 N   -1.3620931668   -5.6882203213    0.3837700142
 H   -0.4707134477    1.8207490766   -0.4238901451
 H    0.5493660606   -0.2604414695   -0.9765824855
 H    0.6413303211   -0.4563313994    0.7805938965
 H   -1.8829929396   -0.0730593956    0.8563566538
 H   -1.6737226481   -0.5411966207   -2.1609319917
 H   -3.1879838703   -0.4848266325   -1.2289523002
 H   -2.5346908028    1.5969270932   -2.1858037777