15

 O    0.0778788494    1.3685177261    0.1548834756
 C    0.0217324871   -0.0383244958    0.0209436517
 C   -1.4537263797   -0.4930697234   -0.1386297903
 N   -1.4132189704   -1.4378810489   -1.2706095896
 C   -0.2236713719   -1.3271323362   -1.9204160601
 C    0.6725821429   -0.5599889651   -1.2498582224
 C    2.0021490700   -0.1990911785   -1.6345352097
 O    2.6835926717    0.6121116087   -1.0161044922
 H    1.0124660427    1.5932773883    0.0341066728
 H    0.4776525140   -0.5158701785    0.9027015399
 H   -1.8566048767   -0.9780401525    0.7531389976
 H   -2.0651001583    0.3853557252   -0.3757925691
 H   -2.2548430559   -1.6823710063   -1.7669502992
 H   -0.0785620622   -1.8434793664   -2.8628429142
 H    2.3974529473   -0.6815989066   -2.5551840507