20

 C   -0.0463377297    1.4935773192    0.0168435879
 C    0.0057390647   -0.0226581277    0.0303631217
 C    0.7962565239   -0.6817789093   -1.1303559713
 O    1.0628000382   -2.0251160569   -0.6836991584
 C    0.4862413565   -2.1237706311    0.6373587123
 C    0.7213637000   -0.7231248861    1.2125521273
 C   -1.0272396922   -2.1588866917    0.4113301166
 N   -1.8137160080   -1.2777353275    1.3080189005
 C   -1.3404444521   -0.7678044666    0.0020711259
 H    0.9597611698    1.9256261122    0.0516265254
 H   -0.5377861944    1.8688073176   -0.8885500402
 H   -0.6061410203    1.8704833154    0.8785936330
 H    0.2255895914   -0.7091000857   -2.0676832248
 H    1.7465364530   -0.1636728660   -1.3180846772
 H    0.9401582048   -2.9756373498    1.1431528643
 H    1.7856079515   -0.4813633315    1.2612683075
 H    0.2417419258   -0.5481294135    2.1733702000
 H   -1.4887630923   -3.0252383096   -0.0481854990
 H   -2.7960304150   -1.5264027636    1.2173214719
 H   -2.0612898255   -0.5384278680   -0.7768087535