17

 O   -0.8503467479    1.0812277680   -0.2430524556
 C    0.3020195940    0.8162444907   -0.0146917236
 C    1.4110332675    1.8283364835   -0.0456742079
 C    1.6696110652    2.5495185543    1.3361339006
 C    3.1524108799    2.9780766726    1.1524410906
 C    3.4446769376    2.4268532690   -0.2825790172
 O    2.6833402766    1.2101796140   -0.2672953640
 C    2.6519431354    3.2884390376   -1.2599600261
 C    1.3804786181    2.9227996157   -1.1036254871
 H    0.6335256861   -0.2068949792    0.2686743539
 H    0.9773524549    3.3765913274    1.4982525140
 H    1.5598664162    1.8373896317    2.1580876693
 H    3.3040292306    4.0567674342    1.2270108074
 H    3.7985115267    2.4845860593    1.8815927368
 H    4.4891668387    2.2243191244   -0.5142369301
 H    3.0565576501    4.0950848902   -1.8559941397
 H    0.4753976402    3.3302931266   -1.5297929414