12

 N    0.2141301278    1.3721922615   -0.1166114095
 C    0.0100191987    0.0133146706   -0.0494934305
 C   -1.1049267842   -0.7881704821   -0.0788309275
 O   -2.3880787519   -0.3652657914   -0.0994044796
 N   -0.7303678980   -2.0943637047   -0.0868988119
 C    0.5764467054   -2.0707919114   -0.0582139884
 O    1.0907191644   -0.8017446137   -0.0417734268
 C    1.4777977871   -3.1520219030   -0.0247189764
 N    2.2230413037   -4.0396129979    0.0015651134
 H    0.9801442147    1.7073109500    0.4542154395
 H   -0.6332285300    1.8980947812    0.0490589564
 H   -2.9503845077   -1.1489571691   -0.0992829986