19

 C    0.3797590884    1.4282045807   -0.0628446990
 C    0.0728054958   -0.0326930839    0.0437986851
 N    0.0940380382   -0.8081793758   -1.0414197765
 N   -0.2219711830   -2.0479767103   -0.6041434302
 C   -0.4428675082   -2.0726880203    0.7333949729
 C   -0.2623517424   -0.7852197326    1.1923897891
 C   -0.2789386860   -3.1159608088   -1.5595886813
 C    0.1694392093   -4.5067479512   -1.2022368654
 C   -1.2969752021   -4.2168696342   -1.4387524184
 H    1.2439610319    1.7031822586    0.5520114706
 H    0.6008871999    1.6865307844   -1.1006462536
 H   -0.4640351542    2.0416247303    0.2722126943
 H   -0.7063838754   -2.9815944680    1.2509351152
 H   -0.3584485995   -0.4400203223    2.2095090493
 H   -0.0440334600   -2.7290900968   -2.5418341740
 H    0.7205220690   -5.0707073633   -1.9463603168
 H    0.4905720806   -4.6805966046   -0.1810763604
 H   -1.9526701979   -4.1976469985   -0.5751472165
 H   -1.7646743845   -4.5794191133   -2.3471996842