19

 C   -0.1352829691    1.4994012542    0.0208256301
 C    0.0794805424   -0.0198894584    0.0234517831
 C    0.7049314331   -0.5040768135   -1.2502084887
 C   -0.0519183982   -0.8935184366   -2.4903034531
 C    0.8936434991   -1.8801336429   -1.8485351207
 C    2.3685101657   -1.5005631103   -2.0637417720
 C    2.5986899211   -0.2656371099   -2.8394400657
 N    2.1834541327   -0.1487165593   -1.4267708247
 H    0.8144822539    2.0167314913   -0.1446078335
 H   -0.8260231947    1.7987913018   -0.7743460888
 H   -0.5471013394    1.8412325721    0.9751394480
 H    0.7295292561   -0.2963392071    0.8624494478
 H   -0.8742863290   -0.5403738638    0.1731180115
 H   -1.0974125126   -1.1090033931   -2.2887050533
 H    0.1090158256   -0.4733386300   -3.4770938417
 H    0.5758565395   -2.8447339237   -1.4746911996
 H    3.1810471393   -2.1468495804   -1.7463435293
 H    3.6332345792    0.0382945027   -2.9755398459
 H    1.9439828251    0.0452147069   -3.6449446736