17

 C   -0.0122593886    1.4906869470    0.0965144392
 C   -0.0269486847    0.0005702771    0.0095526999
 C   -0.0754787261   -0.7553894638   -1.0917517127
 C   -0.0717476181   -2.2052858894   -0.7203870496
 C   -0.0121421407   -2.1866193727    0.8103860188
 O    0.0097799559   -3.1258515805    1.5545080582
 N    0.0126427637   -0.8104227149    1.1818650810
 C    0.0667961931   -0.3016195941    2.4776305933
 N    0.1018405318   -1.0245363411    3.5201018432
 H    0.8937961491    1.8657085932    0.5866733212
 H   -0.0483869946    1.9086425153   -0.9114563237
 H   -0.8715408633    1.8792094862    0.6555357785
 H   -0.1118492387   -0.3696599499   -2.0997218444
 H   -0.9670793636   -2.7524012918   -1.0384439140
 H    0.7883149451   -2.7650728411   -1.1065154915
 H    0.0749985180    0.7922599559    2.4767108533
 H    0.1383510618   -0.4249748854    4.3433602492