16

 C   -0.0239426886    1.4987479533    0.0886126248
 C   -0.0629390672    0.0215505986   -0.0721245379
 C   -1.0257826068   -0.9265686678    0.1065925116
 C   -2.4447490312   -0.7734018165    0.5504952089
 C   -0.3430048088   -2.1356451614   -0.2395485819
 C   -0.8474214616   -3.5194804466   -0.2493776213
 O   -1.9781887392   -3.8214916555    0.0551630501
 N    0.9086413875   -1.9207554270   -0.5904276150
 O    1.0896432652   -0.5649020692   -0.4867214204
 H    0.7320718433    1.7934840467    0.8237261759
 H    0.2260049024    1.9899447803   -0.8574496464
 H   -0.9942473113    1.8691765738    0.4240296984
 H   -3.1380535718   -1.1518981187   -0.2061886757
 H   -2.6372976091   -1.3468398614    1.4618647741
 H   -2.6865290213    0.2746683372    0.7455769119
 H   -0.0964893515   -4.2719842857   -0.5627453472