22

 C   -0.2091796119    1.5078648013   -0.0105531532
 C    0.0028407886   -0.0031058897    0.0354985489
 C    1.1292910096   -0.5118114599   -0.9132052367
 C    2.0930100213   -0.5788403384    0.3010956281
 C    0.8557701309   -0.5330031853    1.2434984599
 C    0.9326588547    0.2463064166    2.5272858534
 C   -0.0669434505    0.0031086045    3.6335228740
 C    1.3665979637   -0.4327008919    3.8046867203
 H    0.7365485243    2.0564307030    0.0651008769
 H   -0.6798784822    1.7995988715   -0.9558828274
 H   -0.8559231286    1.8469928234    0.8053458027
 H   -0.9640702662   -0.5023506100   -0.0839168579
 H    0.9110069351   -1.5032380763   -1.3200120693
 H    1.4090512013    0.1460323711   -1.7409848801
 H    2.7555354251   -1.4443236879    0.3805408400
 H    2.7026934547    0.3255387105    0.3926545814
 H    0.5378720940   -1.5576431268    1.4727209929
 H    1.2642366489    1.2752603246    2.4141998528
 H   -0.4204196017    0.8516661609    4.2090500764
 H   -0.8150001941   -0.7674781166    3.4768636676
 H    1.5820247389   -1.4956194614    3.7644849524
 H    1.9934519240    0.1193460369    4.4963877870