20

 C   -0.0031625845    1.5760734586   -0.0468633210
 C    0.0374344596    0.0447061620    0.0135372828
 C    0.7736893576   -0.6217122159   -1.1764611159
 C    1.5230599718   -1.8414676496   -0.5896829467
 O    2.7902751295   -2.0953949812   -1.1877372667
 C    1.5859241244   -1.5357708816    0.8981215096
 C    2.4303561848   -2.3638966332    1.8134970822
 C    0.7833736128   -0.5149984143    1.2051259426
 H    1.0100966113    1.9928573016   -0.0674505423
 H   -0.5286481602    1.9221046220   -0.9433364107
 H   -0.5197036135    1.9941503092    0.8239708682
 H   -1.0027431243   -0.3145614091    0.0444682686
 H    0.1123823623   -0.8843321874   -2.0060030473
 H    1.5242577777    0.0746450782   -1.5729705980
 H    0.9663772202   -2.7732669533   -0.7601083780
 H    3.3237040241   -1.3004957283   -1.0733804272
 H    3.4650676488   -2.4077734840    1.4566915652
 H    2.4258782829   -1.9747692019    2.8350589373
 H    2.0741045061   -3.4021602115    1.8415534357
 H    0.6303010985   -0.1296671004    2.2096202314