17

 C   -0.0274501915    1.5129692119    0.0275713753
 C    0.0049292038    0.0063938460   -0.0077837466
 C   -0.0333846676   -0.6717763144   -1.1968248488
 C   -0.0003333178   -2.1112367639   -1.2582922195
 O   -0.0180855089   -2.8240012425   -2.2496520167
 N    0.0683367069   -2.7211230296    0.0216036249
 C    0.1041584151   -2.0673440760    1.2157549139
 N    0.2407575711   -2.8599924003    2.3454080125
 C    0.0667235247   -0.6968097124    1.2281288917
 H    0.8684868896    1.9098663139    0.5186629519
 H   -0.0845624182    1.9372019746   -0.9769369550
 H   -0.8898808780    1.8708430254    0.6016847019
 H   -0.0829646349   -0.1533560821   -2.1461169331
 H    0.1539947133   -3.7279078819   -0.0120435486
 H   -0.2539959790   -3.7413777113    2.3182027282
 H    0.0700049890   -2.3683363549    3.2104420561
 H    0.0795627425   -0.1655318325    2.1714938718