18

 C    0.1455477831    1.3968399892    0.2478133606
 C   -0.0703684354   -0.0887927358    0.0429391863
 C   -1.4231020101   -0.6134843398    0.4807932961
 C    0.6187732746   -0.7829812869   -1.1333869669
 C    1.4359540166   -0.0548927364   -2.0638686012
 C    2.0856008444    0.5444205504   -2.8784255867
 N    1.0432682173   -0.9980505261    0.2421786320
 C    2.2882074224   -0.7461793806    0.7872786121
 O    3.3427137472   -1.0302358653    0.2775016427
 H    1.1167480403    1.7192540860   -0.1329533949
 H   -0.6307427165    1.9643731402   -0.2751072324
 H    0.0815323221    1.6509137236    1.3111785442
 H   -2.2261951654   -0.1097840098   -0.0667850580
 H   -1.5003939417   -1.6896099010    0.3090200969
 H   -1.5771117553   -0.4283546555    1.5494725883
 H    0.0962684087   -1.6342748533   -1.5668807380
 H    2.6808587569    1.0642516315   -3.5880428720
 H    2.1999602207   -0.3190872806    1.8060413210