17

 C   -0.2601355819    1.4728418493    0.0351184410
 C    0.0204302986   -0.0267340643   -0.0370306924
 C    0.8538707224   -0.3903505050   -1.2561243949
 O    1.1630089214   -1.7844694157   -1.2721391980
 C    1.6913784495   -2.3402743107   -0.1391965267
 N    2.2067943981   -3.4922409082   -0.1369687372
 C    1.5854403188   -1.5653022820    1.1751482054
 O    2.1655349954   -1.9155267859    2.1774094269
 N    0.7758439892   -0.4630633302    1.1284653581
 H    0.6729877224    2.0438548684    0.0660569717
 H   -0.8417036792    1.7965773549   -0.8327270295
 H   -0.8397875271    1.7146020002    0.9315146275
 H   -0.9361912205   -0.5681722541   -0.1008325225
 H    0.3050736556   -0.1987484032   -2.1806097534
 H    1.7808842789    0.1992569577   -1.2644795352
 H    2.1870391061   -3.8822566662   -1.0825519649
 H    0.6238191723   -0.0123474349    2.0197940643