17

 C    0.0137363904    1.4666660140   -0.0227836232
 N   -0.0541769899    0.0287503996    0.1051664060
 C   -1.3156139012   -0.6075493540    0.5287078264
 C   -0.4846878579   -1.6719009480    1.2906717176
 O   -0.2603672017   -2.8762883900    0.6167369514
 C    0.6823121391   -0.6195198591    1.2162687255
 C    2.0262770648   -1.0754030359    0.9145186954
 C    3.1302058655   -1.4730735968    0.6516179192
 H    1.0423398906    1.7678378878   -0.2452279202
 H   -0.6211117797    1.7948138554   -0.8523124849
 H   -0.3131878678    1.9980235542    0.8914635456
 H   -1.9174778039    0.0157016102    1.2117246488
 H   -1.9509111308   -0.9689534375   -0.2863639812
 H   -0.8213738490   -1.9312030705    2.2945829817
 H    0.1790133671   -2.6717941720   -0.2174380771
 H    0.6882626620   -0.0030357412    2.1327298068
 H    4.1078561525   -1.8204276561    0.4247169122