19

 C    0.1028859239    1.4336761842    0.0578416697
 C    0.0174319765   -0.0486781560   -0.0562066871
 C    0.0747950071   -0.8760572813   -1.1027132336
 C    0.0001051815   -2.2344423990   -0.4186897314
 O    0.9656965157   -2.0442402680    0.7276355278
 C   -0.1020575181   -1.0554132680    1.1198267268
 C   -1.0364464600   -0.6244633069    2.2795370824
 C   -2.2028508425   -1.0680015310    1.2668558374
 C   -1.1294020489   -2.0466035599    0.6712623749
 H    0.9599641058    1.7331796803    0.6745279825
 H    0.2165818312    1.8991137014   -0.9251273400
 H   -0.7880822950    1.8633566010    0.5319458591
 H    0.1960417818   -0.6784830432   -2.1579044356
 H    0.1743905041   -3.1575376273   -0.9715557555
 H   -0.9996510379   -1.2930975462    3.1413084854
 H   -1.0069659977    0.4160680699    2.6140245843
 H   -3.0954619428   -1.5178442719    1.7059949987
 H   -2.4850891509   -0.2464945133    0.6064234695
 H   -1.0893540136   -2.9227688950    1.3244154247