18

 O   -0.1550065449    1.4697204483    0.0300820329
 C    0.0357780714    0.0740829989    0.1177290912
 C   -1.2730553094   -0.6804256202   -0.1248958396
 N   -1.8109950407   -0.2479133222   -1.4132067465
 C   -2.4124312779   -1.0611539732   -2.1458248438
 O   -2.6790688751   -2.4224449356   -1.9428726595
 C   -3.1986538598   -2.5152751375   -3.2949421506
 C   -4.4143581784   -1.6740732636   -3.4172606749
 C   -3.0244870075   -1.0284256031   -3.5054767502
 H   -0.6872046770    1.6007969207   -0.7660009543
 H    0.7922734378   -0.2759277506   -0.6047333103
 H    0.4118937886   -0.1429438636    1.1234304861
 H   -1.1172068602   -1.7655548794   -0.0711768665
 H   -1.9900962494   -0.3997225861    0.6571115344
 H   -2.9065178114   -3.3736553578   -3.8831424710
 H   -4.9354122890   -1.7227231182   -4.3685921935
 H   -5.0428706477   -1.5083254677   -2.5482057506
 H   -2.6896148893   -0.4525943192   -4.3550088734