20

 C   -0.0176151139    1.6384546035    0.1187689642
 C    1.4943135190    1.3726690156   -0.0499621686
 C    2.3223433701    1.3368235107    1.2406159920
 C    2.0341037407    0.1142183505    2.1335203910
 C    0.5502650783   -0.1431731641    2.4517738286
 C   -0.2793021151   -0.6824461490    1.2705039953
 C   -0.1417542414    0.1082959858   -0.0278902295
 O    1.2162979147    0.0352852917   -0.5443310390
 H   -0.3562959564    2.0946181835    1.0505177717
 H   -0.4452429875    2.1798435636   -0.7268916881
 H    1.9950018436    1.9771925726   -0.8142383767
 H    3.3891697590    1.3360155994    0.9873685131
 H    2.1372451193    2.2690540447    1.7918878958
 H    2.4484806094   -0.7756032713    1.6472260399
 H    2.5838729501    0.2430490103    3.0731012643
 H    0.4865922476   -0.8717160262    3.2684534442
 H    0.0942715951    0.7762830750    2.8420979805
 H    0.0243782035   -1.7144224745    1.0521087786
 H   -1.3395889810   -0.7214127898    1.5538508804
 H   -0.8588149549   -0.2522755922   -0.7741003179