23

 C   -0.5109506507    1.3506978405   -0.0149969509
 C    0.2101054745    0.0190985755   -0.0318138909
 O    1.4941255348    0.0844944169   -0.6955845699
 C    2.1035627556   -0.7330494787    0.3201882805
 C    0.8683895820   -0.5923043465    1.2489497064
 C    1.1026866815    0.4119123216    2.3791284531
 C    0.2215123306   -1.8916765700    1.7330088034
 C    1.0360504001   -2.6742910596    2.7589251502
 O    0.3710248023   -3.9107670156    2.9723355075
 H    0.0805602960    2.1305237721    0.4701641254
 H   -0.7116070098    1.6693305866   -1.0430468627
 H   -1.4721222418    1.2617155330    0.5029737985
 H   -0.4293068311   -0.7293225670   -0.5267519396
 H    2.2885217080   -1.7574522100   -0.0346316661
 H    3.0472009186   -0.3049768988    0.6792740055
 H    1.5457283267    1.3379068456    2.0018067475
 H    0.1678773461    0.6667826970    2.8906614709
 H    1.7916278915    0.0072121187    3.1276142221
 H   -0.7667684230   -1.6790169837    2.1610080002
 H    0.0524508782   -2.5552474195    0.8764870719
 H    2.0594973787   -2.8340940010    2.3792010187
 H    1.1226176203   -2.1079360749    3.6982093081
 H    0.8518594406   -4.3987068720    3.6471113999