21

 C   -0.0440026273    1.5487105490    0.1497509919
 C    1.4995976612    1.6266599799   -0.0127269327
 C    1.5694853293    0.0776698256    0.1728252637
 C    0.0199607109    0.0038347114   -0.0066796700
 C   -0.4789463544   -0.5606012508   -1.3424303708
 O    0.3958415396   -0.4466440607   -2.4555031865
 C    0.7356003316    0.8262837161   -2.9361458393
 O    1.9736230005    1.2836831000   -2.4618924277
 C    2.0106346137    2.1699215954   -1.3526773034
 H   -0.3711499797    1.8506977371    1.1482049407
 H   -0.6495792406    2.0981729865   -0.5794046456
 H    1.9942451518    2.2064781724    0.7726416984
 H    2.1578858444   -0.4615882711   -0.5702198939
 H    1.8922515097   -0.2128854193    1.1747677578
 H   -0.5088842849   -0.5388835553    0.7829100609
 H   -0.6372702290   -1.6398049771   -1.2467008374
 H   -1.4556820943   -0.1069348264   -1.5811156429
 H    0.8645098376    0.7047309224   -4.0163029969
 H   -0.0651576000    1.5571972023   -2.7378916009
 H    1.4679520651    3.0996697903   -1.5932201921
 H    3.0709940948    2.4274607826   -1.2620025631