17

 N   -0.0435168871    1.5367900162    0.0137995413
 C    0.0199138298    0.0726903222   -0.0481925355
 C   -1.4103607874   -0.5069820584    0.1080276262
 C   -2.0122604701   -0.1735659127    1.3966151945
 N   -2.4900663869    0.0591285107    2.4221802895
 C    0.6374672279   -0.4543891052   -1.2731312633
 C    1.1213478744   -0.8401278020   -2.3082094739
 C    1.7334178964   -1.3583584678   -3.5336758231
 O    1.4917379910   -2.7407973824   -3.7451850043
 H    0.8968104085    1.9158951623    0.0692102722
 H   -0.4425702336    1.8951316699   -0.8502489181
 H    0.6043561778   -0.2568668431    0.8189266161
 H   -2.0451461396   -0.1237798940   -0.6985462964
 H   -1.3802812671   -1.5954048056   -0.0011620136
 H    1.3138230163   -0.8466843904   -4.4068586367
 H    2.8117824361   -1.1332916442   -3.5234317270
 H    1.7990173335   -3.2127970455   -2.9640700881