13

 C    0.0417358336    1.5196864036    0.0257228490
 C    0.0254184850    0.0219205413   -0.0542106740
 C    0.1334341595   -0.7842014881    1.2278875438
 C    1.3664645527   -0.5066226472    1.9678799099
 N    2.3385406086   -0.2712962610    2.5462997984
 N   -0.0970163771   -0.6894464439   -1.1076599508
 O   -0.2408595245    0.0753737204   -2.2656539087
 H    0.8708102714    1.8567656736    0.6558378769
 H    0.1334632311    1.9621277422   -0.9647200589
 H   -0.8840450555    1.8849625671    0.4872373959
 H   -0.7150542008   -0.5572820297    1.8870254904
 H    0.0866992609   -1.8481515537    0.9810397251
 H   -0.2823777052   -0.5994482148   -2.9517920270