22

 C    0.0937833641    1.5289670594   -0.2286061799
 C    0.1240610669    0.0402676359    0.0201730829
 N    1.4437320431   -0.6161087761    0.0902462904
 C    0.5826574338   -0.5910964609    1.2856328089
 C    1.0878477568    0.1892421916    2.4850909863
 O   -0.0014621049    0.7667436099    3.2077729881
 C    1.9694624271   -0.6624649188    3.3719607541
 C    3.4443402473   -0.7852252488    3.0796374906
 C    2.9746264276   -0.0124094710    4.2858955844
 H    0.9387866056    2.0302478711    0.2474324724
 H    0.1456541669    1.7383878226   -1.3024897455
 H   -0.8304974189    1.9667368328    0.1617218878
 H   -0.6597640616   -0.5088112374   -0.5019134884
 H    1.4204270804   -1.5309725655   -0.3509415913
 H    0.0828340080   -1.5235789127    1.5570046956
 H    1.6737008995    1.0404327286    2.1253378430
 H   -0.4688454254    0.0524962928    3.6539842825
 H    1.4792147547   -1.5595168660    3.7499424144
 H    3.9195512572   -1.7473413831    3.2354686822
 H    3.8311352689   -0.2311700107    2.2317460167
 H    3.0459684716    1.0699031308    4.2615284970
 H    3.1319342115   -0.4442088146    5.2681161878