21

 C   -0.2235082041    1.4602236715    0.3490501700
 C   -0.0180237154   -0.0152263686    0.0710072606
 C    1.3427438832   -0.4933845965   -0.3822894974
 C    0.8562891401   -0.8082736363    1.0110287500
 C   -1.2163771311   -0.7422976707   -0.5222174280
 O   -2.3427868340   -0.6568115972    0.3624428885
 C   -3.5003135671   -0.2169907105   -0.3407365490
 C   -3.0163372572    0.1144640966   -1.7247466127
 C   -1.7276955294   -0.1854688679   -1.8278230072
 H    0.6730273356    1.9029179621    0.7934583834
 H   -0.4529509475    2.0138364956   -0.5680224162
 H   -1.0551831045    1.6037399893    1.0455648549
 H    1.3948001290   -1.3069066383   -1.0993685261
 H    2.1252707119    0.2484366746   -0.4999563312
 H    1.3117107014   -0.2826515857    1.8433412508
 H    0.5723822583   -1.8313382108    1.2344274121
 H   -0.9373982702   -1.8046046835   -0.6427685507
 H   -4.2654596650   -1.0112101140   -0.3510473594
 H   -3.9413737760    0.6481340695    0.1771447615
 H   -3.6580175823    0.5195840089   -2.4970825182
 H   -1.0974604059   -0.0757894583   -2.7010157758