22

 C   -0.0447460606    1.5893729986    0.0155164399
 C   -0.0217804890    0.0587999836    0.0102558709
 C    0.7160541905   -0.5208729540   -1.2029166889
 C    0.7468970307   -2.0621091932   -1.2443105161
 C    1.3542577992   -2.5811118095   -2.5660610553
 C    1.2374295725   -4.0975717218   -2.7478439838
 C    1.5717746581   -2.5827342852   -0.0841742271
 O    1.1926510808   -3.3344471824    0.7761655714
 H    0.9701734626    2.0015865651    0.0401742033
 H   -0.5379621862    1.9817327044   -0.8809527075
 H   -0.5818408123    1.9761315213    0.8868555970
 H    0.4434592243   -0.3043263652    0.9354607939
 H   -1.0496101511   -0.3260414710    0.0223867526
 H    0.2434753337   -0.1592191987   -2.1250344744
 H    1.7472662175   -0.1390933037   -1.2242046272
 H   -0.2689912744   -2.4580758817   -1.1267919114
 H    0.8534627771   -2.0692197396   -3.3963763372
 H    2.4093076036   -2.2785546682   -2.6178257023
 H    1.6837711119   -4.4129372496   -3.6956983407
 H    1.7407244916   -4.6432383749   -1.9431746801
 H    0.1888075429   -4.4132886627   -2.7494259232
 H    2.6241930466   -2.2021130515   -0.0880262738