27

 C   -0.0293946651    1.4092687976   -0.0137249507
 O   -0.0809985932    0.0050464050   -0.0164828233
 C    0.6828763047   -0.5732859899   -1.0566333710
 C    0.6150615527   -2.1113902602   -0.9634829112
 C    1.2636723359   -2.5544799198    0.3624915558
 C   -0.8724603425   -2.5223058565   -0.9627828540
 C    1.3308895640   -2.7199113555   -2.2165599886
 C    2.7662444595   -2.2117362650   -2.4446445639
 C    1.3388808194   -4.2581763392   -2.2240376192
 H    0.9994198297    1.7817163191    0.1179204039
 H   -0.4281442402    1.8363445351   -0.9480540134
 H   -0.6404108732    1.7594492420    0.8221782984
 H    0.2991011998   -0.2376331034   -2.0368947942
 H    1.7241219075   -0.2250477353   -0.9760414169
 H    0.7862962316   -2.0359507996    1.1976133288
 H    1.1526213259   -3.6302901905    0.5247986907
 H    2.3320608351   -2.3170666407    0.3942567617
 H   -1.3482594705   -2.2825995647   -1.9210425339
 H   -0.9959165823   -3.5936869171   -0.7847555628
 H   -1.4110057312   -1.9865076470   -0.1789149750
 H    0.7363401534   -2.3976917783   -3.0842252258
 H    2.8121929785   -1.1328281479   -2.6133361302
 H    3.4211880141   -2.4484385431   -1.5992514197
 H    3.1944246009   -2.6946121987   -3.3293535455
 H    0.3386311551   -4.6838886326   -2.1145615525
 H    1.7489072597   -4.6249642353   -3.1707584899
 H    1.9665068907   -4.6603530584   -1.4216750075