18

 C    0.3717338144    1.3227007904    0.1482039540
 N   -0.2492561686    0.0159514311    0.0580197710
 C   -0.3188223173   -0.7708208418   -1.1074593865
 N   -0.5510095785   -2.0233066505   -0.9705460518
 C   -0.7370241660   -2.2045214541    0.4811894596
 C    0.0640108652   -3.1809804796    1.3551467938
 C    0.1752122872   -2.3384234841    2.6716659825
 N    0.2451971213   -0.9110843529    2.2518110128
 C   -0.2555587011   -0.9111122707    1.0836582001
 H    1.4115755785    1.2455310568    0.4875717357
 H    0.3464271420    1.8012079420   -0.8333982227
 H   -0.1746303323    1.9490750757    0.8577121912
 H   -0.1777179929   -0.2773403867   -2.0649672305
 H   -1.8138431154   -2.3467247590    0.6620561823
 H   -0.4133442929   -4.1524112743    1.4999400381
 H    1.0590912742   -3.3384873068    0.9267079262
 H   -0.7021621669   -2.5023079340    3.3132869031
 H    1.0591857291   -2.5876816714    3.2650459011