16

 C   -0.0169673589    1.4892082155   -0.0107383486
 N   -0.0053523688    0.0268276385    0.0142517887
 C   -0.0010952280   -0.6288455135    1.2527877043
 N   -0.0070756455    0.0193106536    2.3435587063
 C    0.0016998148   -0.7577143147   -1.1322382556
 O    0.0111206419   -1.9670086169   -1.1103427322
 C   -0.0036304818    0.0295271267   -2.4527386857
 C    0.0044071088   -0.8503892389   -3.6156641221
 N    0.0104636200   -1.5044000119   -4.5663340625
 H    0.8723161523    1.8869510326   -0.5082648322
 H   -0.9115313296    1.8727445034   -0.5099469434
 H   -0.0206011389    1.8234375216    1.0255521096
 H    0.0075919662   -1.7107768742    1.1287965076
 H   -0.0025810578   -0.6221842218    3.1338186786
 H   -0.8848433365    0.6795473701   -2.5001998139
 H    0.8669661920    0.6937840599   -2.4988494789