16

 O   -0.0572921064    1.3669864532   -0.0488641755
 C    0.0138833285   -0.0240770804    0.0024022867
 C   -0.4917570322   -0.7456931999    1.2485263905
 C   -1.3159310384   -0.7295353991    0.0045019117
 C   -2.6587499147   -0.0677228635   -0.2792847014
 O   -3.0189596111   -1.1497695654   -1.1668243221
 C   -1.7915874896   -1.8617696346   -0.8978766748
 C    1.1074137692   -0.6199033100   -0.7352625297
 N    1.9843441790   -1.0957580869   -1.3208904815
 H    0.6898179469    1.7323483543    0.4395130757
 H   -0.0011931270   -1.6688228116    1.5393052425
 H   -0.7942194696   -0.0979522573    2.0653601226
 H   -3.3364372892    0.0033036796    0.5810169530
 H   -2.6114031367    0.8990239967   -0.7913189612
 H   -1.1992318927   -2.0359393563   -1.8039478977
 H   -1.9723063558   -2.8178694890   -0.3902710688