23

 C   -0.1150174942    1.5882274223    0.0073604952
 C    0.0203216302    0.0548809229   -0.0138120722
 C    0.6666056490   -0.4265543448   -1.2938511464
 C    1.8020746340   -1.1257426257   -1.3133229304
 C    2.5255037491   -1.4922998869   -0.0336867629
 C    1.8196829378   -2.6896862528    0.6547418468
 C    0.5935663533   -2.0391340817    1.3651353201
 C    0.7798738756   -0.5015204672    1.2174805970
 C    2.3003395057   -0.3697589609    0.9951955666
 H    0.8648442642    2.0762964280    0.0184383054
 H   -0.6503669522    1.9469487065   -0.8782185020
 H   -0.6696018484    1.9195983494    0.8918916252
 H   -1.0020444689   -0.3524482201    0.0193548268
 H    0.1614460937   -0.1725905643   -2.2238699741
 H    2.2169776695   -1.4763095535   -2.2551319885
 H    3.5815655297   -1.6950168849   -0.2317815497
 H    1.5299885333   -3.4670562181   -0.0568472638
 H    2.4934959172   -3.1508135261    1.3853820616
 H   -0.3539691074   -2.3675198275    0.9280969582
 H    0.5677847399   -2.3227492745    2.4215277576
 H    0.4382187508    0.0275933150    2.1124936545
 H    2.8480348830   -0.5761760532    1.9219444271
 H    2.6085856151    0.6130090981    0.6288647578