18

 O    0.0650953562    0.0243776188    0.0023700717
 C    0.0202954136    1.2385408311   -0.1114985908
 C   -1.2502217318    2.0229612399   -0.0900369515
 C   -1.2804976781    3.2915806152    0.3306379458
 C   -0.0227503888    4.0349758587    0.7294406636
 C    1.1619910778    3.4927747737   -0.0682609266
 C    2.5703525013    3.3427362950    0.5826985986
 C    2.4809192312    1.8122019290    0.2949118006
 N    1.1247212672    2.0293743243   -0.2164725898
 H   -2.1506550877    1.4667208402   -0.3248431409
 H   -2.2299917654    3.8095923582    0.4399138002
 H   -0.1375267333    5.1107246084    0.5609930313
 H    0.1427642883    3.9069905518    1.8096566638
 H    1.1945070810    3.9879019461   -1.0482431081
 H    3.3802304937    3.8745390572    0.0822819032
 H    2.5828816682    3.5880264604    1.6467466273
 H    3.1801622962    1.4387652128   -0.4602929935
 H    2.5153609904    1.1480839793    1.1634390350