22

 C    0.1365831599    1.6215812078    0.0820575884
 C   -0.1221741050    0.1162489887   -0.0464422864
 C    0.6409651097   -0.5126925124   -1.2060975596
 N    2.1003932851   -0.6046370007   -1.0318403864
 C    2.1906629550   -1.9561613991   -1.2552316690
 O    3.1216057212   -2.7152560377   -1.3268230264
 C    0.6486295170   -2.0799198092   -1.4011527087
 C   -0.0073148299   -2.9287255232   -0.3140892962
 C    0.2319635133   -2.5374480043   -2.7992031286
 H    1.1952964289    1.8268613548    0.2751236372
 H   -0.1454469998    2.1538404180   -0.8332473494
 H   -0.4367111424    2.0518610159    0.9083819615
 H    0.1513143653   -0.3843471053    0.8880806875
 H   -1.1942383251   -0.0601070420   -0.2012552031
 H    0.3696712257    0.0014442412   -2.1387753163
 H    2.8194201165    0.1044178591   -1.0208183270
 H    0.3130041729   -2.6385808192    0.6898765804
 H   -1.0996954925   -2.8578804137   -0.3598512302
 H    0.2676539455   -3.9785378435   -0.4551733083
 H    0.5328376828   -3.5769400283   -2.9620954820
 H   -0.8547974080   -2.4737685548   -2.9244232718
 H    0.7009151240   -1.9284835420   -3.5786877456