19

 C    0.0337068684    1.4728181056    0.1398822130
 C    1.2807697995    0.6752933583   -0.0694608147
 O    1.7132484828    0.0777543263    1.1547512370
 C    0.4900486735   -0.7347961063    1.2053672095
 C    0.7946487341   -2.2335968266    1.0724845878
 C    0.7790162765   -2.6957419724    2.5309406345
 O   -0.2802969601   -1.9506309449    3.1195674613
 C   -0.2249346802   -0.6400121949    2.5718652542
 C   -0.0491298874   -0.0322199694   -0.0391509602
 H   -0.1539399406    1.9366813701    1.1039013908
 H   -0.3090460761    2.0418590810   -0.7190990908
 H    2.0158642850    0.8323469687   -0.8494702089
 H   -0.0148579031   -2.7245680345    0.5208636892
 H    1.7378217507   -2.4047006974    0.5511736015
 H    0.5585566965   -3.7575431725    2.6648458323
 H    1.7401824087   -2.4717054296    3.0214787530
 H    0.3534562608    0.0360348024    3.2172398667
 H   -1.2477141314   -0.2596109212    2.4885620227
 H   -0.6202568375   -0.5084777225   -0.8249570888