14

 N   -0.1100697756   -1.1348906048   -0.1256374682
 C   -0.0503244222    0.0165856758   -0.0506373885
 C   -0.0117169996    1.4662715103    0.0099706085
 C    0.1321246163    2.1207751004    1.4238364655
 O    1.5198085903    1.6194678920    1.4876073185
 C    1.3958437250    2.1418982130    0.1118381619
 C    0.6975438607    3.3692478179    0.7237728496
 O    0.0418783570    4.4312569248    0.1093325298
 C    1.0710047493    4.7135060339    1.1051251226
 H   -0.7286625951    1.9280153546   -0.6731462728
 H   -0.5034271379    1.9994826106    2.2985038132
 H    2.2478298607    2.0454688161   -0.5578644987
 H    0.7010967966    5.1393095787    2.0349407283
 H    1.9792799846    5.1606717668    0.7079139703