20

 C   -0.3369811064    1.5129025727   -0.0614452454
 N    0.0986755729    0.1204521783    0.0630536179
 C    1.3842196117   -0.4276361980   -0.3000240401
 C    2.6645831822    0.4256282185   -0.0761607278
 C    3.2985904807   -0.2707348087    1.1605822945
 C    2.0234156553    0.3866639340    1.7611411177
 O    2.2019739341    1.4781533570    0.8167734658
 C    0.8871198109   -0.4718616039    1.1197618858
 C    0.3376899331   -1.6502585988    1.8798322959
 H    0.2748770715    2.0728860531   -0.7725789924
 H   -1.3745026966    1.5186950386   -0.4175533581
 H   -0.2971264743    2.0425270572    0.8936763426
 H    1.4114859988   -1.2704560045   -0.9864868528
 H    3.2359809270    0.7821288865   -0.9330800582
 H    3.3824355739   -1.3608536603    1.1639566474
 H    4.2223825453    0.2074422160    1.4933151944
 H    1.9356827037    0.7007675930    2.8016312450
 H   -0.2910596899   -1.3197580492    2.7154726520
 H   -0.2770003326   -2.2715648271    1.2243090651
 H    1.1410993187   -2.2686566744    2.2963203308