17

 O    0.0469188248   -0.0728917388   -0.0868711794
 C   -0.0195603614    1.1283937728   -0.0042609516
 N   -1.1672858493    1.9155394055    0.0490731356
 C   -0.8233839108    3.3240838378   -0.1126717300
 C   -1.3949349129    4.4179445636    0.8027017938
 C   -0.1729041297    5.3696149390    0.9958811609
 C    1.0190520939    4.4278873351    0.8970972198
 C    0.6271579666    3.2978985872    0.3102348697
 N    1.0797926856    2.0127070512    0.0756930925
 H   -1.9943962802    1.5181263408   -0.3680389649
 H   -0.9157449934    3.6252945023   -1.1701643805
 H   -2.2733613205    4.9220186352    0.3908205625
 H   -1.6669952821    3.9696110692    1.7632915467
 H   -0.1574194371    6.1491471351    0.2199727417
 H   -0.2118907870    5.8931563787    1.9569029886
 H    2.0026020268    4.6539066026    1.2863578604
 H    1.9657246965    1.6484689827    0.3870530043