21

 C    0.0368446248    1.5765086300    0.0348035746
 C    0.0310053040    0.0743733718    0.0114003267
 C   -0.9095439333   -0.7518982538    0.8423412427
 C    0.5700845521   -0.9472103571    1.0343514081
 C    1.2308470041   -1.7607428181   -0.0960295280
 C    0.4720096205   -2.9246730434   -0.7953961791
 O   -0.3712683381   -3.6765133556    0.0494868011
 C   -0.1709212590   -1.9019738717   -1.8010611013
 C    0.6558996962   -0.7598508227   -1.1401910492
 H    1.0212137100    1.9807002297   -0.2298619763
 H   -0.6908631274    1.9893312298   -0.6757505188
 H   -0.2234434768    1.9562679289    1.0286431179
 H   -1.3863569849   -0.1965630886    1.6456387099
 H   -1.5258396041   -1.5444545502    0.4358134561
 H    1.0361929967   -0.7704010083    1.9971761692
 H    2.3060361388   -1.8926319784    0.0288109272
 H    1.1810715333   -3.5846167015   -1.3158148840
 H   -0.7760190243   -4.3737982746   -0.4762879690
 H    0.0853713063   -2.0955436595   -2.8461656941
 H   -1.2566563276   -1.8048365087   -1.7218323398
 H    1.3223904687   -0.1919228883   -1.7899552339