19

 O    0.0247678310    1.4260794640   -0.0727421393
 C    0.0653076975    0.0131154240    0.0640301623
 C   -1.3788363975   -0.4764331841    0.0609345685
 C   -2.0707405878   -0.0659209597   -1.2352546235
 O   -3.2658369524    0.0259061707   -1.3587260496
 C   -1.4509152145   -1.9971807828    0.2416748648
 C   -2.8264714675   -2.6974059250    0.2099546223
 C   -2.2310871760   -3.4991417694   -0.9650583792
 O   -1.0171689446   -2.7097515881   -0.9444467550
 H    0.9203160585    1.7466436667   -0.2141883307
 H    0.6088166582   -0.4594311059   -0.7685854456
 H    0.5617876966   -0.2893430209    0.9986430915
 H   -1.9248198903   -0.0100124377    0.8902331137
 H   -1.3900141479    0.1261473294   -2.0915090623
 H   -0.8351864102   -2.2812290184    1.1079809484
 H   -3.0855801043   -3.2670375317    1.1031079302
 H   -3.6499261194   -2.0388654269   -0.0648249954
 H   -2.0264851051   -4.5562158607   -0.7558737557
 H   -2.7512315843   -3.4167543135   -1.9252026654