19

 C   -0.0922575593    1.5295711832   -0.1155414888
 C   -0.0180293461    0.0309042879    0.0390233359
 N    1.3114943860   -0.5879835393   -0.1166435922
 C    0.6605761902   -0.6173443000    1.1839825496
 C    1.2224749380   -0.0835253926    2.5153387365
 N    0.6955852919   -1.3176696726    3.1191936482
 C    0.6949126200   -1.8084913287    4.4702944158
 C    0.2055318800   -1.8516120475    1.9497142982
 O   -0.3413986973   -2.8934364014    1.6857012864
 H    0.8002304713    2.0052323503    0.2996067929
 H   -0.1599378001    1.8052091529   -1.1730973549
 H   -0.9739324952    1.9308651053    0.3954377322
 H   -0.8655531134   -0.5251796030   -0.3601770064
 H    1.2351963628   -1.5063470370   -0.5509041332
 H    2.3137781817    0.0016274705    2.5494985918
 H    0.7623658718    0.8335520195    2.9009167109
 H    0.1556786739   -1.1324043765    5.1455827273
 H    0.1932474018   -2.7793956976    4.4699215097
 H    1.7145543321   -1.9387056935    4.8536467202