17

 C    0.0620574945    1.5200971744    0.2576468114
 N   -0.0527109264    0.0695874771    0.3007823559
 C   -1.1702052048   -0.5621864195   -0.1973133374
 O   -2.0439590281    0.0080257625   -0.8108447980
 C   -1.1558807569   -2.0943589353   -0.0035668225
 O   -2.4192820698   -2.5794076259    0.3015406015
 C   -0.6618907196   -2.7623121402   -1.3109097358
 N    0.5589199836   -2.3807327046   -1.7588459053
 O   -1.3581147303   -3.6054503385   -1.8445502081
 H    1.1127312348    1.8108798400    0.1783522519
 H   -0.4839076289    1.8725179724   -0.6178084541
 H   -0.3723064951    1.9947604571    1.1456600578
 H    0.4612288385   -0.4111557648    1.0234435974
 H   -0.4391297952   -2.3579271228    0.7929618582
 H   -2.6421256890   -3.1741627015   -0.4365535764
 H    0.9844326549   -1.5406199071   -1.3997530502
 H    0.8525680178   -2.7163783733   -2.6626504363