22

 C   -0.1170968658    1.6097240347    0.1785788116
 C    0.0418897295    0.0987424273    0.1692986084
 N    1.1804468600   -0.5190399028   -0.6843591289
 C    2.0985814426   -0.1436904473    0.4947625044
 C    0.8560557079   -0.6997661584    1.2251725296
 C    0.6133545772   -0.8485615530    2.7042253843
 O    1.6350536935   -1.6886750158    3.2250726688
 C    0.9302461017   -1.8117321391    0.1384908396
 C   -0.2185848253   -2.7264097148   -0.2455441875
 H   -0.3368453325    1.9584750295   -0.8362224752
 H   -0.9662828569    1.8867159722    0.8131051298
 H    0.7563041843    2.1573576188    0.5378976712
 H   -0.9231153242   -0.3366372736   -0.0986510390
 H    3.0146369190   -0.7373087928    0.5367641963
 H    2.3262130677    0.9195867596    0.5639922468
 H    0.6240845177    0.1442387676    3.1838314843
 H   -0.3875668656   -1.2808313118    2.8714003306
 H    1.4941328085   -1.7833663446    4.1715501700
 H    1.8493052979   -2.4045245874    0.1821765412
 H   -0.0631229108   -3.1037629350   -1.2618641768
 H   -0.2334869049   -3.5886871461    0.4296125260
 H   -1.2064466517   -2.2620814173   -0.2101395156