23

 C    0.0980438176    1.5214427320   -0.1629344080
 C    0.0529566535    0.0049692354    0.0283758655
 O    0.6566095690   -0.3756277211    1.2634067217
 C   -1.3691868125   -0.5569541360   -0.1042402257
 C   -1.4386069532   -2.0818126192    0.0408886216
 C   -2.8486444230   -2.6338024267   -0.0434382475
 O   -3.7170568123   -2.1797808314    0.9687863568
 C   -3.4667080013   -2.9444723065   -1.3861907320
 C   -3.0718675534   -4.0608694785   -0.4352502516
 H    1.1209193595    1.8886601336   -0.0440004737
 H   -0.2626278379    1.8086408966   -1.1560647110
 H   -0.5346584550    2.0251110785    0.5791119321
 H    0.6872426453   -0.4676460606   -0.7329744485
 H    0.1544912639    0.0400888455    1.9737088582
 H   -1.9981232979   -0.0851304887    0.6659630010
 H   -1.7828782890   -0.2515695588   -1.0746255062
 H   -0.8259680049   -2.5501160070   -0.7395833375
 H   -0.9973727826   -2.3674704195    1.0015569186
 H   -3.9868762809   -1.2829419622    0.7450267737
 H   -4.5269703247   -2.7482373065   -1.5018675724
 H   -2.8741292748   -2.7933620894   -2.2826129740
 H   -2.2097905749   -4.6714182050   -0.6808397455
 H   -3.8729755504   -4.5820291543    0.0755270244