22

 C    0.0370494285    1.4637748161   -0.2065210965
 C    0.0170183023   -0.0448029837    0.0864985316
 C    0.8425296319   -0.3873632581    1.3344915475
 C   -1.4026562194   -0.5441416437    0.1873950576
 C   -2.4072887528   -0.2773322504    1.3255122415
 C   -2.9889033996   -1.7162969678    1.0827428281
 O   -4.3277673243   -1.8285548849    0.6448395549
 C   -1.9844805381   -1.9147503178   -0.0496744995
 N   -2.1234508190   -0.8533967048   -1.0433924222
 H    1.0625691726    1.8237700306   -0.3382102534
 H   -0.5240788676    1.6905262749   -1.1177760206
 H   -0.4097272057    2.0313997179    0.6184260792
 H    0.4582548754   -0.5628974169   -0.7740357591
 H    0.8228713710   -1.4618695804    1.5437164613
 H    1.8870823457   -0.0892122863    1.1993252304
 H    0.4664172310    0.1357493875    2.2211429151
 H   -1.9582421686   -0.1729128020    2.3162702988
 H   -3.1000539168    0.5539742123    1.1559737703
 H   -2.7899507688   -2.3778774400    1.9364306110
 H   -4.9053948394   -1.5702857565    1.3702314572
 H   -1.5199179108   -2.8479793381   -0.3479679714
 H   -3.0749371974   -0.4895082879   -1.0624459718