21

 C   -0.1740956605    1.5133264004    0.1463568526
 C   -0.1543382684    0.0031542667   -0.1010036637
 C    0.9141599653   -0.4089678957   -1.1154176014
 N    0.9120209633   -1.8609430093   -1.2778931175
 C    0.1170790423   -2.4522082500   -2.3357097387
 C    1.6185003761   -2.4791937680   -2.4088702413
 C    2.3530212631   -1.6750299905   -3.4704695099
 C    2.2980125608   -3.7130338117   -2.0505784461
 N    2.8530262437   -4.6950688816   -1.7974554029
 H    0.7877416402    1.8653294589    0.5353441757
 H   -0.3810351627    2.0683117120   -0.7755876066
 H   -0.9444938864    1.7821647527    0.8747259333
 H    0.0281798730   -0.5360643349    0.8347027483
 H   -1.1355196511   -0.3288081259   -0.4630311540
 H    0.7437270540    0.1292552095   -2.0625174281
 H    1.9053116954   -0.1153887489   -0.7495868709
 H   -0.4393235457   -3.3494484054   -2.0807395040
 H   -0.3734888521   -1.7888404457   -3.0488011254
 H    1.7719651868   -0.8080034959   -3.7876853673
 H    3.3222490186   -1.3302588794   -3.0978407298
 H    2.5350626643   -2.3005965874   -4.3487995522