18

 C    0.0844385570    1.5596911217    0.1682602837
 C   -0.0285521134    0.0361931118   -0.0147422898
 C   -1.4373292097   -0.4324030237   -0.1599110808
 C   -2.1308030156   -1.0344023226   -1.1628887858
 C   -3.4421416723   -1.1825419231   -0.6305283913
 C   -4.6316187397   -1.8191192680   -1.2789557207
 O   -4.6516066953   -1.4240000296   -2.6430200789
 N   -3.5303079262   -0.7037965771    0.5867622743
 O   -2.2551393365   -0.2325248305    0.8936784854
 H    1.1313367693    1.8535292014    0.2853209478
 H   -0.3259798603    2.0888017059   -0.6967607559
 H   -0.4654182286    1.8846032921    1.0551266932
 H    0.5275413129   -0.2835422768   -0.9010301060
 H    0.4272471689   -0.4690317970    0.8456929252
 H   -1.7796422390   -1.3203156688   -2.1394750391
 H   -4.5469310565   -2.9140987837   -1.1875795480
 H   -5.5371047501   -1.5110358916   -0.7385543269
 H   -5.3663848449   -1.8988029604   -3.0773497963