13

 C   -0.0263721947    1.5121857690   -0.0734830520
 C   -0.0246208683    0.0028089041    0.0528780102
 O   -0.0397654253   -0.5738981451    1.1215740688
 C   -0.0030494390   -0.7791452713   -1.1920164277
 C    0.0043658337   -2.1189674928   -1.4458748775
 N    0.0263856098   -2.3327205391   -2.8103273543
 C    0.0312778246   -1.1372304801   -3.3143130644
 O    0.0143784686   -0.1397683748   -2.4113729946
 H    0.8605265130    1.8522467861   -0.6186455062
 H   -0.8971597005    1.8478965898   -0.6465882613
 H   -0.0432922324    1.9520012050    0.9237320192
 H   -0.0047462261   -2.9274363193   -0.7333229831
 H    0.0469004766   -0.8528628216   -4.3551578470