17

 C   -0.2989380950    1.3118168793   -0.8719014425
 C   -0.0541862593    0.0684154853   -0.0432441410
 C    1.0691960534   -0.8409191647   -0.4253271378
 N    1.1624340833   -0.0254730830    0.7920367835
 C   -1.2538581831   -0.5302115772    0.5985481729
 N   -2.4599329244   -0.2612775205    0.1522654369
 O   -3.3332556246   -0.9862973165    0.9575410695
 C   -2.6173384592   -1.6652897574    1.8668508919
 C   -1.2935825144   -1.4289842553    1.7064303985
 H    0.6316562627    1.6497666991   -1.3386315521
 H   -1.0321089956    1.1157608486   -1.6585361126
 H   -0.6934883734    2.1219827140   -0.2507412995
 H    0.9840300719   -1.9104209014   -0.2554510172
 H    1.6590747155   -0.5637801055   -1.2954658564
 H    1.7499055004    0.7882056943    0.6266883665
 H   -3.1881326776   -2.2644838215    2.5594374085
 H   -0.4621408607   -1.7970381176    2.2815794209