19

 C   -0.0418650028    1.6236204062    0.0388828964
 C    0.1569840419    0.1115179733   -0.0357418570
 C    0.6883389270   -0.7434436955   -1.1798212499
 C   -0.0845192205   -1.8394771555   -1.8542000247
 C    1.9889585364   -0.1430881323   -1.8150841068
 O    2.3568640805    1.0888495362   -1.1698308984
 C    2.6773423632   -0.1522918422   -0.5311587255
 C    1.3989232292   -0.7257288226    0.1691063187
 O    1.4826607872   -1.7727213517    1.0701676039
 H    0.6764005306    2.0960001697    0.7139589695
 H    0.0712553064    2.1013159835   -0.9346083547
 H   -1.0475975334    1.8459819064    0.4113241413
 H   -0.6651558208   -0.4412459217    0.4212916987
 H   -0.7120527055   -1.4488973039   -2.6645384267
 H    0.5843075389   -2.5931462490   -2.2862720193
 H   -0.7371176633   -2.3501642710   -1.1398720811
 H    2.3479480304   -0.3085107922   -2.8243344461
 H    3.7084633218   -0.3513449788   -0.2625940552
 H    1.5040081528   -1.4059873190    1.9615897867