17

 C   -0.0534201080    1.4390552765   -0.0752383739
 N   -0.0117234126    0.0175066498    0.2283319949
 C   -1.1779243409   -0.7103338228    0.1056469979
 N   -2.3973367765   -0.1843619389    0.0734201198
 N   -3.2005078070   -1.2593165893    0.0512853542
 N   -2.5901275176   -2.4480023399    0.0001701128
 C   -1.3097144100   -2.1235201401    0.0544238286
 O   -0.2772323924   -2.9844019494    0.0566011698
 C   -0.6286216173   -4.3620319398   -0.0360055341
 H    0.9413538252    1.8625791312    0.0806372494
 H   -0.3794614321    1.6569603432   -1.1034176843
 H   -0.7515972800    1.9340321814    0.6046121811
 H    0.7885613579   -0.4727125034   -0.1434465325
 H   -4.1858837493   -1.1706659757   -0.1204336171
 H   -1.2538322217   -4.6623738339    0.8114789803
 H   -1.1762969233   -4.5643864528   -0.9628870317
 H    0.3110537556   -4.9156705361   -0.0253270352