17

 C    0.0785682337    1.4530873584   -0.0670419796
 C   -0.0935054032    0.0240281613    0.4014076591
 O    0.4945139330   -0.4008572582    1.3743754296
 C   -1.0765242801   -0.8223485367   -0.4001670201
 C   -0.9223037409   -2.3073055463   -0.2983506265
 N   -1.3241363922   -3.1649599271   -1.2143484700
 C   -1.0234927171   -4.4071514470   -0.7051401255
 C   -0.4342472293   -4.2938610898    0.5267060700
 N   -0.3839521616   -2.9431863075    0.7793375875
 H    0.6308121265    2.0279587740    0.6769209250
 H    0.6321118688    1.4586132207   -1.0136627681
 H   -0.8919088821    1.9200607602   -0.2651424434
 H   -2.0743790246   -0.5131976080   -0.0456196027
 H   -1.0534300877   -0.5383312859   -1.4562955517
 H   -1.2472472777   -5.3086168966   -1.2549266478
 H   -0.0531579126   -5.0197359950    1.2253702192
 H    0.0555409871   -2.4528446562    1.5441144649