15

 O    0.0446549320   -0.0968109004   -0.1705067873
 C    0.0041425663    1.0895051823    0.0241562941
 C    1.2045007870    1.9994485616    0.0486910847
 C    1.0190412271    3.2739302941   -0.8382780922
 C    0.6708876294    4.0991745446    0.4400657923
 C    1.2362673706    2.9295652322    1.3053793895
 C    1.2764112144    5.4111054285    0.5894446703
 N    1.7798680402    6.4456567757    0.7045949443
 H   -0.9705990547    1.6053154958    0.2057870783
 H    2.0991502542    1.4051056766   -0.1374525968
 H    1.9618418645    3.5890886518   -1.2868589434
 H    0.2509336659    3.2405112947   -1.6136449925
 H   -0.4111215550    4.1947448090    0.5650728480
 H    0.6339674314    2.6332391651    2.1666149161
 H    2.2580167167    3.1195362984    1.6360731146