16

 N    0.0386786045   -1.1964813159    0.0148006749
 C    0.0134832829   -0.0410562792    0.0120062167
 C   -0.0667197088    1.4082588813   -0.0420642015
 C   -0.0760962749    2.0878080301    1.3617043744
 O    1.3613670750    1.7946223786    1.4371532820
 C    1.3230484262    2.1145681299    0.0039346980
 C    1.0148243131    3.6230973538    0.0232031152
 C   -0.3711001489    4.1190090012   -0.3022967123
 C   -0.0773631838    3.6022086249    1.0830918275
 H   -0.8008517330    1.7005638816   -0.7928044001
 H   -0.6531938537    1.6945053555    2.1959411813
 H    2.1817044151    1.7487206828   -0.5551241156
 H    1.8502001402    4.3107251394    0.0585947468
 H   -0.4669795662    5.1980030604   -0.3798329896
 H   -1.0248720707    3.5914688104   -0.9863895051
 H   -0.0804457070    4.2738007654    1.9321453374