20

 C   -0.1126909522    1.5549857581    0.0397427405
 C    0.0053447234    0.0214421369    0.0097209319
 C    0.6217999475   -0.4450650482   -1.3247682730
 C    0.4259399324   -1.9237359304   -1.6751525831
 C    1.0584626610   -2.9375745022   -0.7651717035
 C    1.4718006626   -2.7923962798    0.5026143078
 C    1.3882002448   -1.6380936677    1.3939095837
 C    0.7683954674   -0.4619292957    1.2193961025
 H    0.8742014828    2.0242779266   -0.0451996569
 H   -0.7307020535    1.9201180021   -0.7862841516
 H   -0.5645031545    1.8982766138    0.9761129234
 H   -1.0164159050   -0.3861089224    0.0671484471
 H    0.1790920662    0.1482228274   -2.1339704093
 H    1.6929870209   -0.2102276634   -1.3186407312
 H   -0.6493723315   -2.1444005186   -1.7604599114
 H    0.8212117475   -2.0885184366   -2.6871709912
 H    1.1982090358   -3.9187971012   -1.2157601545
 H    1.9277726911   -3.6673651289    0.9620077856
 H    1.8804118200   -1.7862921024    2.3531170227
 H    0.8159577034    0.2455661725    2.0455559506