15

 C   -0.1494317131    1.5644973801    0.0441381216
 C    0.0136153035    0.0841584644   -0.0130025596
 C    0.0878827209   -0.7809803159   -1.0652027845
 C    0.0695201670   -0.6061285170   -2.5430081086
 C    1.4503305378   -0.8172763177   -3.1718876921
 O    1.9044055201   -0.1047911076   -4.0237829280
 O    0.2388156352   -2.0217446990   -0.5876646541
 N    0.2518072933   -1.9069698918    0.8408671356
 N    0.1186937099   -0.6920650950    1.1247052519
 H    0.7122026247    2.0366751518    0.5264397747
 H   -0.2478939799    1.9865683908   -0.9587572190
 H   -1.0388199413    1.8385190369    0.6197966433
 H   -0.6021689035   -1.3532263980   -2.9878465184
 H   -0.2908579828    0.3857849522   -2.8213752412
 H    2.0017305682   -1.7000243043   -2.7835163216