20

 C   -0.1064295622    1.4905514617    0.0406597309
 N    0.1343847142    0.0595676226   -0.0899334086
 C    0.6936128587   -0.5556945731   -1.2587405257
 C   -0.0421677086   -1.6709248749   -1.9431924966
 C    1.8146063862    0.2865370810   -1.9084184634
 C    2.5815455427    0.3149778170   -0.5531371004
 C    1.4599500139   -0.5120136811    0.0901628600
 C    1.6389515278   -1.5994852065    1.0658476299
 O    2.7144141624   -1.9649172064    1.4813944276
 H    0.6616526061    2.1347566922   -0.4070342474
 H   -1.0659772851    1.7243893134   -0.4300994422
 H   -0.1810479519    1.7354566510    1.1039949174
 H   -0.7094187541   -1.2645993206   -2.7136663227
 H    0.6508543970   -2.3598201595   -2.4364437056
 H   -0.6538590368   -2.2288003165   -1.2307979581
 H    2.3498482364   -0.2725781669   -2.6785041329
 H    1.5041228558    1.2465619999   -2.3316188578
 H    3.5155357867   -0.2470565451   -0.5808206682
 H    2.7754593045    1.2938687406   -0.1062344058
 H    0.6877297164   -2.0775184388    1.3862791395