19

 C    0.1306959588    1.3261511921    0.1757476862
 O   -0.1537873277   -0.0144124176   -0.1752728888
 C    0.5849552717   -0.5347418580   -1.2543986593
 C    0.1560177927    0.0859993562   -2.5779284590
 C    2.1340621672   -0.7838528718   -0.9937290515
 C    1.6783632817   -1.8738515481    0.0428777097
 C    0.6996585899   -2.0990826326   -1.1663232119
 C    1.9746309640   -1.9273209373   -2.0012584239
 O    2.5637591770   -2.4481537824   -2.8982255095
 H    1.1952385522    1.4692803480    0.4086674114
 H   -0.1540054541    2.0359871482   -0.6121678028
 H   -0.4578953526    1.5462558312    1.0693573872
 H    0.4104481422    1.1491338241   -2.6238102586
 H    0.6411502837   -0.4044795239   -3.4254645591
 H   -0.9278809942   -0.0075772379   -2.6948424385
 H    2.9358244084   -0.0544943962   -0.8997156472
 H    2.3871785611   -2.6729161390    0.2613939693
 H    1.1973496760   -1.4806635434    0.9344767622
 H   -0.1059921380   -2.8244217218   -1.2549117962