16

 C   -0.0788508237    1.4952784862    0.0584778146
 C   -0.0104828801    0.0015557954    0.0262903278
 C    0.0103792041   -0.8049883228   -1.0902412761
 N   -0.0133199071   -0.5513534307   -2.4795103132
 N    0.0754484705   -2.1188139487   -0.6652758510
 C    0.0957535911   -2.1810994713    0.6892711906
 C    0.0454530815   -0.8789203325    1.1606210697
 C    0.0457616788   -0.4883472781    2.5207653855
 N    0.0444272081   -0.1439085098    3.6277930816
 H    0.8056220164    1.9317511758    0.5357757376
 H   -0.1481255189    1.9015834856   -0.9547931462
 H   -0.9497595919    1.8471940444    0.6221095577
 H    0.7332006584    0.0724929188   -2.7653822119
 H   -0.8901978231   -0.1391293849   -2.7808395176
 H    0.1113188834   -2.8968413980   -1.3025139384
 H    0.1431403124   -3.1145589893    1.2245739194