15

 C    0.0018282795    1.6048676633   -0.2269574902
 C    0.1373603155    0.0810366744   -0.0487461256
 O    0.6509643299   -0.3143706485    1.2152516914
 C   -0.0611688291   -0.0757291074    2.3499976011
 O    0.3341769519   -0.4410502987    3.4127921867
 C   -1.2107514126   -0.5949069162   -0.3604022638
 O   -1.8486149573   -1.2110854644    0.4464196795
 C    1.1469929234   -0.4641446604   -1.0709960084
 O    1.0626064824   -0.2364720110   -2.2472308786
 H    0.9362949512    2.0877483884    0.0701524622
 H   -0.1872514864    1.8268689848   -1.2795620624
 H   -0.8136039897    2.0128550340    0.3750139526
 H   -0.9894194766    0.4897654690    2.1842947612
 H   -1.5379344237   -0.4511363762   -1.4099630505
 H    1.9363615518   -1.0982592612   -0.6208653851