16

 O   -0.2041054083    0.1142021943   -0.5328210700
 C   -0.0922156383    1.2010214923   -0.0878183467
 O   -1.1236116409    2.0730303138    0.3319591891
 C   -0.1191922546    2.8411093725    1.0969827838
 C    0.7244281081    4.1721950563    1.0330660651
 C    1.9515210696    3.1268498868    1.1724255025
 C    0.9795262412    2.2957881337    0.2541028453
 N    0.8965183646    3.1286382131   -0.9878233650
 C    0.7715269765    4.5071861388   -0.4503662543
 H   -0.1387521136    2.4646684126    2.1203986194
 H    0.5782176516    4.9746877696    1.7545788071
 H    2.9066626991    3.4426933287    0.7472464577
 H    2.0768658764    2.7462001795    2.1857714492
 H    1.7460622565    3.0001588789   -1.5255588340
 H   -0.1470407779    4.9868390467   -0.8041328384
 H    1.6191892500    5.1507110225   -0.7101591508