24

 C   -3.0203675766    1.4500204621   -0.6653003876
 C   -2.9821945290   -0.0800367573   -0.6021000070
 C   -1.7459096285   -0.5992880426    0.1423628808
 C   -1.5182133269   -2.1062664463    0.1572270929
 C   -2.6207111060   -3.0573618375   -0.1331711741
 N   -1.5167361160   -2.8775520602   -1.0998480051
 C   -0.4215461846   -2.5897572556    1.1119113446
 C    0.9705664667   -2.0872737364    0.7319597499
 O   -0.7463793622   -2.2850887909    2.4674948007
 H   -3.9152332780    1.8041050648   -1.1859785631
 H   -3.0249633234    1.8859695166    0.3397632622
 H   -2.1467667473    1.8473381941   -1.1937018596
 H   -3.8898325006   -0.4445868502   -0.1080818013
 H   -3.0060591791   -0.4791733063   -1.6252430147
 H   -0.8546611891   -0.1174722127   -0.2841036738
 H   -1.8053820008   -0.2607506279    1.1849443634
 H   -2.6417325072   -4.0238905910    0.3635194183
 H   -3.5994802447   -2.6672680063   -0.3928995253
 H   -1.8332150077   -2.2954470938   -1.8719052964
 H   -0.4179238772   -3.6836569696    1.0540303595
 H    1.0437000957   -0.9963582580    0.8220171394
 H    1.7238336358   -2.5308943172    1.3890763955
 H    1.2018498928   -2.3586188413   -0.3016790995
 H   -0.4110644359   -1.4047181366    2.6632322305