17

 O   -0.1260954576    1.3920211860   -0.0274110791
 C    0.0033991973    0.0160429966    0.0058407289
 C    0.5856939875   -0.8953449811    1.1274226707
 C   -0.7949558158   -1.5765085170    1.2781410597
 C   -1.3155909537   -0.8075011851   -0.0036569424
 C   -1.2520095222   -1.5919058939   -1.2883344553
 C   -0.0280847918   -1.5793776549   -1.8261261453
 C    0.9162214358   -0.7879941207   -0.9617400735
 O    1.4465537598   -1.5559684470    0.1764260888
 H    0.7516270246    1.7867432610    0.0280256116
 H    1.1216225745   -0.5687601247    2.0218195945
 H   -0.7965879005   -2.6662923104    1.2272416002
 H   -1.3100819053   -1.2468280745    2.1848699585
 H   -2.2373141916   -0.2443146501    0.1496185870
 H   -2.1017972975   -2.1393598249   -1.6823368598
 H    0.2752000267   -2.1010451136   -2.7259448816
 H    1.7297893797   -0.2724944658   -1.4833411030