18

 O   -0.0232051011   -0.1607443091   -0.0752877786
 C   -0.0084443697    1.0536864339   -0.0239618393
 C   -1.3421248969    1.8059278849    0.0106818443
 C   -1.4491548298    3.3320937139   -0.0515853471
 O   -1.2631742090    3.9904474936    1.1861203612
 C   -0.0225476811    3.6971763027    1.8259094291
 C    1.1726409807    3.9185424618    0.9497928171
 C    1.6735301230    3.0031880631    0.1155937267
 N    1.2200155362    1.6979153898   -0.1052153575
 H   -1.8766028741    1.3946414266   -0.8534350315
 H   -1.8844647464    1.4343473493    0.8871970157
 H   -0.7764497929    3.7330559379   -0.8223976225
 H   -2.4708781850    3.5883589634   -0.3477813587
 H    0.0083289406    4.3556921587    2.6975516689
 H   -0.0221226217    2.6598229728    2.1960786165
 H    1.6355616715    4.8994536580    0.9472751373
 H    2.5611956331    3.2321072778   -0.4688080671
 H    1.9400749029    1.0171443112   -0.3116230544