24

 C    1.2466982370    1.4744093730   -0.9663814326
 C    0.2956887012    0.3427878754   -0.5344173882
 C    0.4005455598    0.0852337461    0.9766690499
 C   -1.1487704656    0.7732568525   -0.8635755872
 N    0.4817354319   -0.9389802121   -1.2531656745
 C    1.3667696243   -1.1477539171   -2.3861031362
 C    1.5254393381   -1.9434429100   -1.1335970140
 C    2.8069275052   -1.9184238979   -0.3107091431
 O    3.5887922209   -0.7361823244   -0.3930067480
 H    2.2960154561    1.2001382829   -0.8512081584
 H    1.0841217677    1.7375230440   -2.0163501952
 H    1.0537898208    2.3719491102   -0.3693205777
 H    0.0394382492    0.9524994048    1.5378547866
 H   -0.2044151556   -0.7814505549    1.2592422885
 H    1.4305569465   -0.1038230448    1.2954822036
 H   -1.2737189275    0.8819455031   -1.9452154998
 H   -1.8600492646    0.0181609646   -0.5185125771
 H   -1.3935385509    1.7316610128   -0.3924445965
 H    0.9212657828   -1.5825433331   -3.2796782702
 H    2.1516518136   -0.4188575032   -2.5774268939
 H    1.1165587568   -2.9578909631   -1.1211280773
 H    2.5791451914   -2.1669218335    0.7350073560
 H    3.4341066553   -2.7343685344   -0.6938707272
 H    3.3705123756   -0.1750403308    0.3553620424