20

 C    0.0735858236    1.4084019257   -0.2474087441
 C   -0.0235115806   -0.0644392489    0.1524367448
 O    0.6027282765   -0.3155986028    1.4098038592
 C   -1.4472410997   -0.5527077990    0.1537678166
 C   -2.5642239157   -0.2299229408    1.1532793606
 C   -3.3711585243   -1.3448697287    0.4343734900
 C   -3.5393825547   -0.7611709475   -0.9765845526
 N   -2.0577120987   -0.8736795480   -1.1894301383
 C   -1.9980909105   -1.9025769232   -0.1072071293
 H    1.1171509999    1.7341984865   -0.2423204511
 H   -0.3432151534    1.5603451006   -1.2468441900
 H   -0.4872053989    2.0411668230    0.4523723565
 H    0.5354177651   -0.6688951466   -0.5700558414
 H    0.2440957795    0.3141629408    2.0443482648
 H   -2.2661997482   -0.5306894651    2.1611389409
 H   -2.9998500438    0.7759761402    1.1739836857
 H   -4.1590044551   -1.8903029037    0.9502399773
 H   -4.0374720946   -1.4376517309   -1.6759315830
 H   -3.9550354546    0.2491961640   -1.0758033737
 H   -1.5501896318   -2.8818499357   -0.2142923828