17

 O   -0.1052562240    1.5001548671    0.0625911297
 C   -0.0050861584    0.0836286216    0.0185727336
 C    0.5468376548   -0.5137833844    1.3328713468
 O   -0.5822874153   -0.8348813172    2.1559639311
 C   -1.7194714416   -0.9014480596    1.4069096465
 O   -2.7720637066   -1.2530539266    1.8592314137
 C   -1.4026282629   -0.4888799570    0.0053249579
 C   -2.5153954608    0.0335014565   -0.8677023388
 C   -1.9731362635   -1.3340843559   -1.1233925699
 H    0.7852210582    1.8659243939    0.0902668684
 H    0.5986027525   -0.2370734694   -0.8407256104
 H    1.1215647201   -1.4293693043    1.1496562535
 H    1.1714122310    0.2000883128    1.8760581034
 H   -3.4860397075    0.1126653686   -0.3916193909
 H   -2.2542064334    0.8376221994   -1.5447385680
 H   -1.3379314175   -1.4914761709   -1.9884589653
 H   -2.5744390153   -2.1857861845   -0.8263953713