18

 C   -0.0682239123    1.6308899830   -0.0842124108
 C    1.4024678764    1.2086905961   -0.0383636142
 N    1.1142340150    0.1442147758    1.0455574305
 C   -0.0745507880    0.1043770682    0.0138539543
 C    1.1905004270   -0.0828037914   -0.8996594351
 C    1.8890874915   -0.3292021730   -2.2256807493
 C    3.2687832519   -0.6890722003   -1.6402931791
 C    3.2700039222   -0.9328941824   -0.3177712690
 C    1.8447778404   -0.9106795887    0.1741787573
 H   -0.4369990716    2.1665378591    0.7941251022
 H   -0.4387152019    2.0680800938   -1.0143509288
 H    2.3005971151    1.8247083693    0.0194199552
 H   -0.9002711474   -0.5943059001    0.1581211811
 H    1.4782954835   -1.1674765071   -2.8046805435
 H    1.9277463365    0.5411675092   -2.8893454520
 H    4.1468421798   -0.7523437357   -2.2755505890
 H    4.1432763791   -1.2302240460    0.2518790215
 H    1.4581781528   -1.9148444599    0.3935731887