19

 C   -0.0544288023    1.6068379883   -0.1023211475
 C    1.4359110875    2.0245625519    0.0605890861
 C    2.1747382068    0.7122901948    0.3707111549
 C    1.8148497176    0.1363634049    1.7574760959
 O    2.4137780708   -1.1895511680    1.7270085019
 C    1.3645598964   -1.4861099238    0.7946972421
 C    0.3921709538   -0.4635841993    1.4217327459
 C   -0.0048965750    0.0824394806    0.0315922858
 C    1.4142511332   -0.4209304289   -0.3797226219
 H   -0.7029040209    2.0573176135    0.6564166153
 H   -0.4479142316    1.9090335136   -1.0780033657
 H    1.8210546321    2.4657358670   -0.8639300478
 H    1.5847340829    2.7685784627    0.8503431729
 H    3.2542934178    0.7493119111    0.2186014193
 H    2.0447034379    0.7063062752    2.6575803262
 H    1.1888403109   -2.5425005038    0.5991857138
 H   -0.2962286473   -0.6794856595    2.2371859879
 H   -0.8449811828   -0.4613761233   -0.4049935855
 H    1.6896920621   -0.6603904470   -1.4050911797