21

 C    0.1387906496    1.6161904505    0.0399532316
 C   -0.0624692268    0.0986563225   -0.0268171032
 C    0.6455460327   -0.5349498007   -1.2157666492
 C    2.1984224990   -0.5505894332   -1.2670453289
 C    2.1254147868   -1.9455006104   -1.9381345887
 O    3.0746380112   -2.9245453825   -1.6503279598
 C    0.6553646539   -2.1004344166   -1.3813718302
 C    0.6384731626   -2.8508570422   -0.1415035033
 C    0.7040365834   -3.4903947037    0.8774548832
 H    1.1998524128    1.8724346058    0.1303069410
 H   -0.2448045632    2.1093994685   -0.8603610700
 H   -0.3812779722    2.0458411710    0.9015335072
 H    0.2993178455   -0.3662987736    0.8975549056
 H   -1.1351744809   -0.1286264739   -0.0828042123
 H    0.2519200845   -0.1096649880   -2.1462814958
 H    2.7143139089    0.2479250861   -1.8041938616
 H    2.6218274961   -0.6344107862   -0.2600070827
 H    2.0911245049   -1.8548102154   -3.0275263099
 H    2.9441221264   -3.1939729846   -0.7314654419
 H   -0.0784877222   -2.5129934795   -2.0796762681
 H    0.7145084569   -4.0536121738    1.7779481269