20

 C   -0.2974824318    1.5854165811    0.0596346245
 C   -0.0084572480    0.0941298014   -0.0118312700
 C    0.7651126724   -0.5145028782   -1.2129099174
 C    1.9727649058    0.2365429168   -1.8235013696
 C    2.8492542058   -0.4544852447   -0.7225835697
 C    3.1866691822    0.4078265251    0.4600139764
 C    2.2081010202    0.3636697472    1.3636597121
 C    1.1036111633   -0.5462062091    0.9058926903
 N    1.6713694878   -1.2906291252   -0.2791848399
 H    0.6171427407    2.1816366758   -0.0073030239
 H   -0.9620027087    1.8937515511   -0.7552258790
 H   -0.7919349863    1.8428831191    1.0029912079
 H   -0.9450184998   -0.4588353511    0.1152078585
 H    0.1619961911   -1.0917893487   -1.9196087879
 H    2.2028463127   -0.0929267140   -2.8397426890
 H    1.9522129448    1.3283617064   -1.8058763069
 H    3.6941735585   -1.0381889928   -1.1016715258
 H    4.0920651653    1.0004837176    0.5236096017
 H    2.1765458176    0.9139619167    2.2968929576
 H    0.7178654864   -1.1933652747    1.7007409701