13

 N    0.0293070121    1.3138267020    0.1517391553
 C   -0.0536991362   -0.0470972374    0.0508163201
 N   -1.1392654387   -0.7757366185    0.0217748844
 C   -0.6010394702   -2.0385837043    0.0101241209
 C    0.7523759305   -2.0367617803    0.0209385960
 O    1.1481896682   -0.7151348038    0.0491288460
 C    1.1980002931   -3.3839018386   -0.0211645963
 C    0.0281037683   -4.0997397875   -0.0490087105
 O   -1.0936352672   -3.2888206681   -0.0321545992
 H    0.8616422030    1.7224159017   -0.2469725016
 H   -0.8253373640    1.7862965116   -0.1019932956
 H    2.1940806807   -3.7945138068   -0.0257514596
 H   -0.1753020896   -5.1561545400   -0.0753246998