18

 C   -0.1419914962    1.4850252858   -0.1803307850
 N   -0.1783215552    0.0363826166   -0.2575101618
 C   -1.1790035479   -0.7113731209    0.2659532031
 O   -2.1445038446   -0.1906593121    0.8559949246
 C   -1.0797941169   -2.1723976176    0.1091205934
 C   -1.6891211924   -3.0251568863    1.2612194884
 O   -2.1351456297   -2.4315974402    2.4242781217
 C   -2.4297704876   -2.9368881409   -0.0284983885
 O   -3.6213819217   -2.2544470979   -0.1637613827
 H    0.7486877841    1.8285515618    0.3563652468
 H   -0.1463730892    1.9334987123   -1.1795120987
 H   -1.0314851576    1.8082655961    0.3598895963
 H    0.5748037699   -0.4414472800   -0.7237968451
 H   -0.2128756247   -2.5616765838   -0.4153156841
 H   -1.1544782230   -3.9464518478    1.4734000715
 H   -2.3874224070   -1.5180420882    2.2061067675
 H   -2.3962910596   -3.7984370952   -0.6889955078
 H   -3.5075227406   -1.3847116918    0.2562424806