20

 C    0.1217418372    1.5293670362   -0.2019950385
 C   -0.0776837078    0.0527297519    0.1019279557
 N   -0.5710911395   -0.2944342546    1.4663414055
 C    0.8277468602   -0.5592762113    1.1157564006
 C    1.3049456632   -1.9987744865    1.1397026127
 O    0.3803806062   -2.9475463771    0.6761189085
 C    0.2681344148   -3.0491169210   -0.7269830901
 C   -0.5228113009   -1.9635132375   -1.4082343919
 C   -0.6736864769   -0.6906831745   -1.0457607217
 H    0.7741039171    1.6713904475   -1.0705318929
 H   -0.8368850519    2.0115834585   -0.4273860775
 H    0.5735125514    2.0517264519    0.6472047080
 H   -0.6417705733    0.5512120684    2.0293331542
 H    1.5844731291    0.1159339631    1.5216248919
 H    2.2546660618   -2.0692949142    0.5800575419
 H    1.5157485076   -2.2715135510    2.1810263026
 H    1.2731386671   -3.1230886397   -1.1839856221
 H   -0.2272977554   -4.0091627670   -0.9116944513
 H   -1.0347260069   -2.2924405078   -2.3114276315
 H   -1.3080172131   -0.0704323353   -1.6779845939