22

 C    0.1285745683    1.5610547838    0.0536984166
 C    0.0024598298    0.0348014353   -0.0077717858
 C   -1.4422644334   -0.4902013378   -0.0200032038
 C   -2.2196680862   -0.1124332793   -1.2971889342
 N   -3.5844069781   -0.6370846502   -1.3501507143
 C   -3.6379956338   -2.0962627911   -1.2079995569
 C   -2.8730585582   -2.6060253222    0.0134088177
 O   -3.3470125376   -3.3909315027    0.8024533847
 C   -1.4738471191   -2.0255910926    0.1593430523
 H    1.1783298420    1.8618727120    0.1238690072
 H   -0.2906119992    2.0456262899   -0.8334014940
 H   -0.3905587068    1.9650307400    0.9301024663
 H    0.5257285206   -0.3445573464   -0.8966526515
 H    0.5217007486   -0.4012473758    0.8550819522
 H   -1.9754006030   -0.0422137745    0.8329995785
 H   -2.2729410743    0.9747530510   -1.4079060583
 H   -1.6783589318   -0.4946031833   -2.1756817815
 H   -4.1374437068   -0.2123694078   -0.6112541642
 H   -4.6759491105   -2.4311299714   -1.1439810147
 H   -3.1950828297   -2.5452512143   -2.1096970741
 H   -0.8496157889   -2.4803577257   -0.6256951412
 H   -1.0641055617   -2.3334379970    1.1254312689