17

 O   -0.2863326494    1.3419317063   -0.2090338654
 C    0.0185789975    0.0038581968    0.0164816700
 C   -1.2247869095   -0.8794947056    0.1899598235
 O   -0.6716542679   -1.5055938932    1.3725470392
 C    0.4812656814   -0.6563983992    1.3631579286
 C    1.7322504300   -1.2499603913    0.6220698796
 O    1.5732286479   -2.5704032259    0.0847897188
 C    1.2277197864   -2.0501715721   -1.2211618640
 C    1.2707917133   -0.5974087762   -0.7081716415
 H    0.5323869838    1.8430787790   -0.2868211724
 H   -2.1115368280   -0.2799037155    0.4275786126
 H   -1.4703646823   -1.6028133162   -0.5936730727
 H    0.6496856424   -0.1364252166    2.3111337523
 H    2.7061552556   -1.0921881579    1.0955878734
 H    2.0098593658   -2.2787626864   -1.9557070446
 H    0.2718867709   -2.4376755418   -1.5891024734
 H    1.8628027123    0.1233479857   -1.2749663940