12

 O   -0.1615923304    1.4613289809   -0.0086227936
 C   -0.0457622451    0.1082256577    0.0062531828
 C   -0.2517690269   -0.7947489575   -1.2108752706
 C   -1.1232222712   -0.9770489146   -0.0041691390
 O   -0.3922728197   -1.7548334976    0.9773278887
 C    0.5593902264   -0.7374415813    1.1201686596
 O    1.4492123305   -0.6823956864    1.8948291763
 C   -2.5395987556   -0.9030004167    0.0719955087
 N   -3.6932154052   -0.8323754668    0.1113839650
 H    0.4470003180    1.8314323148   -0.6583034260
 H   -0.7148462432   -0.2776494721   -2.0465739254
 H    0.4524151925   -1.5812303503   -1.4620362365