16

 C    0.0544444097    1.5812137487   -0.1563432644
 C   -0.0299026053    0.0937133228    0.0685217330
 O    1.1841612189   -0.6864550492    0.0058897001
 C    0.5189638781   -0.6145650102    1.2520283221
 C    1.2172849840    0.1159168132    2.3897450231
 C    2.1219508407   -0.7689739562    3.1242635197
 N    2.8248297025   -1.4783747637    3.7044801667
 C   -1.1787699894   -0.6104422544   -0.6033216021
 O   -2.1175340895   -0.0426125575   -1.0960624120
 H    0.9230671573    2.0214484355    0.3339211828
 H    0.1234605345    1.7889831151   -1.2276156131
 H   -0.8539870493    2.0651935196    0.2119479554
 H    0.0388570223   -1.5455814936    1.5592416188
 H    1.7881719334    0.9642373684    2.0055041524
 H    0.4685590344    0.5073338800    3.0887901324
 H   -1.0750788724   -1.7177931285   -0.6101393648