22

 C   -0.0309795595    1.6010957465   -0.0734333491
 C   -0.0260500981    0.0723715956   -0.1502742950
 C   -1.4023969188   -0.5490492698    0.1356499638
 C   -1.3959723864   -2.0510341197    0.0983042946
 C   -1.5378248453   -2.8827155909   -1.1504370301
 C   -2.5512376495   -3.0360487012   -0.0415988755
 C   -1.9875292484   -3.8446111959    1.1616090776
 N   -0.6103691342   -4.3032618856    0.8377264265
 C   -0.8563359684   -2.9098678662    1.2926061665
 H    0.9599229726    2.0154990331   -0.2840222021
 H   -0.7322961505    2.0318847760   -0.7970946778
 H   -0.3320367662    1.9478286905    0.9216677185
 H    0.3107688692   -0.2505269992   -1.1429455688
 H    0.7067029690   -0.3293217930    0.5617926415
 H   -1.7560773128   -0.2057118392    1.1193002529
 H   -2.1311708521   -0.1742440773   -0.5953726631
 H   -1.9047716719   -2.3309306379   -2.0112956909
 H   -0.8443950089   -3.6831751389   -1.3741710134
 H   -3.6041656110   -2.8199481500   -0.1717114910
 H   -2.5781306999   -4.3413632321    1.9202419396
 H   -0.2743676457   -4.8233731582    1.6480414840
 H   -0.3710423932   -2.5123169166    2.1753726114