20

 C   -0.0578978922    1.5622589106   -0.2039212649
 C   -0.0487960816    0.0494503845    0.0616489775
 C   -1.4264245743   -0.5308802682    0.1129601109
 N   -2.4275396190   -0.1261029977    0.8751146559
 C   -3.4482610925   -0.9781166622    0.5513844015
 C   -4.8065837231   -0.8923973018    1.1706981340
 C   -5.5108012202    0.4398938805    0.8706031435
 N   -3.1356877959   -1.8820242614   -0.3660708811
 N   -1.8391180721   -1.5779377800   -0.6330937473
 H    0.9589977051    1.9638843216   -0.1766985323
 H   -0.4895450431    1.7871585625   -1.1838302051
 H   -0.6572961917    2.0734158116    0.5527482102
 H    0.5353741582   -0.4711612779   -0.7060654441
 H    0.4482666412   -0.1486170562    1.0188715633
 H   -5.4018443642   -1.7342782623    0.8061300767
 H   -4.7058200944   -1.0101436686    2.2563155282
 H   -6.4819856724    0.4864283461    1.3724211163
 H   -4.9031851549    1.2808454199    1.2153595648
 H   -5.6771202457    0.5612523866   -0.2043974933
 H   -1.3267498373   -2.1180237877   -1.3107455548