12

 O    0.0295003958   -0.0594956051   -0.0767050870
 C    0.1263186373    1.1109304650   -0.2685773247
 O    0.9425847347    1.9011730787    0.4846783014
 C    0.9248701262    3.2529691448    0.2307111761
 C    2.0244356203    4.0201145804   -0.0928245101
 N    1.5545255880    5.2865594421   -0.1897534885
 N    0.2356863885    5.3942845203    0.0425780682
 C   -0.1601891413    4.1519419893    0.3074322595
 H   -0.4054832882    1.6856531042   -1.0479479201
 H    3.0592170105    3.7613411268   -0.2431626068
 H    2.0786557525    6.1183049401   -0.4033950625
 H   -1.1917718543    3.9445463334    0.5489238646