19

 O   -0.1876033153    1.4854123309    0.2608881973
 C   -0.0414982774    0.1158734937    0.0209844572
 C   -0.5387295505   -0.8721170179    1.0440202632
 C   -1.3028795197   -0.6605017462   -0.2524646694
 C   -2.6202528067    0.0519120801   -0.2456947197
 C   -3.5707027088   -0.0612700164   -1.3873902087
 C   -3.9524660501   -0.6838471481   -0.0467533569
 C   -3.9882500226   -2.1559818172    0.0639707320
 O   -4.7377234381   -2.7719448875    0.7826952342
 H    0.4164570120    1.7296673885    0.9695128459
 H    0.8423621699   -0.1507984145   -0.5580405501
 H    0.0014158401   -1.8008515196    1.1916682499
 H   -0.9853094774   -0.4555821864    1.9412265237
 H   -1.2052536805   -1.4480553564   -0.9934778153
 H   -2.5830609162    1.0145409503    0.2520710203
 H   -4.1330107738    0.8083200698   -1.7070358788
 H   -3.3184044957   -0.7507082986   -2.1881350400
 H   -4.7058430448   -0.1808460984    0.5497588356
 H   -3.2592203045   -2.6894124261   -0.5900670104