20

 C   -0.0710569717    1.5211284075    0.0500724942
 C    0.0316911763    0.0277802012    0.0057465006
 C   -0.0139599444   -0.8503751229   -1.2261342272
 C    1.0324964759   -1.9393555848   -1.0955264003
 N    1.0607416682   -2.1574283350    0.3576970771
 C    0.7737330956   -0.8768981492    1.0360609238
 C   -0.2846101446   -1.9197936223    0.9191362426
 C   -0.8983904635   -2.8725290951    1.8943568421
 C   -1.0383195773   -1.0421745043   -0.1273418927
 H    0.9041820204    1.9940306658   -0.1195684363
 H   -0.7569115043    1.8913378939   -0.7187713162
 H   -0.4430101880    1.8703365450    1.0202933864
 H   -0.3122270024   -0.4284625874   -2.1788877768
 H    0.7544761861   -2.8686805293   -1.6039329913
 H    2.0238364929   -1.6291059467   -1.4427650390
 H    1.3929840986   -0.5549472265    1.8655569104
 H   -1.6630189605   -2.3761224301    2.5017972065
 H   -1.3761332528   -3.7129555406    1.3764240091
 H   -0.1333384046   -3.2771212957    2.5621817493
 H   -2.1088480597   -0.9403110035   -0.2432309423