18

 O   -0.5875692688    0.7212100987    0.7022487436
 C    0.0910153074    1.0175549288   -0.2468758020
 C    1.3310615438    1.8910672769   -0.1728256789
 C    1.2894467809    3.0143447720   -1.1785529076
 C    0.2497740866    4.1337155422   -1.3359219700
 C    1.1919446974    4.2630794571   -2.5323439428
 C    2.4687102672    3.8893965369   -1.7230144393
 C    2.7810455460    2.8129123964   -2.7540864794
 N    1.2581713347    2.7223470802   -2.7175719673
 H   -0.1507277756    0.6585714148   -1.2704289669
 H    1.4321381072    2.2764400931    0.8463883036
 H    2.1996505312    1.2498455128   -0.3827217299
 H   -0.7736963406    3.8183256373   -1.5573778270
 H    0.2753571565    4.9358361890   -0.5941069476
 H    1.1312829086    4.9130177270   -3.4062462350
 H    3.1271877995    4.5552210834   -1.1547609897
 H    3.1708449771    3.1302018328   -3.7265343759
 H    3.2880554109    1.8998194006   -2.4251560380