18

 O    0.2865835320    0.8575287354   -0.8046925266
 C   -0.0262495832   -0.2252031273    0.0367245755
 C   -0.0103273214    0.0070702137    1.5790773900
 C   -1.3998139947   -0.6320056855    1.6238361216
 C   -1.8587740055   -1.7232076306    2.5087793176
 N   -2.4831699189   -0.3859566314    2.5686834943
 C   -1.5565937408   -0.5346567750    0.0924171048
 C   -2.4264061994    0.6290142287   -0.3327556946
 O   -3.2845229191    0.5497210614   -1.1722818381
 H    1.2395945477    0.9913725505   -0.7961325663
 H    0.5360727470   -1.1262688927   -0.2390312269
 H    0.7893027643   -0.4621748757    2.1584826862
 H   -0.0399338843    1.0795661312    1.8005525954
 H   -2.5018585526   -2.5090818660    2.1213509513
 H   -1.2004403831   -2.0307031289    3.3180442441
 H   -2.1375326522    0.1295903041    3.3749379726
 H   -1.8876350834   -1.4295729293   -0.4367958401
 H   -2.2308194625    1.5825961274    0.2020683792