21

 C   -0.2915147002    1.5475229424   -0.1265615790
 C   -0.3522189415    0.0521528574    0.0870370086
 C   -1.7227370940   -0.5860798803   -0.0553772966
 O   -2.7229218814    0.0363453827    0.7364115746
 C   -2.8513156291   -0.4812523690    2.0298084655
 C   -2.0140207940    0.0508525111    3.1604334884
 C   -3.4802068477    0.4195186608    3.0431513970
 C    0.8339091622   -0.7810848042   -0.1605408164
 O    0.4459317858   -0.4483660339    1.1733041646
 H    0.7154955306    1.9213733976    0.0718451227
 H   -0.5654926032    1.8023472553   -1.1562649236
 H   -0.9961739571    2.0540675064    0.5379547078
 H   -2.0556632374   -0.4811643411   -1.0955317443
 H   -1.6503921175   -1.6573242056    0.1770037822
 H   -3.1124028607   -1.5400313070    2.0483147598
 H   -1.7056945114   -0.6399473246    3.9374185508
 H   -1.2827082950    0.8128449311    2.9226496499
 H   -3.7116803240    1.4252537314    2.7110873718
 H   -4.1920855250   -0.0024982908    3.7435405908
 H    0.7203079189   -1.8304165777   -0.4327244032
 H    1.7507918817   -0.3114142219   -0.5151525314