17

 C    0.1176720066    1.4641930284    0.2765897432
 O    0.9839912678    2.2633938432   -0.5148774609
 C    2.1671355761    1.6281189696   -1.0090266675
 C    1.7006692121    0.5202449664   -1.9409907884
 C    2.4766649392   -0.7622831733   -2.3351873288
 O    2.7893405111   -1.5060774326   -1.1586954437
 C    1.4463791426   -1.6152651491   -1.6937928530
 C    0.7514687530   -0.3847212680   -1.1684407484
 C    0.0183967696    0.0147813986   -0.1421354584
 H    0.4419452166    1.4793333293    1.3333972548
 H   -0.8565698108    1.9675898732    0.2409220353
 H    2.7361011425    2.4212723963   -1.5015084915
 H    2.7722222130    1.2061579356   -0.1940593859
 H    1.2200011130    0.9438477631   -2.8307363267
 H    3.0871825268   -0.9390072001   -3.2129783540
 H    1.0918309482   -2.6108537978   -1.9287942088
 H   -0.5593088272   -0.6542215829    0.4896763027