17

 O   -0.1311114425   -0.0045316074    0.0643096964
 C   -0.0200686210    1.1994873020    0.1210212269
 C    1.2588951917    1.9260109825    0.0307972865
 C    1.2481324916    3.2697961525    0.0530325725
 C    2.4981229873    4.0502743096   -0.0626728859
 O    3.5881614496    3.6684361448    0.8087248275
 C    3.6999864302    3.3539161994   -0.5739510320
 C    3.5824548791    1.8962420014   -0.9595017604
 C    2.5436081879    1.1504620454   -0.0988468815
 H   -0.9115751022    1.8554174617    0.2412721289
 H    0.3076512446    3.8099690879    0.1328111407
 H    2.4055462783    5.1251764836   -0.1977737514
 H    4.4380923334    3.9460090466   -1.1161939069
 H    3.3024884048    1.8529315384   -2.0201792649
 H    4.5576776432    1.4057160315   -0.8708239013
 H    2.9605843112    0.9886066763    0.9012681527
 H    2.3279905926    0.1617301538   -0.5112547079