20

 C    0.0790294861    1.5332247580   -0.2222804387
 N    0.0520694040    0.0826199024   -0.0670357945
 C   -1.0925574288   -0.4689321543    0.7198439936
 C   -0.2544521537   -1.7063495621    1.1634852071
 C    0.6717078925   -0.4513844315    1.1841752370
 C   -0.5277414278   -0.0763290131    2.1384009560
 C   -0.6374419972   -1.5205859798    2.6496983486
 C   -1.9856044595   -2.0372235969    3.1283759940
 O    0.3861227962   -1.8075473584    3.5887332743
 H    1.0771740283    1.8392032246   -0.5533467647
 H   -0.6329628346    1.8251052502   -1.0017189963
 H   -0.1653160171    2.0974866272    0.6937994591
 H   -2.1248846274   -0.4412339283    0.3679628249
 H   -0.0933284817   -2.6115552430    0.5773645694
 H    1.7393574849   -0.4057450018    1.3934241734
 H   -0.6838145023    0.8423397339    2.7030206739
 H   -2.7908927702   -1.7807939408    2.4338425471
 H   -1.9702994102   -3.1305923340    3.2239615543
 H   -2.2262322863   -1.6185234820    4.1105376429
 H    0.3581484547   -2.7498190003    3.7858713886