20

 C    0.1856732320    1.5716430332   -0.0012900347
 C   -0.0509345548    0.0594046061   -0.0701691473
 N    0.8310608172   -0.5326147134   -1.0661839326
 C    0.5387740614   -1.9218775038   -1.4023381517
 C    1.4167569595   -2.8814995194   -0.6022749511
 C    1.3769251830   -2.7283572251    0.8856623728
 C    0.8375484790   -1.7755199791    1.6582463527
 C    0.0784905087   -0.5418639008    1.3421997786
 O   -0.4873623072    0.0288501520    2.2586602294
 H    1.2392358596    1.7815137334    0.2067455602
 H   -0.0782963485    2.0447449842   -0.9531241779
 H   -0.4255642389    2.0043608731    0.7906332907
 H   -1.1178570947   -0.1066520867   -0.3248189413
 H    0.7975688882    0.0405504756   -1.8997852503
 H   -0.5248720759   -2.1678121361   -1.2354456370
 H    0.7338970112   -2.0810294973   -2.4679284539
 H    1.1527964020   -3.9190393584   -0.8518587149
 H    2.4630145362   -2.7606709461   -0.9200103875
 H    1.8758643840   -3.5385978097    1.4173178773
 H    0.9077120477   -1.8997873715    2.7362559686