21

 C    0.1836780708    1.3677454062    0.2184732643
 C   -0.0520546772   -0.1352344404   -0.0145425442
 C   -1.5042978528   -0.5056725605   -0.0879582326
 C   -2.1803994132   -0.9615663793   -1.1438736137
 C   -3.6380384612   -1.2201556375   -0.8579491885
 C   -3.7450732666   -1.0812321492    0.6736697304
 O   -3.8256606127   -2.3883435535    1.2281726966
 C   -2.4131240494   -0.3840652148    1.1218336085
 O   -1.8713584813   -0.9609556732    2.3057919234
 H    1.2545130740    1.5897188248    0.2561172407
 H   -0.2591890189    1.9639246373   -0.5857246395
 H   -0.2564468211    1.6968803345    1.1647656779
 H    0.4504243520   -0.4488865997   -0.9362621872
 H    0.4153510719   -0.6910427363    0.8084069780
 H   -1.7487624726   -1.1168614238   -2.1279812866
 H   -4.2831597498   -0.4938872632   -1.3690331651
 H   -3.9723964309   -2.2150809735   -1.1715886149
 H   -4.6222040020   -0.4928709522    0.9731909356
 H   -3.8126718511   -2.2777732978    2.1862700683
 H   -2.5939892949    0.6648715999    1.3852296606
 H   -1.6959667132   -1.8854647077    2.0892422881