18

 O    0.1112904397    1.4458829260    0.0126243171
 C    0.0836255178    0.0222188271   -0.0188068260
 C    0.1970023435   -0.5896975635    1.4286556831
 C   -1.3791587335   -0.6110869101    1.4945900537
 C   -1.3282539443   -0.4982590972   -0.0116970994
 C   -1.6868749344   -1.0521592200   -1.1634231073
 C   -0.5681145353   -0.8716205469   -2.1888390017
 C    0.6887066863   -0.5740397174   -1.3072048146
 H    1.0135731361    1.7114970691    0.2214196610
 H    0.6186586169   -1.5975744584    1.4280218322
 H    0.7084147019    0.0290462634    2.1712532145
 H   -1.8661300200   -1.4889288640    1.9248038104
 H   -1.7616767767    0.2894520600    1.9830591835
 H   -2.5822969033   -1.6292129199   -1.3669736322
 H   -0.4327092301   -1.7729395304   -2.7965291629
 H   -0.7774691903   -0.0534488100   -2.8904298547
 H    1.3980045996    0.1059750704   -1.7880886635
 H    1.2104439861   -1.5125269882   -1.0924227332