18

 C   -0.1470568237    1.5861370822   -0.0654433775
 C    0.0231864159    0.0746754110   -0.0350674912
 O   -1.2143483306   -0.5458593642   -0.3170997988
 C    1.2040938445   -0.6686523179   -0.7232366714
 C    2.1680521430   -0.1335680627    0.3631401604
 C    0.8898822034   -0.6369393774    1.0924224988
 N    0.9963626616   -1.8699481790    0.1912873871
 C    0.5996730556   -0.6983666636    2.4937273462
 C    0.3105300944   -0.7170027920    3.6617712282
 H    0.7813357388    2.1357131400    0.0914284223
 H   -0.5712449840    1.8868215851   -1.0281237228
 H   -0.8471072653    1.8964138852    0.7203658703
 H   -1.8627183708   -0.2250471554    0.3192025190
 H    1.3882758238   -0.7893040209   -1.7907403861
 H    3.0381015371   -0.7664389073    0.5303038140
 H    2.4030426895    0.9281326853    0.3943839603
 H    0.0478053547   -2.2209969715    0.0375665474
 H    0.0733779722   -0.7451452469    4.6965746937