20

 C   -0.0150170063    1.5807998366    0.0211416191
 C    0.0337952592    0.0498702983   -0.0030226674
 C    0.7048794058   -0.5036239526   -1.2774166778
 N    0.7693734120   -1.9656135246   -1.3314733628
 C    1.4577761900   -2.5430162304   -0.1691713318
 C    0.8532959488   -2.0528175432    1.1436206215
 O    0.4839842141   -2.7846818420    2.0337601298
 C    0.7382020870   -0.5238528214    1.2388139251
 O    2.0596693254    0.0225136938    1.2834016115
 H    0.9941311699    1.9999190660    0.0324054889
 H   -0.5392438075    1.9655944191   -0.8595603199
 H   -0.5405138272    1.9451667730    0.9100019994
 H   -0.9952682320   -0.3382478100    0.0224227709
 H    0.1667551806   -0.1501332181   -2.1632998848
 H    1.7282413810   -0.1158656154   -1.3448520760
 H   -0.1730234812   -2.3437195923   -1.3774026509
 H    1.4077106689   -3.6337966089   -0.2027145064
 H    2.5118257532   -2.2416842699   -0.2101183007
 H    0.1791171497   -0.2760601958    2.1513990368
 H    2.4604116286   -0.2377522920    2.1191599855