17

 O    0.0696684366   -0.0670558981   -0.2082800266
 C   -0.0187701770    1.1148384577    0.0162123595
 C   -1.3253071331    1.7955639927    0.4472436326
 C   -1.2037480748    3.2980402297    0.8045695067
 N   -0.0139682019    3.5995505131    1.6248100451
 C    1.0104105433    3.0528004976    1.1268658419
 N    2.3346076281    2.9015305172    1.5098239215
 C    2.5314589682    1.7309684482    0.6082986442
 C    1.1561854783    2.0768561779   -0.0273934861
 H   -2.0718674802    1.6363363741   -0.3392045000
 H   -1.6788871202    1.2328779843    1.3193195980
 H   -1.1911099728    3.9030356490   -0.1139344519
 H   -2.0937307539    3.6040153076    1.3604007407
 H    2.6407109475    2.9421552738    2.4734442255
 H    3.4093105024    1.8125371866   -0.0357704526
 H    2.5304159870    0.7631003006    1.1190605445
 H    1.2099761726    2.5486965781   -1.0141745129