16

 C   -0.0206600006    1.5199400182   -0.0360224686
 C   -0.0242724047    0.0203974754    0.0771607169
 N   -1.2806654434   -0.6518356067   -0.1771751166
 C   -1.2922007192   -1.6740681420    0.5780940450
 O   -0.2429219102   -1.8770814746    1.4201828666
 C    0.6578435113   -0.8262952711    1.1341648519
 C    1.2362068769   -0.7985056455   -0.2732746119
 C    1.2157239911   -1.9425378330   -1.1292652929
 C    1.1999828497   -2.9093729996   -1.8443833300
 H    0.9539150395    1.9338345276    0.2383178102
 H   -0.2467416374    1.8229517133   -1.0627736756
 H   -0.7791310071    1.9562443457    0.6212885794
 H   -2.0712351572   -2.4233359318    0.6344206643
 H    1.2278667474   -0.5029658489    1.9958172838
 H    2.1285993997   -0.1813778799   -0.3417549897
 H    1.1866611543   -3.7577367372   -2.4825426728