17

 C   -0.1950748992    1.5362962671    0.2068368243
 C    0.0325351515    0.0475330645    0.0561798933
 O    1.1346705889   -0.4541238421    0.0737167831
 C   -1.2128095933   -0.8190383347   -0.1113733645
 C   -1.6983676292   -0.9058891489   -1.5920074561
 C   -1.0301910104   -2.3121318042   -1.6011120529
 N   -0.9474604095   -2.2687685987   -0.1194283515
 C   -1.8123404582   -3.4209640214   -2.1482719604
 N   -2.4342752202   -4.2831628018   -2.6012517250
 H    0.7481066158    2.0734516332    0.1028350410
 H   -0.9240971941    1.9039278426   -0.5227822303
 H   -0.6129914865    1.7363952734    1.2007979433
 H   -1.9754618812   -0.5055271455    0.6116629066
 H   -2.7831535766   -0.9471120606   -1.6830373032
 H   -1.2952723695   -0.1803278635   -2.2990431370
 H   -0.0545764670   -2.2950668671   -2.1013214629
 H   -0.0174935013   -2.4875694423    0.2295250622