23

 C   -0.1870559000    1.5685226240    0.0307370354
 C   -0.1010353501    0.0389227087    0.0133034902
 C    0.7465029854   -0.5119678387   -1.1419374819
 C    2.2385736560   -0.2530166716   -1.0706836256
 C    2.9601964499   -1.2799432867   -1.5320659651
 C    4.4476831981   -1.3646352770   -1.6660481930
 C    2.0450537743   -2.4027487243   -1.9856428096
 C    0.7052797484   -2.0627033435   -1.2945586298
 O    0.5914478344   -2.7284845463   -0.0426478131
 H    0.7988949455    2.0304968277    0.1493173839
 H   -0.6201731316    1.9527896521   -0.8998116454
 H   -0.8139021454    1.9176467811    0.8573205313
 H    0.2991319332   -0.3205180519    0.9675420396
 H   -1.1108536118   -0.3820478077   -0.0628581530
 H    0.3562139893   -0.0734453197   -2.0758601796
 H    2.6610518886    0.6835443494   -0.7211064690
 H    4.9403416463   -0.4617237664   -1.2946797607
 H    4.8490536007   -2.2254838598   -1.1159502169
 H    4.7423865813   -1.5054830233   -2.7141358393
 H    1.9468476198   -2.4012069272   -3.0810827603
 H    2.3893279350   -3.4032464458   -1.6993819722
 H   -0.1652453700   -2.3947761285   -1.8665657632
 H    1.3612067526   -2.4789532747    0.4820987473