27

 C    0.0725054280    1.5116905056   -0.3348764559
 C    0.0467442350    0.0081711873   -0.0440293202
 C   -1.3767904063   -0.5602473200    0.0198137787
 C   -1.4554006029   -2.0855643191    0.2314263972
 C   -0.9374897557   -2.5137901589    1.6142164146
 C   -2.8647453987   -2.6248940169   -0.0372519556
 C   -3.9794528624   -2.1167950171    0.8613745562
 C   -3.2231876052   -2.9152636681   -1.4757374925
 C   -2.9662144286   -4.0542751110   -0.5154246610
 H    1.0973655430    1.8936770276   -0.3796244081
 H   -0.4100965383    1.7382327329   -1.2922377986
 H   -0.4581613248    2.0740973747    0.4416563902
 H    0.6134342738   -0.5240618705   -0.8200952042
 H    0.5707842017   -0.1839820035    0.8998069257
 H   -1.9285172259   -0.0489554639    0.8206330931
 H   -1.8968796977   -0.3111440283   -0.9148563437
 H   -0.8005215031   -2.5497105093   -0.5208252502
 H   -1.4855041840   -2.0142131581    2.4207715412
 H   -1.0480824233   -3.5938900466    1.7538177202
 H    0.1213315495   -2.2698241796    1.7393136038
 H   -4.1039053403   -1.0316018749    0.7797291445
 H   -4.9344572338   -2.5764991323    0.5881208114
 H   -3.7927291131   -2.3532495031    1.9146182642
 H   -4.2441038485   -2.7390040565   -1.7986921717
 H   -2.4792569948   -2.7202370357   -2.2417634233
 H   -2.0483626737   -4.6211243765   -0.6354953808
 H   -3.8125204101   -4.6498814180   -0.1888168251