20

 O    0.1441271325    1.5099570060    0.0491601310
 C    0.0047511016    0.1169723362   -0.0272814275
 C    0.6096558114   -0.4457827239   -1.3250333704
 C   -0.0426394567    0.1641755258   -2.5664674312
 N    0.5826738916   -0.3531277575   -3.7765704060
 C   -0.0152920976   -1.5514478978   -4.3568187274
 C   -0.1853747243   -0.2228656469   -5.0077418228
 C    0.6425326703   -0.5417184120    1.1778587887
 O    1.1873201327    0.1020525932    2.0419315209
 H    0.6258153710    1.6797003368    0.8743335734
 H   -1.0671099219   -0.1596843552    0.0002454803
 H    1.6844267223   -0.2352361492   -1.3464062583
 H    0.4864185709   -1.5366010906   -1.3393345607
 H   -1.1327012897   -0.0292986810   -2.5459902751
 H    0.0934516812    1.2495760488   -2.5438331045
 H    0.6781302542   -2.2828147534   -4.7619103461
 H   -0.8897645244   -1.9754627204   -3.8639665808
 H   -1.1717229925    0.2351941349   -4.9489485367
 H    0.3836688184    0.0360761690   -5.8960627902
 H    0.5861222289   -1.6487907827    1.2217658635