18

 N   -0.1076805714   -1.0590723674    0.5797340818
 C   -0.0574642429    0.0470407990    0.2494742490
 C    0.0226203226    1.4539654142   -0.1567941391
 C    1.4344755867    1.9843626793   -0.1284032582
 C    2.0790271976    2.5612888688   -1.1467161183
 C    3.4808003682    2.9886289804   -0.7685818790
 C    3.5616510350    2.6694559769    0.7252561008
 C    2.6001393779    3.3599664025    1.6553201453
 C    2.2627816464    1.9822201206    1.1157934559
 H   -0.4054109329    1.5533350122   -1.1594847925
 H   -0.6175276984    2.0305923480    0.5248781327
 H    1.6587295833    2.7331428285   -2.1318916411
 H    4.2312231756    2.4273233342   -1.3412550523
 H    3.6623329821    4.0499710386   -0.9820143332
 H    4.5060825809    2.3328753131    1.1351281309
 H    2.8911857448    3.4301883716    2.6981653598
 H    2.0236798683    4.2035373101    1.2877819946
 H    2.2214329562    1.1369628495    1.7937387029