19

 C   -0.1811033947    1.6226415137    0.4667569515
 C    0.0848840209    0.1926204071    0.0788306941
 C   -1.1051588143   -0.7777756706   -0.1532923925
 C   -0.4123247931   -1.8424388415    0.7756401828
 C   -0.1927037331   -3.1754649895    0.2533786935
 C    0.0001024195   -4.2739057009   -0.1982493914
 C    0.8191651716   -0.8899125646    0.9312826436
 C    1.8230051304   -0.9145050293   -0.2282538111
 O    1.0700091944    0.0721626173   -0.9756581710
 H    0.7476224753    2.1308909147    0.7423010921
 H   -0.6260637756    2.1626367950   -0.3769058641
 H   -0.8769460720    1.6784077809    1.3102170084
 H   -2.0720428260   -0.4360803290    0.2237858848
 H   -1.2045033624   -1.0767359548   -1.1973338056
 H   -0.9437890199   -1.9099945730    1.7299754544
 H    0.1626183841   -5.2470560642   -0.5907214729
 H    1.2032200477   -0.7382905799    1.9393911263
 H    2.8220848704   -0.5403182675    0.0267796648
 H    1.9185583668   -1.8657013139   -0.7639043875