23

 C   -0.0916252486    1.3852544570    0.0167599172
 O   -0.1189319623   -0.0171017310   -0.0759147707
 C    0.7450666809   -0.5208313104   -1.0748897817
 C    0.6121437470   -2.0318917236   -1.1012736678
 C   -0.7145026760   -2.6746650088   -1.6263293619
 C    0.1035559586   -3.4901079686   -2.6342364290
 C    0.8627269138   -2.5600988909   -3.5390627313
 C    1.4038479773   -2.8285453248   -2.1570912608
 C    2.7646570618   -3.4209541034   -1.9198005321
 H    0.9125187677    1.7602711522    0.2737153577
 H   -0.4017391333    1.8653122356   -0.9256940029
 H   -0.7887349912    1.6773584886    0.8063234810
 H    0.4861107263   -0.0838912618   -2.0541000690
 H    1.7897661784   -0.2315744424   -0.8607837907
 H    0.8364396214   -2.4093159291   -0.0982898240
 H   -1.2160233021   -3.2769922109   -0.8666806827
 H   -1.4458842508   -1.9830850330   -2.0585125240
 H   -0.0690060059   -4.5274319206   -2.8971700330
 H    1.4192711852   -3.0391035620   -4.3391520565
 H    0.4397738973   -1.5971485685   -3.8170322068
 H    3.5436300643   -2.6485076882   -1.9011578317
 H    2.8062761594   -3.9542076610   -0.9627316459
 H    3.0291310308   -4.1317994143   -2.7098993231