18

 O    0.1116185095    1.3995778834   -0.0202142054
 C    0.0816320207    0.0021795545    0.0406948879
 C   -0.4580700403   -0.7169394127    1.2589276014
 O   -0.9701577213   -0.0222678651    2.3555345478
 C   -1.9319237353    1.0144466791    2.1069842825
 C   -2.9902231951    0.6165888432    1.0950747326
 C   -2.9286566721    1.1550549619   -0.2997172000
 N   -2.5795573107   -0.2337080576   -0.0242530661
 C   -1.2431474780   -0.7574703543   -0.0367286527
 H    0.7357892423    1.7068815280    0.6463068426
 H    0.9017987749   -0.4860343385   -0.4881703756
 H    0.0468241823   -1.6102503805    1.6118050839
 H   -2.3959360372    1.1956186707    3.0795696442
 H   -1.4176566394    1.9281610522    1.7955830267
 H   -3.9555908885    0.3402313474    1.5135355625
 H   -3.8463636643    1.2808734385   -0.8687497105
 H   -2.1346562010    1.8579816510   -0.5250671076
 H   -1.1835650367   -1.6722085011   -0.6203961541