18

 C   -0.0386499356    1.5490848891   -0.0125985573
 C   -0.0407690073    0.0362399850    0.0548539218
 C    0.3141093110   -0.7616526796   -1.2707068622
 C   -0.8369317690   -1.7087303237   -0.9656733372
 C   -0.9034234672   -2.0861797253    0.5401254556
 C    0.3037212866   -1.8534306856    1.3823953892
 C    0.7693321682   -0.6211372826    1.1570738216
 C   -1.4016896869   -0.7532733579    0.0563313847
 H    0.9760560630    1.9345444773   -0.1650589358
 H   -0.6590023815    1.9113550963   -0.8393007082
 H   -0.4248728680    1.9864211836    0.9149385491
 H    0.0778064263   -0.1553179167   -2.1502757868
 H    1.3304957182   -1.1606530107   -1.3589800079
 H   -1.3620459682   -2.3233672221   -1.6873458689
 H   -1.6156644473   -2.8680172924    0.7781801642
 H    0.7438735980   -2.6039454543    2.0274148562
 H    1.6805827495   -0.1900333126    1.5559305514
 H   -2.4008279197   -0.3546197377    0.1912802803