20

 C   -0.0012126794    1.5046601905   -0.0760491431
 C   -0.0005658406    0.0001625704    0.0261839899
 C    1.2391431294   -0.8113286241   -0.2229789913
 C    0.6233323317   -0.7866134202    1.1704768715
 C    1.3635673996   -0.2170234704    2.3528466715
 C   -0.2983235042   -1.9340157529    1.4063124660
 N   -0.2206965731   -2.7523176415    2.3657837838
 O   -1.2532924601   -1.9778474092    0.4225085417
 C   -1.2892794181   -0.7376659828   -0.3016887861
 H    0.9521474198    1.9255628446    0.2548847072
 H   -0.1593754774    1.8280945211   -1.1114714201
 H   -0.7950360855    1.9464181381    0.5367854429
 H    1.1741644672   -1.7220878745   -0.8106812997
 H    2.1715507542   -0.2672191998   -0.3341981321
 H    2.0161833856    0.6086360312    2.0552637014
 H    0.6700363841    0.1490552368    3.1161641858
 H    1.9786915373   -0.9937951654    2.8153899050
 H   -0.9879894845   -3.4250616383    2.3252418231
 H   -2.1663036049   -0.1613955172    0.0221330763
 H   -1.4010635311   -0.9742695763   -1.3652377739