21

 C    0.0259709205    1.6591070504   -0.1659432610
 C    0.0704249690    0.1572382186   -0.0069753648
 O   -1.1780251818   -0.4432497966   -0.2905141532
 C    1.2517282374   -0.7316711113   -0.3353898727
 C    2.6676445106   -0.1671584263   -0.4124136598
 C    2.9186118799    0.5601142020    0.9313523736
 C    1.8436940744    0.0465040687    1.9319739359
 O    1.2974232633    1.0736019930    2.7542744185
 C    0.7544304630   -0.5997638950    1.0987430338
 H    0.9718059089    2.1472437425    0.0635764353
 H   -0.2403755334    1.9170791514   -1.1996504304
 H   -0.7384462464    2.0765596637    0.4951907560
 H   -1.3650463261   -0.2935415111   -1.2242065160
 H    1.0214103668   -1.6236360230   -0.9085076697
 H    3.3678427597   -1.0010366510   -0.5326834610
 H    2.8225154093    0.4952264566   -1.2717684686
 H    3.9329184176    0.3865223107    1.3033894657
 H    2.8037807082    1.6424375757    0.8321444691
 H    2.2812834708   -0.7382041165    2.5685833267
 H    1.9960219287    1.3912135178    3.3352917452
 H    0.1610684095   -1.3817676903    1.5576697974