20

 C   -0.3997031901    1.3984800096   -0.1805218029
 C    0.2042705412    0.0436176241    0.1767204745
 N    0.7318853865   -0.5991349862   -1.0309986591
 C    1.0347003556   -1.9935505625   -1.1394113949
 C   -0.1072743393   -1.3653050785   -1.9482463993
 C   -1.0647984068   -2.2694184753   -1.1985266077
 O   -2.2157134829   -2.5655415005   -1.3544817291
 C    0.0708607517   -2.8966292818   -0.3376112199
 C    0.2003750172   -4.3981186306   -0.5911114617
 H    0.3386888366    2.0296823751   -0.6824103362
 H   -1.2569757395    1.2781860401   -0.8505518127
 H   -0.7462136467    1.9123088553    0.7209252427
 H    1.0553824900    0.1767114477    0.8544704496
 H   -0.5411321509   -0.5622369121    0.7105767390
 H    2.0044705007   -2.2968555069   -1.5204784046
 H   -0.1714237240   -1.0571013988   -2.9862441702
 H    0.0338836281   -2.6935850512    0.7367915305
 H    0.2749949691   -4.6162432530   -1.6617733840
 H    1.0915148591   -4.8016893776   -0.1002657873
 H   -0.6756209060   -4.9248115670   -0.2030004667