17

 C    0.0136566888    1.4816117499    0.0248324155
 C   -0.0060043455   -0.0224816415   -0.0088925496
 N   -0.1312323235   -0.6174846104   -1.1931119311
 C   -0.1148319188   -1.9596330192   -1.1887141216
 C    0.0053608795   -2.7176371715   -0.0403064220
 N   -0.0201151243   -4.1258734888    0.0090985951
 C    0.0929832499   -1.9799407433    1.1631295875
 N    0.2209990582   -2.6509089802    2.3623574379
 N    0.0984949225   -0.6525421693    1.1728168264
 H    0.9706153598    1.8432086103    0.4164282985
 H   -0.1376607066    1.8815738824   -0.9780539530
 H   -0.7661661128    1.8609223200    0.6927625217
 H   -0.2050332361   -2.4507397487   -2.1578286595
 H   -0.0350018602   -4.5440967477   -0.9135143667
 H    0.7645058201   -4.5048073757    0.5302915898
 H   -0.2699472084   -3.5338137599    2.4069468545
 H    0.0774541875   -2.0569413965    3.1671243367