17

 O    0.0281727414    1.4007626365   -0.0101535835
 C   -0.0093838027    0.0212093365    0.0451607448
 C    0.2750758894   -0.7247958859    1.3832735360
 C   -0.6401746593   -1.8368568115    0.8068145445
 C   -1.3704154959   -0.7357375677   -0.0061753197
 C    0.1680642856   -2.7095766409   -0.1434953399
 O    0.9521043539   -1.9280451829   -1.0781749830
 C    0.8957956200   -0.5858092725   -1.0220587322
 O    1.5336749474    0.0969536951   -1.7829689024
 H    0.6373827844    1.6210571903   -0.7334728564
 H    1.3094865540   -0.9711920307    1.6380150703
 H   -0.1982533711   -0.1930325496    2.2112607068
 H   -1.2173896510   -2.4559997491    1.4952721781
 H   -2.1115226676   -0.2057563259    0.5957013846
 H   -1.7929052179   -0.9918212409   -0.9816409910
 H    0.8769861516   -3.3437083710    0.3992567912
 H   -0.4808342423   -3.3527350297   -0.7472762982