19

 C    0.2861909780    1.5348409603    0.1377133469
 C    0.3070672323    0.0172687066   -0.0244632495
 C    0.5878721733   -0.4419162447   -1.4435677354
 O    0.7215878358    0.3189405496   -2.3741621053
 C    0.7537956680   -1.9480981213   -1.6156015957
 C    1.1298593904   -2.4827997685   -3.0219215956
 C    2.4606186255   -3.0825883674   -2.4715318653
 C    2.1228345646   -2.4845342681   -1.1020235132
 O    2.6825890921   -2.4113437153   -0.0483152030
 H    1.2497049320    1.9700129571   -0.1399278897
 H   -0.4724404351    1.9868702603   -0.5061648108
 H    0.0703637673    1.8081827968    1.1741408912
 H    1.0607200988   -0.4556354630    0.6208983216
 H   -0.6492844592   -0.4289984326    0.2836788105
 H   -0.0698793140   -2.4672057226   -1.1133868850
 H    0.4332590119   -3.2104439670   -3.4384771228
 H    1.2711494408   -1.6665982079   -3.7309386489
 H    2.5142880510   -4.1755125577   -2.4502373930
 H    3.3895602066   -2.7040362345   -2.9080419770