19

 C    0.4162383236    1.3836690574    0.3988948396
 N   -0.2057438961    0.2438175342   -0.2824326346
 C    0.5931988166   -0.4030935231   -1.2682190424
 C    0.2434402080   -0.3484492393   -2.5969869499
 O   -0.8148825558    0.2533523034   -3.1797177469
 N    1.1547385656   -1.0397152124   -3.3297620451
 C    2.1124178708   -1.5645169892   -2.4685353973
 C    1.7989140127   -1.1895243965   -1.1865131848
 C    2.5591478795   -1.5461372271    0.0542136046
 H    1.3282573930    1.1316196324    0.9615514433
 H    0.6824906588    2.1417178077   -0.3435242152
 H   -0.3038796207    1.8259258365    1.0955382587
 H   -0.5534240603   -0.4162062539    0.4054804887
 H   -1.3151131263    0.6232358518   -2.4355266975
 H    1.1179521859   -1.1593554644   -4.3261159322
 H    2.9286957984   -2.1561686735   -2.8493955551
 H    3.0424015777   -0.6737265743    0.5114746881
 H    1.9060093662   -1.9828576629    0.8198809523
 H    3.3431910125   -2.2776442470   -0.1628821644