17

 O    0.3564324592    1.0856315433    0.0654681686
 C    0.0809224276   -0.2844975333   -0.0747635747
 C   -1.4485835691   -0.5862863819   -0.0617965500
 C   -2.1456179000   -0.0241732133   -1.3105960537
 O   -1.9594077947    1.3836456793   -1.4616636181
 C   -1.6492800291   -2.0791406908    0.0258541186
 O   -1.7821683829   -2.8135373413   -0.9286225791
 C   -1.6617815800   -2.7183269702    1.4236546882
 O   -1.6105105855   -2.0888781925    2.4467435933
 H   -0.1516459907    1.5360491098   -0.6242910151
 H    0.5038410778   -0.7027407391   -1.0034990761
 H    0.5644825457   -0.7900565435    0.7674776093
 H   -1.8473784336   -0.1321501309    0.8530901822
 H   -1.7163642573   -0.4813332497   -2.2054042439
 H   -3.2145937186   -0.2751633578   -1.2987205779
 H   -2.4578540537    1.8277769850   -0.7668714973
 H   -1.7404029051   -3.8252088731    1.3846877757