18

 C   -0.4314625931    1.4011612063   -0.0992505958
 C    0.0898942875   -0.0272732825   -0.0719843380
 C    1.4990710134   -0.3334224353   -0.6227786248
 O    1.8677454875   -1.0485861572    0.5839689916
 C    0.6469359422   -0.6422628711    1.2562119404
 C    1.0154190739    0.2984931167    2.4101891286
 O    1.8980953953   -0.3491033073    3.2937052514
 C   -0.1000442954   -1.8065821095    1.7508167350
 N   -0.7332443324   -2.7038343985    2.1101439612
 H    0.2989966859    2.1192308182    0.2837450918
 H   -0.6690920917    1.6895275274   -1.1283107120
 H   -1.3493491427    1.4998225494    0.4886721527
 H   -0.6538748012   -0.7002431314   -0.5030424272
 H    1.5561953618   -0.9777876061   -1.5048250445
 H    2.1325053186    0.5491170932   -0.7760924502
 H    1.4592830109    1.2107560676    1.9859786272
 H    0.1260253080    0.5813163781    2.9812991483
 H    2.6271401614   -0.6828789579    2.7551122545