23

 C    0.0227558660    1.3842894811   -0.0841494270
 O   -0.0162706202   -0.0125142644    0.0891858951
 C   -1.3118462640   -0.5932130520    0.0097513372
 C   -1.8099901471   -0.6617851173   -1.4359030156
 C   -1.2141485622   -1.9800732558    0.7231250611
 C   -0.2033622037   -2.9056959834    0.0066313470
 C   -0.7635567804   -1.7608371525    2.1870715782
 C   -2.5416409966   -2.6034063703    0.7309671142
 C   -3.6271444071   -3.1208538600    0.7599203663
 H    1.0485003239    1.7038299665    0.1172396579
 H   -0.2420454737    1.6923765739   -1.1057591610
 H   -0.6522976209    1.8994135428    0.6171149705
 H   -2.0157962637    0.0183880584    0.5982713414
 H   -1.9670746220    0.3420237399   -1.8404012473
 H   -1.0823722514   -1.1720581091   -2.0728886385
 H   -2.7612907589   -1.1963863826   -1.4874624674
 H    0.7661223605   -2.4069843726   -0.0624054513
 H   -0.0841415859   -3.8360261163    0.5683231413
 H   -0.5382564799   -3.1647699708   -1.0004560730
 H   -1.4720177679   -1.1198714230    2.7204730661
 H   -0.7096696483   -2.7167183851    2.7147821936
 H    0.2187782336   -1.2854758738    2.2048337698
 H   -4.5845204102   -3.5796650436    0.7828677313