18

 O   -0.0299780735    1.4520330307    0.0464397245
 C    0.0335061488    0.0276989524    0.0138204099
 C    0.6527728490   -0.4725433272   -1.2166125469
 C    1.2152968699   -0.8661815888   -2.2038014078
 C    0.7484477101   -0.5142207072    1.2450575606
 C    2.2144571942   -0.3024772739    1.6940544584
 N    1.6482468591   -1.1709570141    2.8329614035
 C    0.4123461277   -0.2565598401    2.7309193767
 C    0.9776200374   -1.9722581685    1.6995640748
 H    0.8526003763    1.7843841578   -0.1525213571
 H   -1.0132952135   -0.3003977507    0.0502331514
 H    1.6890716737   -1.2159370666   -3.0879733551
 H    3.0048709635   -0.7939906169    1.1213191475
 H    2.5158467742    0.6963714991    2.0218666170
 H    0.5759155199    0.7481692554    3.1268391743
 H   -0.4969607049   -0.7066042803    3.1388873755
 H    0.1104475860   -2.5505814123    2.0303023932
 H    1.6751727622   -2.5864726486    1.1250834195