15

 C   -0.0446101499    1.5098768105    0.0109009361
 C    0.0144803709    0.0040284649    0.0240367947
 N    0.1237746719   -0.6049943921   -1.1671767310
 C    0.1796991100   -1.9308774448   -1.2103309137
 C    0.1306686626   -2.7411025295   -0.0709866531
 O    0.1967501809   -4.0900601458   -0.2436445833
 C    0.0174779084   -2.1178594363    1.1668665940
 C   -0.0409511667   -0.7286394292    1.2098135060
 H    0.8545539742    1.9264149368   -0.4546376340
 H   -0.8987556496    1.8565460628   -0.5798473823
 H   -0.1330157586    1.9188894357    1.0206377435
 H    0.2681337190   -2.4002598077   -2.1872814758
 H    0.1527365823   -4.5235302802    0.6150684604
 H   -0.0243686585   -2.7049945601    2.0809669719
 H   -0.1293208269   -0.2179228249    2.1627674065