16

 C   -0.1043804907    1.4820182508    0.0637403513
 N    0.0464559811    0.0443746852    0.1081322881
 C   -0.9967865897   -0.6539982308   -0.0298481955
 N   -0.9985247515   -2.0392334943   -0.0080234212
 C   -2.1240840197   -2.9769118974   -0.1522404759
 C   -1.1082926548   -4.1386408486    0.0132168408
 C   -0.0286401470   -3.0443562427    0.1487820571
 O    1.1529879224   -3.0131669264    0.3176968068
 H    0.5155818300    1.8904262402   -0.7426986704
 H   -1.1436023825    1.8180203892   -0.0901983936
 H    0.2665988177    1.9180964862    0.9984842608
 H   -2.0067147851   -0.2408312485   -0.1807245917
 H   -2.8701459533   -2.8921439593    0.6434230283
 H   -2.6177730954   -2.9229829198   -1.1270073398
 H   -1.2342297877   -4.7525671250    0.9064890079
 H   -0.9816718837   -4.7832586086   -0.8580802530