19

 C    0.0315807438    1.4335945495    0.0063459913
 O   -0.0796141223    0.0293131767    0.0615412874
 C    0.6403858725   -0.5768303202    1.1244957145
 C   -0.0293180768   -1.9130180753    1.4428261861
 C    0.8090423120   -2.7191283552    2.4425157448
 C    2.2467435636   -2.9208154193    1.9748049029
 O    2.9020904781   -3.8922117409    2.2931516505
 C    2.8091918107   -1.8436511795    1.1288075090
 C    2.0921564256   -0.7762353157    0.7572703111
 H    1.0648735872    1.7721320645   -0.1628019508
 H   -0.5828918723    1.7715887169   -0.8313213962
 H   -0.3354725761    1.9049309746    0.9314085655
 H    0.5874818160    0.0762213558    2.0157728408
 H   -1.0382085678   -1.7366970121    1.8265216231
 H   -0.1321704957   -2.4652749287    0.5018773197
 H    0.8551204907   -2.1863840725    3.4037433102
 H    0.3752666949   -3.7007475813    2.6477906138
 H    3.8458411880   -1.9711098966    0.8319688167
 H    2.5470727980    0.0006816793    0.1471805795