18

 O    0.0911668291    1.2875858595   -0.6557213873
 C   -0.0031416124   -0.0561238079   -0.2349145217
 C   -1.4025788931   -0.3680228203    0.2162034451
 C   -2.4142442789    0.4939362494    0.1444205719
 C   -3.8234035988    0.1593777781    0.5842642135
 N   -4.4197223332   -1.0827271121    0.1010624485
 C   -3.8137989274   -2.1563064114   -0.1568544966
 O   -2.5191267580   -2.5541367994   -0.0312838093
 C   -1.6295131107   -1.7546424718    0.7630764273
 H    0.9767150246    1.4348710593   -0.9986640598
 H    0.2701521372   -0.7548731337   -1.0465293192
 H    0.6956969061   -0.2666573407    0.5959906801
 H   -2.2335672236    1.4884575718   -0.2502385310
 H   -3.8894998983    0.1734559100    1.6844769599
 H   -4.4907873402    0.9622595252    0.2544133927
 H   -4.3776427058   -2.9917501330   -0.5745532757
 H   -0.7009510250   -2.3314220127    0.7904965938
 H   -2.0211997815   -1.7083921503    1.7881492981