15

 C   -0.0176595339    1.5444111697    0.0197726553
 C   -0.0021653564    0.0496817052    0.0332359275
 N   -0.0586736018   -0.6135962668   -1.0979073824
 O   -0.0254460727   -1.9767526156   -0.7438929762
 C    0.0494032182   -2.0626978240    0.5840225220
 N    0.0947802911   -3.3116781051    1.1766295980
 C    0.0736589449   -4.5586042070    0.5734768575
 O    0.0102456813   -4.7771870244   -0.6060110859
 C    0.0689082271   -0.8231153108    1.1548965507
 H    0.8885124829    1.9488505897    0.4822220002
 H   -0.0784301048    1.9071012500   -1.0078168015
 H   -0.8747056933    1.9314522818    0.5803524699
 H    0.1507077565   -3.3025631993    2.1837082934
 H    0.1245604504   -5.3494007956    1.3473880153
 H    0.1246593604   -0.5706163478    2.2005489862