20

 C    0.0389572450    1.5297955491   -0.1961717840
 C   -0.0410369833    0.0237210686    0.0851023169
 C   -1.4484944226   -0.5206596730    0.0807918446
 C   -2.4986875890   -0.0487761317    1.1233023811
 C   -3.4093143800   -1.2634226467    0.8894031288
 O   -2.5517217277   -2.3527833648    1.3442633355
 C   -1.8018235032   -2.0914336324    0.1593101751
 C   -3.0105423596   -1.5874075101   -0.6333612629
 N   -2.2143891200   -0.5043488661   -1.2096178480
 H    1.0776550175    1.8733839161   -0.1933137114
 H   -0.3853640287    1.7673398443   -1.1772663778
 H   -0.5052777165    2.1088786530    0.5571221440
 H    0.5437834405   -0.5176304800   -0.6677711398
 H    0.4129425137   -0.1985157623    1.0593135626
 H   -2.1450151018   -0.0269800803    2.1567261026
 H   -2.9364076733    0.9183073769    0.8581331072
 H   -4.4192756672   -1.2986937999    1.2940594496
 H   -1.0704305765   -2.8426975929   -0.1312460575
 H   -3.6753380560   -2.1829659445   -1.2569554479
 H   -2.7220582314    0.3632968067   -1.3816729687