17

 C   -0.0169048306    1.5009334766   -0.2274683460
 C    0.0886479543    0.0060144188   -0.0280171999
 N    0.2418834496   -0.5867583524    1.0878767506
 N   -0.0229016096   -0.7782603538   -1.2014490231
 C    0.0872336073   -0.2034892486   -2.5365717675
 C    1.5182594925    0.1793446878   -2.8831260403
 O    1.8215992774    1.1857720537   -3.4674946902
 C   -0.2398256439   -2.1524747743   -1.1127084763
 O   -0.3153354615   -2.8741785095   -2.0804854152
 H    0.7450986417    1.8841109433   -0.9124155731
 H   -0.9927309258    1.7719073172   -0.6450036798
 H    0.1001919032    2.0042463561    0.7332752862
 H    0.2605037871    0.0856140032    1.8510300375
 H   -0.2176838059   -0.9999657779   -3.2260046566
 H   -0.5684302964    0.6574301755   -2.6792313136
 H    2.2779534703   -0.5623981115   -2.5490986176
 H   -0.3408460497   -2.4857665142   -0.0736977152