16

 C   -0.9124373009    0.9885904219    0.1883146039
 C    0.3094938197    0.1088780140    0.0577492691
 O    1.1752414146    0.0401511452    0.8949186292
 C    0.3970629058   -0.7109114414   -1.2476321239
 C    1.6666909448   -1.4936119950   -1.4369857314
 C    1.3565424701   -2.7822167233   -1.5917193962
 N   -0.0338720032   -2.9810382108   -1.5343339873
 C   -0.7092459490   -1.8019219848   -1.3146748827
 O   -1.9075124423   -1.6694176778   -1.2042052713
 H   -0.8570915399    1.8004994179   -0.5472215079
 H   -1.8125440069    0.4102647524   -0.0428357828
 H   -0.9593199193    1.4130340633    1.1916702234
 H    0.1948000095   -0.0191126033   -2.0775038526
 H    2.6581050918   -1.0718562874   -1.4086067741
 H    2.0043950419   -3.6328863368   -1.7453177628
 H   -0.5068722269   -3.8671520241   -1.5962525627