14

 O    0.0050532914    1.4718429700   -0.0461220707
 C    0.0559457818    0.0700290253   -0.0028689162
 C    0.0079786027   -0.6325714052    1.3718963838
 C   -1.5221835967   -0.2776565410    1.5600951423
 C   -1.3178781829   -0.6039735300    0.0263421688
 C   -0.7313703422   -1.8803173660    0.7471696870
 C   -1.8107778174   -1.7524848426    1.8198228143
 O   -2.5022364431   -2.4452736606    2.5011885567
 H    0.9038216128    1.8147079883   -0.0275850521
 H    0.7802833843   -0.3341866162   -0.7239811115
 H    0.7467247383   -0.6776725406    2.1722490563
 H   -1.9298536783    0.6369296821    1.9799844453
 H   -2.1045432567   -0.6095893037   -0.7271419585
 H   -0.2668256242   -2.7401211398    0.2693065247