14

 O   -0.3637547036    0.4650637795   -0.5982985983
 C    0.3914542160    0.8188798573    0.2676505191
 C    1.3667353295    1.9770821587    0.1168071498
 C    1.2299419554    2.8005182432   -1.1616252279
 C    1.4789920685    4.2365229488   -0.6698416453
 O    1.1679140894    4.2442946191    0.7372534833
 C    1.1560246875    2.9938963480    1.2506994780
 O    0.9886995198    2.7594364908    2.4121338179
 H    0.4265216153    0.3270301952    1.2601668841
 H    2.3745221774    1.5632898351    0.2613526661
 H    1.9299677292    2.5085971592   -1.9456384101
 H    0.2179812341    2.6814335148   -1.5566236389
 H    2.5245207239    4.5414661147   -0.7878070249
 H    0.8413346476    4.9808581855   -1.1498976129