16

 N   -0.1397037271   -1.1870605616   -0.1463126076
 C   -0.0865126524   -0.0352982656   -0.0578723125
 C    0.0235766834    1.4145892658    0.0482084167
 N   -0.2917878939    2.0161609775    1.4027769617
 C    0.7339707982    1.5112065779    2.3406947060
 C    1.1194370793    2.6023262874    1.4257291017
 C    1.4361942168    2.0420849133    0.0618818284
 C    2.6956765949    1.5643691712   -0.5438845380
 N    2.0355703882    2.8027642406   -1.0133612609
 H   -0.6267077769    1.8857645514   -0.6948397335
 H    0.5043876516    1.7703960707    3.3689740661
 H    1.1371988856    0.5111888485    2.2006363943
 H    1.3077390196    3.6234757145    1.7365371346
 H    3.6400413916    1.7165964740   -0.0293116515
 H    2.6486379485    0.6744833952   -1.1665062993
 H    1.5513603526    2.6447600791   -1.8940890162