12

 C    0.0832113526    1.5224471632    0.0587062373
 C   -0.0080961179    0.0417576138    0.0753857899
 C   -1.0776219355   -0.8160614759    0.0012329511
 N   -0.5549193741   -2.0991118145    0.0655971691
 N    0.6886137261   -2.0736670845    0.1679050960
 O    1.0999706219   -0.6782936104    0.1788277890
 C   -2.4523319052   -0.5289046570   -0.1171694665
 C   -3.6228072689   -0.2687147143   -0.2182564844
 H    0.6954319976    1.8621032842   -0.7826008462
 H   -0.9152978882    1.9531116517   -0.0311370423
 H    0.5491594130    1.8914500002    0.9779047773
 H   -4.6576984414   -0.0468746065   -0.3074727505