20

 C   -0.0296790618    1.5115872696    0.0189975697
 C    0.0372411753    0.0178138049   -0.0234376005
 C   -0.0269176095   -0.7681239962   -1.1005071668
 C    0.0308884742   -2.2424990016   -0.7711079496
 C    1.0099213812   -3.0501362137   -1.6341131128
 O    0.6296973589   -3.1232189360   -2.9993423693
 C    0.4273696845   -2.2378380760    0.7311925383
 C    0.1351414077   -0.8070011592    1.2438775520
 H    0.8666758058    1.9352134284    0.4900211151
 H   -0.1250687947    1.9432861815   -0.9810946837
 H   -0.8833725870    1.8523046288    0.6192805256
 H   -0.1580548845   -0.3968993596   -2.1133067004
 H   -0.9612117840   -2.6951543212   -0.9167459708
 H    2.0243740850   -2.6336609706   -1.5219507634
 H    1.0420754668   -4.0867876780   -1.2802957090
 H    0.7148425552   -2.2417696031   -3.3748907448
 H   -0.0922957058   -3.0101233908    1.3036018434
 H    1.5008274606   -2.4444360929    0.8183051200
 H    0.9083811539   -0.4371098232    1.9284695429
 H   -0.8111300319   -0.7552869309    1.8018872740