25

 C    0.0516953908    1.6054438772   -0.0697591174
 C    0.0261694150    0.0747110293   -0.0808503924
 C   -1.3852331863   -0.5067802270    0.0557149010
 C   -1.4131062948   -2.0404669130    0.0438745393
 C   -2.8172737252   -2.6412432057    0.1298300074
 C   -2.8678946988   -4.1786830895    0.0941395530
 C   -4.2411334826   -4.4741313815    0.7043933621
 O   -4.5229699123   -3.4036017240    1.6071140941
 C   -3.5651039902   -2.3619558812    1.4438932954
 H    1.0716630302    1.9895753430   -0.1699008267
 H   -0.5414719096    2.0173430302   -0.8939125676
 H   -0.3628526800    2.0017200015    0.8639421822
 H    0.4793775479   -0.2935486057   -1.0109374294
 H    0.6552261737   -0.3086478794    0.7335471931
 H   -1.8383933652   -0.1349252087    0.9846960426
 H   -2.0147816565   -0.1258832519   -0.7608633417
 H   -0.9260362529   -2.4000033367   -0.8725111689
 H   -0.8095276029   -2.4235584927    0.8791699576
 H   -3.4228368667   -2.2541692193   -0.7015118678
 H   -2.7516913598   -4.5925862825   -0.9109491325
 H   -2.0696557450   -4.5914846618    0.7227922238
 H   -5.0205097453   -4.5112463497   -0.0715853370
 H   -4.2720323346   -5.4216579148    1.2546458841
 H   -2.8606061821   -2.3626137986    2.2927653639
 H   -4.0915623267   -1.4013536476    1.4472177019