15

 C    0.0707720820    1.4741176885   -0.1828333332
 C    0.0182158624   -0.0456342371    0.0314087460
 O    0.7511921283   -0.4385199875    1.1901232279
 C   -1.3640281705   -0.5350071761    0.0661199489
 C   -2.5087867866   -0.9092756399    0.1232861189
 C   -3.8720762108   -1.4336222261    0.1970357949
 O   -4.0179043583   -2.7225725028   -0.3812014589
 H    1.1133969071    1.8017246411   -0.1986493823
 H   -0.4079208425    1.7520388183   -1.1261547890
 H   -0.4498820272    1.9931886356    0.6285212015
 H    0.5424643531   -0.5348299776   -0.7985320706
 H    0.2571112026   -0.1337207367    1.9594343831
 H   -4.2052325499   -1.4243071056    1.2476289452
 H   -4.5573384258   -0.7804376861   -0.3547774777
 H   -3.3340990639   -3.2862248280   -0.0043390147