20

 C   -0.2820825155    1.5155019492   -0.0094960047
 C    0.1050824260    0.0262267225    0.0333359062
 C    0.8020712897   -0.4536033016   -1.2005072676
 C    2.0526131155   -0.9207146306   -1.3031339541
 N    2.3824717186   -1.2912965641   -2.6198767484
 C    3.6474468683   -1.8337594472   -3.0571121534
 C    1.3094172400   -1.0754728323   -3.4672236521
 O    1.2913313872   -1.3018986641   -4.6578831215
 C    0.1918201460   -0.5023510392   -2.5833442960
 H    0.6043054621    2.1460775725   -0.1302759110
 H   -0.9593145479    1.7278392373   -0.8429585885
 H   -0.7893202016    1.8120773172    0.9137794016
 H    0.7505433603   -0.1572307823    0.9005604749
 H   -0.8058016367   -0.5670963860    0.1989597400
 H    2.7941031839   -1.0428486164   -0.5245989374
 H    3.8734153159   -2.7802772648   -2.5523272360
 H    3.5660540085   -2.0120353667   -4.1308216187
 H    4.4693876547   -1.1327850447   -2.8709859077
 H   -0.6932138684   -1.1470365581   -2.6460837160
 H   -0.1096333163    0.4775544192   -2.9708553795