18

 C   -0.1195007952    1.6273631480   -0.0616870514
 C    0.0100296642    0.1128542664   -0.0795945701
 C   -1.3569186875   -0.5890614577   -0.0178523200
 O   -2.0469497523   -0.2887007133    1.1733269151
 C    0.8716507647   -0.4365445975   -1.2424652077
 N    1.6339660795   -1.4588735610   -0.5572842865
 C    1.6663394174   -1.2568469433    0.8032694271
 O    2.3547948824   -1.8012810672    1.6194266062
 O    0.7333941039   -0.3011564714    1.1126684497
 H    0.8601785762    2.0959800989    0.0612730078
 H   -0.5589873400    1.9766016438   -1.0019505919
 H   -0.7708364684    1.9374499548    0.7578312158
 H   -1.9840744237   -0.2432396034   -0.8469326646
 H   -1.2034799727   -1.6732409618   -0.1390776186
 H   -1.4575075979   -0.5292878101    1.8986914807
 H    0.2478529469   -0.8540979030   -2.0405828292
 H    1.5074629202    0.3472190456   -1.6757327290
 H    2.4138492423   -1.9350248179   -0.9792290934