15

 O   -0.2470509001    1.4457478136    0.0255566285
 N    0.0119017483    0.0673392307    0.0048141742
 C   -1.0625733930   -0.5959999572   -0.0810647473
 C   -2.5615068282   -0.2987916581   -0.0365927750
 C   -2.7770074154   -1.8224889337    0.0700072446
 N   -2.2230483906   -2.4306825007   -1.1174528969
 C   -1.2638048300   -2.0713067101   -0.0234463856
 C   -0.5298091801   -3.1318149557    0.6803234198
 O   -0.8346951682   -4.3024721978    0.6012490320
 H    0.6383908651    1.8199740719    0.0904292731
 H   -2.8378598726    0.2595449506    0.8613814466
 H   -2.9997859977    0.1720703036   -0.9190579170
 H   -3.4628315581   -2.3463529231    0.7239770088
 H   -2.3288890953   -3.4456298223   -1.0318442566
 H    0.3138145160   -2.7846658118    1.3083108808