19

 C   -0.1261033131    1.5135727009   -0.1698080413
 C    0.0524369204    0.0159097710    0.0131119378
 O    0.9275753361   -0.5387276799   -1.0007709124
 C    1.9110700106   -1.2290607432   -0.2137726355
 C    1.0630439100   -1.9588575552    0.8553130935
 C    0.8079667573   -0.4618071089    1.2831597213
 C    2.2891405529   -0.2014336698    0.8787239266
 C    0.2381607632   -0.1354255207    2.6199776485
 O    0.8331604825    0.4362047579    3.5002453348
 H    0.8109915856    2.0578199305   -0.0302528916
 H   -0.4905640221    1.7180521225   -1.1805552593
 H   -0.8628331307    1.9011036386    0.5422091951
 H   -0.9276164193   -0.4764947519   -0.0582146875
 H    2.6257378802   -1.7271641916   -0.8663463807
 H    0.2116530345   -2.5467976894    0.5054543815
 H    1.6526629971   -2.5073397938    1.5911585693
 H    2.9862579930   -0.5833382954    1.6248491489
 H    2.5787290645    0.7976882406    0.5519720582
 H   -0.8119004128   -0.4813834924    2.7710885827