16

 C    0.0813925590    1.5651685688   -0.2496178309
 C   -0.0247132844    0.0719534317    0.0614573593
 N    0.4878034686   -0.7805062667   -1.0018763456
 C    1.8064890950   -1.1263736996   -0.7826927847
 O    2.5929280648   -1.5886948652   -1.5584540806
 O    2.1020279003   -0.8667686056    0.5313404787
 C    0.9036032274   -0.4357645261    1.2082460906
 C    1.2171307207    0.5290291776    2.2472391684
 C    1.4505382799    1.3107455146    3.1282170546
 H    1.1204849830    1.8562259222   -0.4294481536
 H   -0.5045395018    1.8041754758   -1.1429194354
 H   -0.3042800873    2.1612969787    0.5811481480
 H   -1.0611382779   -0.1874635935    0.2988448649
 H    0.2165540767   -0.6337070234   -1.9618453208
 H    0.4459534885   -1.3241911094    1.6629004926
 H    1.6683643674    2.0010813301    3.9059451944