17

 C    0.0697660040    1.3931382126   -0.2712506526
 C    0.0680595979   -0.0830624902    0.1758619366
 C    0.6864472330   -0.2170778405    1.5019879571
 N    1.1554193082   -0.2997960707    2.5546819396
 C   -1.3401867935   -0.6650599903    0.1990261089
 C   -2.0058516575   -1.0957071105   -1.0715639954
 C   -1.5902214476   -2.1466272738   -0.0501896658
 C   -0.4945184942   -3.0201595958   -0.3653767678
 N    0.3929630368   -3.7126491915   -0.6328339232
 H    1.0871538427    1.7903172095   -0.2887559164
 H   -0.3563128990    1.4751064053   -1.2744263716
 H   -0.5252256853    2.0071432836    0.4104430225
 H    0.6787222702   -0.6665510767   -0.5240392685
 H   -1.9820312708   -0.2297596500    0.9589556727
 H   -3.0672928234   -0.9169101737   -1.1946566230
 H   -1.4283339299   -1.0575974120   -1.9885518563
 H   -2.3750752916   -2.6128494254    0.5350229734