16

 C    0.0949182493    1.3487625311    0.2321940677
 O   -0.0316502181   -0.0210280260   -0.1530047118
 C   -1.2951314515   -0.4883369537   -0.0746850694
 C   -2.2310462289   -0.9021109860    1.0025253377
 N   -3.3551513847   -0.1478496172    0.4367667719
 C   -2.6483327793   -0.1929663757   -0.8771255778
 C   -2.5526468852   -1.6937138839   -1.2616956163
 O   -2.8209532609   -2.3122426014   -2.2522478563
 C   -1.7421658151   -1.9654530080   -0.0300654125
 H    1.1513821036    1.6014984248    0.1322097530
 H   -0.5009036179    1.9970369823   -0.4216122756
 H   -0.2255536911    1.4953075597    1.2704791197
 H   -2.0783848014   -1.0540754968    2.0638233322
 H   -4.2338509950   -0.6721054331    0.4192795930
 H   -2.8669480675    0.5799292223   -1.6101442057
 H   -1.1516098663   -2.8259886484    0.2505190803