16

 C    0.1134302491    1.4592682505    0.0207438435
 C    0.0680322628   -0.0329937530   -0.0107747109
 N    0.0716270590   -0.6577488761   -1.1417001665
 C    0.0178850624   -2.0431143577   -1.1195680372
 N    0.1069772396   -2.6348974200   -2.3636069171
 N   -0.0671276303   -2.7912984173   -0.0623934421
 N   -0.0552826829   -2.1072397697    1.1204434399
 C    0.0175574735   -0.7437584921    1.2859181207
 N    0.0355877440   -0.0840856214    2.3914842921
 H    0.9883037701    1.7926475348    0.5879865402
 H    0.1423386827    1.8554040197   -0.9943277571
 H   -0.7546854127    1.8485820485    0.5620285995
 H   -0.2267866162   -2.0527766544   -3.1162610799
 H   -0.2034535056   -3.5939110031   -2.3999567273
 H   -0.1123969608   -2.7034238164    1.9315159834
 H   -0.0073072948   -0.7043912823    3.2022848887