20

 C    0.4922221952    1.6187492105   -0.0964463362
 C    0.1127671193    0.1463972202    0.0134373204
 C    0.7037688826   -0.7967282868   -1.0869766484
 O    1.4447359023   -0.2324329946   -2.1377584665
 C    1.4784019771   -1.5119490157    0.0572197978
 C    2.9286758298   -1.1471962890    0.2457887514
 C    3.0749850793   -0.3688149127    1.3187990055
 C    1.7390140005   -0.1020653673    1.9819799092
 N    0.7466340367   -0.7037986720    1.0787923226
 H    1.5740341293    1.7790675769   -0.1380070831
 H    0.0600924607    2.0291030865   -1.0140359367
 H    0.0967426585    2.1960839554    0.7449667575
 H   -0.9796272126    0.0783312807    0.0835977637
 H   -0.0517683393   -1.4261087084   -1.5620769007
 H    2.2098329054    0.2112787435   -1.7540947561
 H    1.3187548051   -2.5970318948    0.1216663553
 H    3.7277054624   -1.5328516944   -0.3767327863
 H    4.0162824766   -0.0053620348    1.7164403241
 H    1.6993126788   -0.5694069137    2.9780574559
 H    1.5439709222    0.9646845404    2.1387610104