20

 C    0.4698700970    1.6319311130    0.0666084299
 C   -0.0131065612    0.1879136493   -0.0002536374
 C    0.4939023776   -0.5410235349   -1.2565293683
 C   -0.1511017432   -1.9192726107   -1.4672076177
 C    0.4405707500   -3.0422626475   -0.6017958542
 O    0.8532451738   -2.6607906789    0.7054912287
 C    0.0414484679   -1.7596508966    1.4055019782
 O    0.4092744249   -0.4218689103    1.2165691429
 H    1.5637438642    1.6685997860    0.0698814115
 H    0.1046459362    2.2036685326   -0.7915007491
 H    0.1107381333    2.1080536936    0.9825084883
 H   -1.1181550201    0.1787538853   -0.0295554174
 H    0.2599267747    0.0931964770   -2.1198238499
 H    1.5859095392   -0.6250073570   -1.2051824226
 H   -1.2304670968   -1.8325148824   -1.2909084104
 H   -0.0466300337   -2.2288058175   -2.5137486820
 H   -0.2764711784   -3.8759550069   -0.5423443880
 H    1.3502447519   -3.4319053389   -1.0708962909
 H   -1.0252568734   -1.9101535640    1.1628710333
 H    0.2071055061   -1.9602669612    2.4673815551