21

 C   -0.0324264317    1.6287547881   -0.1966175350
 C    0.0231965825    0.1006354900   -0.1328908009
 O   -1.3205638001   -0.3481138364   -0.2456283254
 C    1.1630572914   -0.6728526213   -0.8965203485
 C    2.1289120150   -0.1347171301    0.2055594284
 C    0.8529734403   -0.6134710614    0.9770870761
 C    0.9288752661   -1.8991386984    0.0794016042
 C   -0.2132536799   -2.8927827227   -0.0981603947
 O    2.0912121613   -2.6639998722    0.3870346632
 H    0.9234935142    2.1373754998   -0.0860865863
 H   -0.4477974781    1.9372645226   -1.1655241380
 H   -0.7090146220    1.9944246271    0.5819641300
 H   -1.7377003718    0.1526103056   -0.9537320167
 H    1.3382634040   -0.7021734719   -1.9751372259
 H    3.0224973779   -0.7247220848    0.3729153973
 H    2.3489848757    0.9290564506    0.2108814499
 H    0.6750148454   -0.5772545891    2.0537331452
 H    0.0318708665   -3.5749341432   -0.9251078197
 H   -0.3025032694   -3.4992573446    0.8093942773
 H   -1.1660352412   -2.4238994069   -0.3139761826
 H    2.0693635341   -3.4524933111   -0.1628660980