17

 C    0.0010332181    0.8994703899   -0.9431856654
 C    0.4784137562   -0.5110066730   -0.5933655979
 N    1.5342301260   -0.9757606925   -1.5139578156
 C    2.5052729814   -1.3887031838   -0.8115282362
 N    2.3560960901   -1.4297452498    0.6221732060
 C    2.3603391871   -0.0915785433    1.2481202702
 C    3.0035748886    1.1141989509    0.6442344145
 O    3.6764434070    1.1413834777   -0.3546988709
 C    1.0707945738   -0.7280842975    0.8047987183
 H    0.8245332196    1.6171693071   -0.9092472989
 H   -0.4096986523    0.9111701891   -1.9558039936
 H   -0.7792349726    1.2268760763   -0.2489898854
 H   -0.3773071386   -1.1928906182   -0.6944852465
 H    3.4304800044   -1.7718651292   -1.2268865077
 H    2.5334430477   -0.1224940332    2.3250169970
 H    2.8435803092    2.0300005090    1.2576412028
 H    0.4238107042   -1.1057886897    1.5905164194