21

 C   -0.0851379894    1.7005182499    0.0210658750
 C    0.1042162629    0.1749478812    0.0577677984
 C    0.9108072160   -0.2421315244    1.2959053313
 C   -1.2828098406   -0.5428589320    0.0662301178
 C   -2.1312943370   -0.2097523292    1.2030837034
 C   -2.8260327282    0.0714227592    2.1436455689
 C    0.7837817799   -0.2533646355   -1.2392407619
 C    2.2157049433   -0.5376108715   -1.3917936242
 O    1.2573019315   -1.5988716717   -1.3338571866
 H    0.8825393275    2.2117641400   -0.0044728611
 H   -0.6543412589    2.0117084584   -0.8624004636
 H   -0.6303602886    2.0409631051    0.9054463136
 H    0.3171688410   -0.0866173589    2.2003570872
 H    1.1856982504   -1.2993902049    1.2401325580
 H    1.8257543476    0.3501859430    1.3921186186
 H   -1.8157389641   -0.2955489481   -0.8615882358
 H   -1.1096924977   -1.6255326802    0.0413172399
 H   -3.4485095000    0.3106858819    2.9698440689
 H    0.2533647065    0.0784561497   -2.1360295676
 H    2.6898163683   -0.3917601359   -2.3615375603
 H    2.8834721398   -0.4689357961   -0.5364960998