14

 C   -0.0096796421    1.4231707767    0.0561814312
 N   -0.0341953091   -0.0228882464   -0.0244032659
 C    0.1827061459   -0.8024207031   -1.0992180984
 C    0.0502826387   -2.1206941786   -0.6787088237
 C    0.1935412652   -3.3277670740   -1.4796782881
 O    0.0659870443   -4.4561940422   -1.0560762174
 C   -0.2545090240   -2.0080145227    0.7026029201
 N   -0.3047969901   -0.7452626513    1.0939634326
 H    0.2213705659    1.8295615894   -0.9294459864
 H   -0.9828525207    1.7956824433    0.3851187572
 H    0.7518285262    1.7448611873    0.7707934055
 H    0.4109766135   -0.3845358269   -2.0677543783
 H    0.4378546821   -3.1442388379   -2.5509688466
 H   -0.4343319957   -2.8087583735    1.4035501983