17

 C    0.1415881873    1.4117804513    0.2801065269
 N    0.0033059083    0.0198944077   -0.1523957272
 C   -1.2962488641   -0.5097504392   -0.1034384125
 C   -1.9198797312   -0.9976358250    1.1911266690
 C   -1.7923141335   -1.9331108783    0.0313717784
 O   -2.8723159647   -1.7337910393   -0.8939469255
 C   -2.4325267279   -0.3804723095   -1.1593357386
 C   -3.4729726751    0.6253128831   -0.9488379117
 N   -4.2711179066    1.4413304194   -0.7651124245
 H    1.1984927437    1.6903985308    0.2555286021
 H   -0.4219813463    2.1332401844   -0.3314363107
 H   -0.2090457683    1.5010140638    1.3124108634
 H    0.4387897915   -0.1307214227   -1.0552798716
 H   -1.1864784896   -1.1401658352    1.9777562665
 H   -2.9021680154   -0.6616635551    1.5091784354
 H   -1.2907298085   -2.8922079762    0.0223592823
 H   -2.0438707996   -0.3005602502   -2.1821976319