21

 C   -0.1041120997    1.5142937833    0.0776738915
 C    0.0012236198   -0.0315924601   -0.0015837633
 C   -1.4169443160   -0.6330130068   -0.0370650105
 C    0.7614359954   -0.4329977886   -1.2488388669
 C    1.9311533954   -1.0686131163   -1.2707494803
 C    2.6953080691   -1.4384349061   -0.0282039352
 C    2.2475253063   -0.5885520596    1.1749283350
 C    0.7328402060   -0.5075976596    1.2670626615
 O    0.1353714175   -0.7766305773    2.2838907938
 H    0.8813933643    1.9853902516    0.1378721270
 H   -0.6030404465    1.9002816490   -0.8175010007
 H   -0.6886522541    1.8137976886    0.9528158351
 H   -1.9729171699   -0.2434462520   -0.8960621983
 H   -1.3799408337   -1.7229078966   -0.1210207120
 H   -1.9574670322   -0.3832863823    0.8780796741
 H    0.2638089436   -0.1895970003   -2.1865324463
 H    2.3720332880   -1.3461459220   -2.2250432979
 H    2.5564400955   -2.5062514189    0.1937245896
 H    3.7715614073   -1.3100783772   -0.1916043072
 H    2.6326380844   -0.9717545581    2.1222561568
 H    2.6291705594    0.4320343492    1.0390380543