19

 C    0.2583201975    1.4310050645    0.0676147653
 C    0.0020092266   -0.0395219031   -0.0199825177
 C    0.0062137419   -0.8103958471   -1.1135284101
 C   -0.2644844954   -2.2697929043   -0.8401663474
 C   -0.3384612203   -2.3388525097    0.7000968845
 O   -1.3263912530   -3.1950162992    1.2149308740
 C    0.9827057945   -2.5110241053    1.4763797364
 O    0.9434629667   -1.1548971088    1.9720368352
 C   -0.2611106607   -0.8688772347    1.2093016416
 H    1.1114877522    1.6300884918    0.7269444006
 H    0.4707551582    1.8667209557   -0.9124974674
 H   -0.6017598082    1.9587548200    0.4989761710
 H    0.1891470761   -0.4400202252   -2.1180429481
 H   -1.2116441166   -2.6049884155   -1.2891415550
 H    0.5107448761   -2.9302863684   -1.2487362247
 H   -2.1568203866   -3.0057397542    0.7649775993
 H    0.9151036536   -3.2464173873    2.2850071828
 H    1.8736734850   -2.7055623073    0.8669545919
 H   -1.0591763976   -0.4943007019    1.8621420280