21

 C   -0.0422742802    1.4211442287    0.0306836035
 C    1.2980239175    2.1773631066   -0.0309075226
 C    2.0147202496    2.3475294862    1.2891715919
 C    2.6317102530    1.4041592897    2.0020285227
 C    2.7066168430   -0.0587317257    1.6726423900
 C    1.6719694175   -0.8759780283    2.4759576040
 O    0.3438965008   -0.3822179732    2.3826533082
 C   -0.3267257178   -0.6667202422    1.1901568803
 O    0.1625063222    0.0103977546    0.0646284719
 H   -0.6272744018    1.7480177287    0.8985160570
 H   -0.6190283482    1.6429875912   -0.8768172278
 H    1.9268342028    1.6528182006   -0.7607203414
 H    1.0983415539    3.1678134255   -0.4551812964
 H    2.0070682871    3.3576655102    1.6938721764
 H    3.0825917395    1.6963765176    2.9497229277
 H    2.5409163536   -0.2279235116    0.6070342366
 H    3.6986466338   -0.4574267244    1.9242563013
 H    1.7060962814   -1.9303076716    2.1586680016
 H    1.9161993424   -0.8379057496    3.5427441371
 H   -0.2420123080   -1.7332652417    0.9348354061
 H   -1.3764449419   -0.4065538312    1.3838317518