19

 C   -0.1290178335    1.6112699151    0.0485964337
 C    0.0232974168    0.0969783969    0.0156126573
 C    1.1946904925   -0.6057082419   -0.7524942164
 C    2.1620018163   -0.1524101789    0.3803278693
 C    0.8629004138   -0.6587685415    1.0807550055
 O    0.5440680391   -0.6663667532    2.4189422587
 C    0.9372388578   -1.9011018848    0.0899544867
 C   -0.2435912588   -2.7905937817   -0.1482064241
 O   -0.1895086889   -3.9898002256   -0.0055839336
 H    0.8089576306    2.1494538324    0.2000089097
 H   -0.5664632775    1.9662145209   -0.8906580822
 H   -0.8092642456    1.8993931625    0.8567560336
 H   -0.9572760737   -0.3467938592   -0.1659950285
 H    1.3900706596   -0.5790071031   -1.8220624100
 H    3.0586568356   -0.7624500850    0.5176732971
 H    2.3926139249    0.9094145481    0.4540389790
 H    1.2193868178   -1.1567821428    2.9009003991
 H    1.8156642632   -2.5358620859    0.2380637120
 H   -1.1924454400   -2.3115751923   -0.4681511172