17

 C    0.6858920316    1.1206166402    1.3601524342
 N   -0.1110218327    0.4788023531    0.3169366917
 C    0.4443904552   -0.7940629869   -0.1562793665
 C    0.4894749065   -1.9289775708    0.8240583675
 C   -0.4527106915   -2.8987513229    1.1140937657
 N   -1.7081589913   -3.1141405151    0.6176791012
 O   -0.0189535022   -3.6854794953    2.0760913548
 N    1.3429519008   -3.1508746221    2.4295491186
 N    1.5318196173   -2.1760401867    1.6781537991
 H    1.6659170286    1.3880073269    0.9493154102
 H    0.1899399421    2.0453786855    1.6691342214
 H    0.8586752689    0.5026336322    2.2550874531
 H   -1.0512470643    0.3202551356    0.6666199331
 H   -0.1369195427   -1.1025545348   -1.0356425096
 H    1.4622683334   -0.6006604837   -0.5121635823
 H   -1.8840495081   -2.7445906441   -0.3042860992
 H   -2.0749734316   -4.0433364411    0.7608262270