17

 C   -1.1557785557    1.2284748739   -0.2146255984
 N   -0.3078409088    0.0435638172   -0.0368969373
 C   -0.2115000344   -0.4470320579    1.3239151027
 N    0.5639218030   -1.5341004665    1.4966732920
 O   -0.8104079109    0.1209848639    2.2136083401
 C    0.3218796418   -0.5145806161   -1.1193865478
 O    1.0500856229   -1.5033549673   -1.0765368795
 C    0.1033761907    0.1404300653   -2.4868239861
 O    0.8117373206   -0.5471398704   -3.4704884769
 H   -1.9912449240    1.0168456349   -0.8871587138
 H   -1.5419279754    1.4881862065    0.7677804872
 H   -0.5792221424    2.0687444754   -0.6103073744
 H    1.0368242976   -1.9599155539    0.7111224403
 H    0.6382194935   -1.8826368194    2.4363450934
 H   -0.9748477042    0.1505377128   -2.7106988771
 H    0.4215085424    1.1933924825   -2.4347836781
 H    1.2580878834   -1.2714274711   -3.0022322763