15

 N   -0.0702878735    1.3864610121   -0.3791593042
 C    0.0474252795    0.1956495970    0.0389156385
 N   -1.0615647659   -0.6188475182    0.1454061741
 C   -1.2613977303   -1.7764958406    1.0017127058
 C   -0.3023027331   -2.9310113249    0.7134287593
 O   -0.6600746860   -4.0369318318    0.4344311095
 O    1.0270564648   -2.6523138074    0.8085431648
 C    1.4325127066   -1.3684905481    1.2472068965
 O    1.2790504787   -0.3696953894    0.2765049514
 H    0.8464300536    1.8135888994   -0.4871329038
 H   -1.8982259125   -0.0914860193   -0.0536491250
 H   -1.2232840898   -1.5388847129    2.0780501524
 H   -2.2565793989   -2.1684314973    0.7954035208
 H    0.9222516606   -1.0969367536    2.1785748398
 H    2.5044314063   -1.4529458349    1.4207287601