18

 O    0.7612177830    0.2233847700   -1.0580506619
 C    0.1417363617   -0.2876203643    0.1126587236
 C   -1.3902871178   -0.3995329053   -0.0172078212
 C   -2.3558775588    0.6118644194    0.6602824087
 O   -1.7804187354    1.8979880914    0.7820039196
 C   -1.4597663965    2.3347248354   -0.5515870608
 C   -2.2091699897    1.3845029017   -1.4692038268
 C   -3.1400557070    0.5780623529   -0.6710613641
 N   -1.9799459433   -0.0947054511   -1.3775297536
 H    0.3250432995   -0.1921139235   -1.8112131525
 H    0.5601731808   -1.2719517698    0.3688567332
 H    0.3932986817    0.4033092554    0.9236345763
 H   -1.7157375646   -1.4178570880    0.2191270019
 H   -2.8288171880    0.3434325849    1.6040635330
 H   -1.8143141070    3.3643520844   -0.6803965855
 H   -0.3791857806    2.2983382783   -0.7186814405
 H   -2.4548738919    1.6980911579   -2.4771900734
 H   -4.1793373161    0.3518279304   -0.8711918361