21

 C   -0.0897532914    1.4777335775    0.0090865415
 C    0.0247855158   -0.0233414376   -0.0413536608
 C    0.6238609687   -0.7219013405   -1.2821622819
 C    0.5663792088   -2.1091255564   -0.6060699604
 C    1.6171068414   -1.8405759388    0.4999252070
 C    0.7384212147   -0.7806500422    1.2065072178
 C   -0.3964274473   -1.7264402243    1.6622506641
 C   -0.8247813269   -1.9810481477    0.2056314110
 O   -1.2752343195   -0.6525159787   -0.0991210559
 H    0.9023559628    1.9390403315   -0.0082074610
 H   -0.6566657004    1.8482425668   -0.8508064199
 H   -0.6035326069    1.7996127463    0.9200685466
 H   -0.0379203902   -0.5820197497   -2.1385725114
 H    1.6435027442   -0.4373856276   -1.5537117727
 H    0.6837896327   -2.9943969151   -1.2292505732
 H    1.8404893491   -2.6899364529    1.1501116385
 H    2.5586274318   -1.4686222826    0.0888951232
 H    1.2015222957   -0.1334652423    1.9505230299
 H   -0.0197010445   -2.5863297464    2.2215228412
 H   -1.2144531020   -1.2591947569    2.2123921930
 H   -1.6026876068   -2.7115505324   -0.0110355867