15

 N   -0.0005165151    1.3528181428    0.0127993145
 C   -0.0874293455   -0.0387498643   -0.0048712414
 C   -1.1955854630   -0.8424382488   -0.0130095615
 N   -2.5261174380   -0.4153756457   -0.0680258038
 C   -0.7145515213   -2.1860714392   -0.0391341271
 C    0.6543562520   -2.1125163874   -0.0411929192
 O    1.0542295180   -0.8072095432   -0.0346220470
 C    1.6446476580   -3.1092500321   -0.0451144082
 C    2.4856124603   -3.9726263300   -0.0497178297
 H    0.6213645852    1.6927249199    0.7398895901
 H    0.3114720834    1.7437388126   -0.8720600933
 H   -2.6007079265    0.5671484507    0.1691007651
 H   -3.1427778020   -0.9607220418    0.5205642082
 H   -1.2981812510   -3.0930781667   -0.0534243701
 H    3.2263696952   -4.7330273167   -0.0548101765