21

 C   -0.1300814278    1.5253231153   -0.0669709797
 C    0.0484683945    0.0193502673    0.0219631081
 O    0.8354160743   -0.4403684685   -1.0920380368
 C    1.5461984052   -1.5907697238   -0.6610404863
 C    1.7517274172   -2.6036147713   -1.7500890559
 C    2.6068991560   -1.3980862655    0.4124608507
 C    2.3163925216   -0.1191859379    1.1936656001
 C    0.8061348615   -0.5329128762    1.2344729638
 C    1.2126404633   -1.9513740634    0.7474877471
 H    0.8285050564    2.0465823824   -0.0019067122
 H   -0.5985130531    1.7944913752   -1.0178890298
 H   -0.7762716005    1.8787810643    0.7431327679
 H   -0.9435408999   -0.4632943943   -0.0226473658
 H    2.3112050763   -2.1656152801   -2.5830675492
 H    2.3149838235   -3.4638595155   -1.3766509100
 H    0.7909410206   -2.9580398058   -2.1365015659
 H    3.5528161434   -1.9279193157    0.3749026498
 H    2.7601165151   -0.1486712895    2.1919259738
 H    2.5689290847    0.8333885458    0.7177802407
 H    0.2861580427   -0.4258421515    2.1859305709
 H    0.8876099252   -2.9162606015    1.1149816387