21

 C    0.1422413255    1.6488274474   -0.0412722337
 C   -0.0332026570    0.1293461602    0.0650879505
 C    0.3987663325   -0.5368887414   -1.2647340864
 O    0.6278663075   -1.9347135865   -1.1977685436
 C   -0.3582048791   -2.6812851888   -0.5569539342
 C    0.1599168991   -3.8571216576    0.2118582381
 C   -0.3973169292   -2.6542341505    0.9568816007
 C    0.5121066195   -1.7122887065    1.6663681619
 C    0.6910439593   -0.4552796763    1.2587403089
 H    1.2006884122    1.9147200288   -0.1441756588
 H   -0.3897270436    2.0520698192   -0.9093720379
 H   -0.2440353473    2.1516636749    0.8505421733
 H   -1.1033005042   -0.0761699025    0.1950165415
 H   -0.3559736337   -0.3057281962   -2.0340859285
 H    1.3525834709   -0.1152709776   -1.6001393694
 H   -1.2973922500   -2.7755836417   -1.1042044677
 H   -0.4135986383   -4.7771704195    0.2124890160
 H    1.2368416459   -3.9821861227    0.2052714351
 H   -1.3704575677   -2.8111237683    1.4210924581
 H    1.0366052880   -2.0821716868    2.5452958149
 H    1.3796173196    0.1948468625    1.7947869011