16

 N   -0.0180320849   -1.1559357122   -0.2029194916
 C   -0.0067990716   -0.0089021586   -0.0673855918
 C   -0.0142740882    1.4561268914    0.0240601470
 N   -0.5919422679    1.9339548938    1.3017298464
 C    0.2109645843    3.0908412457    1.6817111557
 C    1.6859745894    2.8680250191    1.9246907997
 N    2.0694049693    1.5810160927    1.3036194755
 C    1.4038308626    2.0646728106    0.0374194531
 C    1.2057798269    3.4905896768    0.6221400213
 H   -0.5600973066    1.8412130012   -0.8510860879
 H   -1.5601281914    2.2023043201    1.1732066378
 H   -0.2857606085    3.8407590607    2.2849854477
 H    2.2247608911    3.2880909582    2.7660311230
 H    3.0748168787    1.5894380435    1.1498438971
 H    1.9676735883    1.9153125672   -0.8811319255
 H    1.3371382385    4.4523810299    0.1425645822