15

 C   -0.1385868914    1.5599555337    0.0054714824
 C    0.0371695305    0.0475868053    0.0301114404
 C    1.2001263466   -0.6427693430   -0.7840120670
 C    2.1782625343   -0.1631713221    0.3437626592
 C    0.9177337896   -0.6441837070    1.1427160901
 C    0.9462865859   -1.8269039091    0.1619738093
 O    0.8377770155   -3.0134736735    0.1452001976
 H    0.7897324310    2.1186093550    0.1413820035
 H   -0.5748492159    1.8697902997   -0.9499632090
 H   -0.8299011196    1.8686470171    0.7966569985
 H   -0.9375007696   -0.4298527678   -0.1130851061
 H    1.3602005511   -0.6337800704   -1.8603311311
 H    3.0992736459   -0.7332094105    0.4783289254
 H    2.3743410966    0.9071159283    0.3732942942
 H    0.7622031295   -0.6367754955    2.2197136025