17

 C   -0.4646347950    1.4204681244    0.0069062580
 C    0.1274666515    0.0280889904   -0.0820728854
 O    1.2291881255    0.0224931752   -1.0312651497
 C    2.1948379556   -0.7296136697   -0.4690505668
 N    2.0695825345   -1.1546992285    0.7198674882
 C    0.7871392992   -0.5891422687    1.2135356929
 C    1.0933905973    0.4075745177    2.3451687121
 C   -0.0670338854   -1.6668560318    1.7355869458
 N   -0.7733639107   -2.4859023210    2.1419249517
 H    0.2696206275    2.1514992392    0.3525528851
 H   -0.8219604017    1.7317143719   -0.9780378787
 H   -1.3164657986    1.4242496898    0.6931100200
 H   -0.6195279689   -0.6715450554   -0.4705301411
 H    3.0552169801   -0.9116876426   -1.1037605893
 H    1.7313037534    1.2107003660    1.9691315025
 H    0.1775772569    0.8372983035    2.7581523313
 H    1.6295873089   -0.1112975705    3.1418775133