16

 C    0.0720023069    1.5156906274    0.1348730074
 C   -0.0591703911   -0.0050712661   -0.0613854657
 C    0.6954520374   -0.5127654075   -1.2520671289
 N    0.0752170392   -0.7973583444   -2.3737203009
 O    1.0461674788   -1.2287529985   -3.2591436829
 C    2.2485323903   -1.1818105290   -2.6449704539
 C    2.1060763706   -0.7405396970   -1.3665375462
 N    3.0462351680   -0.6265899397   -0.3327406808
 H    1.1149173294    1.8237392291    0.2700523946
 H   -0.3192118778    2.0517602883   -0.7343522228
 H   -0.4852952325    1.8400306388    1.0186449553
 H    0.3004210840   -0.5266032990    0.8339009028
 H   -1.1129207108   -0.2684651301   -0.1880029425
 H    3.0950199041   -1.5009540585   -3.2320118392
 H    4.0015202717   -0.6747606902   -0.6622241756
 H    2.9285349819    0.2165957764    0.2146439393