19

 O   -0.1971889903    1.3781681104   -0.0382639412
 C   -0.0301445312   -0.0285173414    0.0107313824
 C    0.1301286527   -0.6241026403    1.4353827384
 C   -1.4119722856   -0.4902213417    1.5982068517
 C   -1.4407185364   -0.6635812822    0.0454419450
 O   -2.4407799491   -0.1051690670   -0.7484292499
 C   -1.3117526421   -2.1593200636   -0.2766808255
 O   -0.5942747505   -2.8479648949    0.7365249976
 C    0.4863974904   -2.1125519091    1.2946377410
 H    0.6512143685    1.7998800725    0.1276832392
 H    0.6689759062   -0.3714552229   -0.7659749158
 H    0.7936717101   -0.1068225593    2.1327584545
 H   -1.9324177917   -1.2327328460    2.2047259763
 H   -1.7002711741    0.5210154288    1.8853789766
 H   -2.2721912021    0.8452785017   -0.7695523705
 H   -2.3084191190   -2.6094291007   -0.3172903747
 H   -0.8369495658   -2.2852875514   -1.2629156854
 H    1.3979669326   -2.2285336564    0.6834365172
 H    0.6796404776   -2.5648048265    2.2728179631