18

 N    0.1096833146    1.3453036991   -0.2634356155
 C    0.0403625192    0.0856526063   -0.2188052768
 O    1.1118272871   -0.7579979241   -0.2818590824
 C    0.6912940911   -2.1271348281   -0.1436165887
 C   -0.8047176329   -2.1332207431   -0.4850882197
 C   -1.2456283820   -0.7147302992   -0.0760862040
 C   -1.7681445261   -0.6391034904    1.3454648160
 C   -2.7773486278    0.3439870923    1.7412082044
 O   -3.1279226747   -1.0305266971    1.5318218475
 H    1.0816746552    1.6499945946   -0.3424721847
 H    1.3013037303   -2.7334960086   -0.8166508157
 H    0.8832353343   -2.4521567600    0.8864552528
 H   -0.9449490696   -2.2753178703   -1.5601379427
 H   -1.3559363162   -2.9190215091    0.0353197574
 H   -2.0104162578   -0.3065912325   -0.7387978947
 H   -1.0890188400   -1.0121582893    2.1152220732
 H   -2.8254176817    0.6858586961    2.7733833923
 H   -3.1562867031    1.0438194135    0.9990629412