16

 N    0.0070867353   -1.1663506545    0.1133624118
 C   -0.0305344748   -0.0093020386    0.0625727671
 C   -0.0331475235    1.4158559880   -0.0068394080
 C   -1.1885183264    2.1010605144    0.0413667666
 C   -1.1987450951    3.5785327302   -0.0240314345
 O   -0.3064543920    4.2813150575    0.8723884268
 C    0.0136616893    4.2667375713   -0.5135905707
 C    1.1969005953    3.4260176402   -0.9347189337
 C    1.3035787080    2.1239425404   -0.1168572573
 H   -2.1367714548    1.5799401424    0.1147172757
 H   -2.1678974060    4.0573496297   -0.1384159877
 H   -0.1101899451    5.2238842309   -1.0209113454
 H    1.0846977062    3.1967079798   -2.0021409225
 H    2.1242244829    3.9985604013   -0.8282966548
 H    1.6576396062    2.3599193637    0.8922567148
 H    2.0447300946    1.4578906435   -0.5657139382