21

 C    0.8102801065    0.6599471419   -1.7714399059
 C    1.2694796936   -0.6661480981   -1.1783463605
 O    0.4353268812   -1.7175972108   -1.6603435277
 C    2.7826468229   -1.0862201541   -1.2585491819
 C    2.7602014145   -1.3866918696    0.2492918442
 C    2.4406056365   -0.1575340034    1.0593383152
 C    3.0166674576    1.2231086967    0.8279455768
 O    4.2474277526    1.3847223308    1.5226874064
 C    1.3194879797   -0.8636343833    0.3425460603
 H    1.3886867633    1.5100275085   -1.4044538616
 H    0.9090481293    0.6429230487   -2.8649554799
 H   -0.2440435150    0.8280614607   -1.5311655422
 H    0.4522782123   -1.6852184969   -2.6232885545
 H    2.8863626772   -1.9855707048   -1.8681073043
 H    3.5032444775   -0.3367942212   -1.6029599129
 H    3.1773313568   -2.2777922874    0.7023478435
 H    2.4061139717   -0.3763092063    2.1262078710
 H    3.1456871236    1.4389484681   -0.2405573671
 H    2.3463655326    1.9882207520    1.2346826978
 H    4.8306694514    0.6751158726    1.2328631690
 H    0.4807322743   -1.2812111040    0.8873276244