19

 O   -0.0382037003   -0.1428783656   -0.1922442972
 C    0.0404127918    1.0568310782   -0.1543780208
 C    1.3336110823    1.8419284815   -0.1381058106
 C    1.3758065932    2.8926001226   -1.2588582187
 C    2.6193165563    3.7679268789   -1.1797338568
 O    2.5745279309    4.7010664721   -2.2394903505
 C    3.6847041542    5.5588393673   -2.2835218948
 C    3.5131453230    6.4980298259   -3.4654365633
 O    4.3002297238    7.3604771792   -3.7491288741
 H   -0.8773412682    1.6913107957   -0.1296601603
 H    1.3939676844    2.3490474992    0.8366868672
 H    2.1681360699    1.1377838478   -0.2048441024
 H    1.3523331483    2.4007799242   -2.2374967940
 H    0.4903315828    3.5373016806   -1.2066286043
 H    2.6595430973    4.2920517220   -0.2093792106
 H    3.5311101453    3.1513156845   -1.2514815793
 H    3.7825659795    6.1606566592   -1.3639186597
 H    4.6316320357    5.0055744365   -2.4063341766
 H    2.5851876496    6.3124283802   -4.0498396031