17

 O   -0.3416164110    0.5156421837   -0.6558406099
 C    0.2042279377    1.0220813591    0.2834497670
 C    1.3365290653    2.0605270155    0.1418642124
 C    1.4194557938    2.6661578486   -1.2771560317
 C    2.7378310388    3.3486402801   -1.5592088841
 C    2.7959571831    4.5317232003   -2.4521035827
 N    3.0518772292    4.6768466682   -1.0099982416
 C    1.1951497563    3.0722528888    1.1892179139
 N    1.0337612644    3.8692225272    2.0108088149
 H   -0.0501991696    0.7578739576    1.3303951193
 H    2.2622903574    1.5011587104    0.3531134599
 H    1.2582620849    1.8456674049   -1.9830225776
 H    0.5883211814    3.3666839181   -1.4132212440
 H    3.5961042068    2.6768732468   -1.5514873703
 H    3.6599303963    4.6916467217   -3.0905169870
 H    1.8590869464    4.9048572903   -2.8589776260
 H    2.2391828388    5.0709100587   -0.5415896025