20

 C    0.2600376912    0.5984683112   -1.4787224936
 C    0.0241157176    0.2086585004   -0.0198324572
 N   -1.2564877188   -0.4834355662    0.1223125871
 C   -1.3877313891   -1.8561229048   -0.3593833938
 C   -0.8711785113   -2.8548671603    0.6738747384
 O    0.0458827924   -2.4002406819    1.6472106596
 C   -0.6110712309   -1.3589968425    2.3840128571
 C   -1.7512707173   -0.9127890736    1.4700441694
 C   -2.2252960500   -2.2498893207    0.8442982786
 H    1.1971823739    1.1538892035   -1.5819232935
 H    0.3306691658   -0.2883650012   -2.1175683419
 H   -0.5599081317    1.2190974034   -1.8513649985
 H    0.8744636894   -0.3878537571    0.3447764117
 H   -0.0276877955    1.1166193349    0.5944396399
 H   -1.5246653283   -2.0884869126   -1.4107396999
 H   -0.7363392976   -3.8952220337    0.4013631716
 H   -0.9968417054   -1.7420470743    3.3420388896
 H    0.1202614252   -0.5719730426    2.5914502604
 H   -2.4750674954   -0.2343363279    1.9270081280
 H   -3.1842503142   -2.7380467239    0.9383492070