13

 C    0.0053630754    1.5363774106   -0.0520257342
 N    1.3882725369    2.0045336060    0.1149263075
 C    2.3512291730    1.2146762709    0.2548120245
 O    2.3394379500   -0.1859276889    0.2829761413
 C    1.0961143828   -0.6659970641    0.1340812555
 C   -0.0502317783    0.0381647797   -0.0274529146
 C   -1.0104893953   -1.0018369296   -0.1282560776
 N   -0.4768801296   -2.1990951374   -0.0349351436
 O    0.9117883551   -1.9762693787    0.1381949499
 H   -0.5964716462    1.9939247084    0.7437234642
 H   -0.3745283206    1.9572305135   -0.9918854365
 H    3.3744977768    1.5529541053    0.3785455123
 H   -2.0808185899   -0.9306656357   -0.2666784186