17

 C    0.0820195753    1.5593976708   -0.0617418783
 C    0.1198417035    0.0479476234    0.0704240635
 N    1.1093942010   -0.6562011055   -0.7820586655
 C    1.3587471906   -1.6475598086    0.2792520311
 C    2.7461464520   -2.1021233098    0.4066793760
 N    3.8343870282   -2.4764712610    0.5118601526
 C    0.7868466424   -0.6328241044    1.3210891655
 C    1.8222009547    0.2334043380    2.0019374996
 O    1.6733645779    0.6847659804    3.1079428288
 H    1.0829121573    1.9926339742    0.0056571241
 H   -0.3423959684    1.8424914691   -1.0306610774
 H   -0.5451844181    1.9984241969    0.7207823618
 H   -0.8975194213   -0.3580363328   -0.0386241927
 H    0.7756820102   -1.0293395521   -1.6647623027
 H    0.7150099695   -2.5378473484    0.2373759999
 H    0.1064562297   -1.0355181359    2.0700882864
 H    2.7326177356    0.4483855857    1.4038990773