18

 C   -0.2364947978    1.5148445056    0.0502265084
 C   -0.3525367688    0.0011979230   -0.1102854843
 O    0.9150537685   -0.6417855033    0.0203875851
 C   -1.3789497548   -0.6070280553    0.8604204643
 C   -1.5166238564   -2.0967640108    0.6715533587
 O   -2.6044115847   -2.7510406447    1.3248559794
 C   -2.6190015272   -2.7149585151   -0.1026110356
 C   -3.6441764844   -1.9013983006   -0.7209903785
 N   -4.4523279078   -1.2564832867   -1.2381303783
 H    0.5153445406    1.9095648859   -0.6380330769
 H   -1.1910743610    2.0089583058   -0.1546997176
 H    0.0613805707    1.7764700295    1.0737218368
 H   -0.6655393668   -0.2250975153   -1.1369703361
 H    1.3116765016   -0.3433250930    0.8468273970
 H   -1.0549393055   -0.4168518201    1.8931936394
 H   -2.3528552390   -0.1232856304    0.7357668494
 H   -0.5818341292   -2.6548699784    0.6890445691
 H   -2.4539566479   -3.6720204363   -0.5938606804