18

 C   -0.0749646852    1.3992091226    0.1168137995
 N   -0.0181289217   -0.0479141212    0.0370163991
 C    0.5618549516   -0.5722033488   -0.9782288669
 C    1.2041222286    0.0477859534   -2.1192958884
 C    1.7621699982   -0.7120402054   -3.0934245204
 N    1.7715821670   -2.0869619558   -3.0912114844
 C    1.1953869797   -2.6374174288   -2.0668880570
 N    0.6051921167   -1.9898451832   -1.0344350474
 C   -0.0109186323   -2.7256359627    0.0624942110
 H    0.9223777634    1.8646933974    0.1506781271
 H   -0.6174059125    1.8529297373   -0.7272271204
 H   -0.5993708347    1.6847325466    1.0328203973
 H    1.2278449333    1.1275483850   -2.1755388082
 H    2.2442192014   -0.2486954027   -3.9500136075
 H    1.1659606730   -3.7226456896   -1.9998378245
 H    0.1034106116   -3.7953966597   -0.1196879837
 H    0.4616358667   -2.4478358722    1.0072448188
 H   -1.0686292749   -2.4634726222    0.1376743058