19

 C    0.1168900920    1.4848540702   -0.3081596927
 C   -0.0079351419   -0.0192703443   -0.0310469427
 C   -1.4661406228   -0.4244727531    0.1782176517
 N    0.6243952003   -0.7961560754   -1.1255367566
 C    1.9124907789   -1.0843348324   -0.7114486311
 N    2.1855699661   -0.9556558585    0.5295571065
 C    0.9171546705   -0.5037279879    1.1551062911
 C    1.1177672642    0.4723670502    2.2180139792
 C    1.2545535168    1.2688987209    3.1074162077
 H    1.1653233411    1.7760073940   -0.4184908108
 H   -0.4181551424    1.7444557716   -1.2288260759
 H   -0.3105951921    2.0695749043    0.5096843885
 H   -2.0878893680   -0.1197482426   -0.6704965253
 H   -1.5537170728   -1.5080891989    0.2929024852
 H   -1.8674837534    0.0569050949    1.0759131385
 H    0.5046233365   -0.4463803868   -2.0672006980
 H    2.6326607131   -1.4495739240   -1.4391550385
 H    0.4467925151   -1.3933470890    1.6015280648
 H    1.3935401187    1.9689276370    3.8937559885