18

 C    0.0154493834    1.4828632116    0.1675023855
 O    1.4348766241    1.5841939575   -0.2270136258
 C    1.3137638248    0.2654711339   -0.7537275860
 C    2.1032084864   -1.0274373463   -0.7652784829
 C    0.8973398464   -1.7504216055   -1.4959055875
 C    0.9450697103   -1.0990828407   -2.8895656812
 C    0.4407036731    0.0922021963   -2.0925404505
 N   -0.3911604801   -0.8450180302   -1.2088003306
 C    0.0547915305   -0.0714471680   -0.0067511155
 H   -0.1231244244    1.8230794591    1.1960764394
 H   -0.6334658650    2.0498239232   -0.5061118346
 H    3.0038314711   -1.0685944694   -1.3821123907
 H    2.3263843828   -1.3991461589    0.2368891180
 H    0.7706974672   -2.8187216896   -1.3326061483
 H    1.9094202227   -1.0480415978   -3.3995094556
 H    0.1699084642   -1.4766875284   -3.5597464834
 H   -0.0302810530    0.9741762683   -2.5242637186
 H    0.0641541356   -0.6238359554    0.9351551082