22

 C    0.0490599269    1.3211338064   -0.5083803088
 C    0.0190393851   -0.1767395013   -0.2008151513
 O    0.7319396379   -0.9311871535   -1.1802690500
 C    0.6658908936   -0.5119675361    1.1236677446
 C    2.1097362840   -0.2341608391    1.6087445060
 N    1.5033915408   -0.9685934330    2.8188640145
 C    0.2778072834   -0.0739624725    2.5537611494
 C    0.9017265166   -1.9165436324    1.7476619472
 C   -0.2110535994   -2.8620926259    2.1568684105
 H    1.0814573963    1.6809699251   -0.5526037002
 H   -0.4284711061    1.5297467559   -1.4726141870
 H   -0.4882726489    1.8909340394    0.2566076328
 H   -1.0327641674   -0.5105739934   -0.1605321646
 H    0.3591214394   -0.7249290813   -2.0432574969
 H    2.9263186455   -0.7783041166    1.1281464989
 H    2.3903015896    0.7988061923    1.8319159046
 H    0.4451384848    0.9713377730    2.8292133144
 H   -0.6519166450   -0.4384808943    2.9922499013
 H    1.6979801490   -2.4894430065    1.2613152374
 H   -1.0892633483   -2.3667468699    2.5771466029
 H   -0.5382221514   -3.4377163741    1.2844854123
 H    0.1627116436   -3.5714482422    2.9027884219