17

 C    0.0774542893    1.7599836751    0.1089150079
 C   -0.0412587812    0.2504618059   -0.0585909937
 C    0.5628575353   -0.5113995614    1.1406698810
 C    0.6068540258   -1.9545586951    0.9473502556
 C    0.6446061368   -3.1415172143    0.7618961849
 O   -1.4328086667   -0.0548732802   -0.1719248285
 C   -1.8094170193   -1.0183122107   -1.0379119861
 N   -3.0246514820   -1.3482714561   -1.1187204325
 H    1.1273423416    2.0587047079    0.1799384888
 H   -0.3746040916    2.2708842820   -0.7444743616
 H   -0.4407994405    2.0861967429    1.0156191957
 H    0.4750182725   -0.0658669339   -0.9748354803
 H    1.5765527435   -0.1319917692    1.3196282811
 H   -0.0297411141   -0.2678445155    2.0308053168
 H    0.6736198724   -4.1929660888    0.6160514831
 H   -0.9774593667   -1.4297197936   -1.6234646346
 H   -3.1385076852   -2.0694304750   -1.8278445477