12

 N   -0.0784643481    1.2681851722    0.6202823905
 C   -0.0262345813    0.1328889795    0.0429643630
 C    1.2435242425   -0.4874720935   -0.3736108470
 N    1.6012575025   -1.4518514526   -1.1323468548
 O    0.7597977152   -2.2802303728   -1.8652708947
 N   -0.6127238415   -2.3802753801   -1.8655472818
 C   -1.4300028827   -1.6977459779   -1.1568648281
 C   -1.3380655146   -0.5859522176   -0.1736534336
 O   -2.3379546531   -0.2583974790    0.4180527716
 H    0.8563628066    1.6711581635    0.7320174149
 H    2.1214933660    0.0017396439    0.0528146067
 H   -2.4630138716   -2.0012236158   -1.3212498565