21

 C    0.0321075224    1.6231483357    0.1522372174
 C    1.2751008091    0.7950203172   -0.0632607434
 C    2.3753946174    0.6817953786    0.9818840663
 C    2.7726578445   -0.7507131814    1.2763489373
 C    1.9554667523   -1.7295047653    1.6780539978
 C    0.4994613564   -1.6817816050    1.9678625168
 C   -0.1420123840   -0.5018868891    2.6834782358
 C   -0.4743060034   -0.7508758353    1.2412807330
 C   -0.0672803283    0.1134536317    0.0853880898
 H   -0.0913894487    2.0805493548    1.1292973734
 H   -0.3651691665    2.2113165683   -0.6681160171
 H    1.6581975132    0.7788517384   -1.0798899033
 H    3.2501931289    1.2355424072    0.6246213689
 H    2.0800077321    1.1911693557    1.9069649489
 H    3.8228662699   -0.9987224979    1.1435678308
 H    2.4011183294   -2.7099932494    1.8343775026
 H    0.0859160260   -2.6498861731    2.2324301093
 H   -0.9041529285   -0.7177689416    3.4244739443
 H    0.4952006762    0.3320480800    2.9474153150
 H   -1.4557460692   -1.1927775676    1.0890229511
 H   -0.4594538093   -0.2701473119   -0.8531273948