16

 C    0.1329193214    1.3293557547   -0.1334710101
 O   -0.1597905503   -0.0287826193    0.1683186611
 C    0.5734120115   -0.5276266112    1.1999441262
 C    0.5477783541   -0.2570878720    2.7521244593
 C    2.0143516207   -0.6592687807    2.8272041018
 C    0.9282197995   -1.7134723456    2.9827571278
 C    0.9461547843   -1.9676411864    1.4467154986
 C    2.0515003500   -0.9077188414    1.2911399211
 H    1.1889030422    1.4557495611   -0.4056853808
 H   -0.4991175128    1.6098589697   -0.9784035111
 H   -0.0922555210    1.9857760630    0.7177946568
 H   -0.0187800514    0.4107637791    3.3873247604
 H    2.7727557002   -0.3336475458    3.5271534424
 H    0.6936931308   -2.3554161577    3.8218403049
 H    0.7529894643   -2.8414031621    0.8398002392
 H    2.8411416065   -0.8601857054    0.5537721526