16

 O    0.1320065092    1.5415066967    0.1236874666
 C    0.0332766464    0.1329068373    0.0680264242
 C    0.0541933669   -0.6306818370    1.4065295259
 C   -1.0355473382    0.0426396391    2.2553314532
 C   -2.1492891020    0.1096021547    1.1535859591
 O   -2.6189451135    1.3964095604    0.8239863360
 C   -1.3456956953   -0.5807986401    0.0218414932
 O   -0.6988820745   -1.6861659445    0.7203041975
 H    0.3026912246    1.8739623710   -0.7627769984
 H    0.7319185577   -0.3088046141   -0.6471363005
 H    0.9747362093   -0.9712579679    1.8792309211
 H   -1.3103372733   -0.5796856550    3.1089030418
 H   -0.7608923664    1.0390870172    2.6102856223
 H   -3.0256523846   -0.4832863728    1.4225811961
 H   -1.8350719539    1.9188310710    0.6072314017
 H   -1.8607315825   -0.8595355160   -0.8969402399