15

 O   -0.1701334214    1.3783012445    0.0728485149
 N    0.0053190936   -0.0297042387    0.0722791251
 C   -1.1053060138   -0.6232605911    0.0051324327
 C   -2.6148034026   -0.4164506629   -0.0194491016
 C   -2.6280679692   -1.5922640561   -1.0532894851
 C   -1.5873362645   -2.0611345944    0.0172427841
 C   -2.6284392044   -1.5462241664    1.0816081172
 O   -2.2389793462   -1.2802256447    2.3876009259
 H    0.7412513153    1.6885398511    0.0990936426
 H   -3.1757634113    0.5136929116   -0.0434160792
 H   -3.5541936183   -2.1715451066   -1.0980396709
 H   -2.2345210927   -1.3693757218   -2.0444122760
 H   -0.9985658167   -2.9753184990    0.0348057329
 H   -3.5561700178   -2.1209643138    1.1284586116
 H   -1.4062563101   -0.7906882016    2.3692348059