14

 N   -0.0762532073    1.1887210152   -0.4390258300
 C   -0.0084328342    0.0154063957    0.0053283874
 O    1.1723555826   -0.6363864706    0.2555005990
 C    1.0959796351   -1.9663575352    0.8030967868
 C    0.0322642605   -1.9809111459    1.9314491266
 C   -1.0280667816   -1.9933606179    0.7984700117
 O   -1.1555626856   -0.6710122825    0.2567121323
 C    0.0468721299   -2.7545974241   -0.0252713312
 O    0.0616590005   -3.6601197285   -0.7979759751
 H    0.8588769407    1.5638121763   -0.5796798958
 H    2.1157728521   -2.3163813971    0.9476992111
 H    0.0426611197   -2.9166009075    2.4950868164
 H    0.0189333454   -1.1181627402    2.5991706189
 H   -2.0346581576   -2.3798323976    0.9415537318