21

 C    0.0200468256    1.4550603767    0.0089423371
 C   -0.0018830764   -0.0530060065   -0.0097747683
 C   -0.8691708600   -0.8267544601    0.9575563727
 C    0.6341420927   -0.9421911995    1.0430387680
 C    1.3790124207   -1.9443732697    0.1441582998
 O    2.0912668007   -2.9030180606    0.8592283113
 C    0.3664797088   -2.2859100427   -0.9852625044
 C    0.5181847729   -0.7698307239   -1.2835329785
 C    2.0262061246   -0.9562198119   -0.9008605299
 H    0.9737135071    1.8475199962   -0.3630588684
 H   -0.7751863043    1.8715844950   -0.6215619463
 H   -0.1262497020    1.8427786290    1.0222071659
 H   -1.3266802105   -0.2245597252    1.7376047626
 H   -1.4891495038   -1.6607339251    0.6521409263
 H    1.1678531388   -0.5527284452    1.9029651012
 H    2.5456434937   -3.4727186121    0.2302622870
 H    0.8361289288   -2.8889311599   -1.7674722556
 H   -0.6089520846   -2.7064450408   -0.7419164805
 H    0.2222017377   -0.3548902769   -2.2467029647
 H    2.5688575161   -0.0909474955   -0.5114351002
 H    2.6128185234   -1.4630368513   -1.6742279451