14

 O   -0.0409904714   -0.0379321614   -0.2192416102
 C   -0.0122171010    1.1420585131   -0.0428905232
 O   -1.1501054446    1.8987738882    0.1324504161
 C   -0.7484029899    3.2524324697    0.3608646067
 C    0.0187722911    3.4888491953    1.6587988813
 C    1.2898616460    2.7355741638    1.4583620829
 C    1.1705442903    2.0960563980    0.0575614185
 C    0.6203966377    3.4881968654   -0.3122728903
 N    1.1876013695    4.1451165755    0.9669432312
 H   -1.5745868349    3.9213793712    0.1339543897
 H   -0.3416598333    3.8197021601    2.6241113038
 H    1.9494619269    2.4494836984    2.2672412678
 H    2.0933506037    1.7407041038   -0.3914208313
 H    0.7461055300    3.9562005790   -1.2847946528