18

 O   -0.0385810978    1.4495755194   -0.2772002850
 C    0.1015172896    0.1021949894    0.1421984782
 C   -1.2588228124   -0.5696554526    0.1316220382
 N   -1.9540176837   -0.6718591804   -1.2491759069
 C   -1.0898229756   -1.9227253415   -1.4789776720
 C   -1.5183294820   -2.1042352585    0.0028817528
 C   -2.9049038660   -1.6415202006   -0.5311334440
 C   -1.2020435642   -3.1620350449    0.9251093243
 C   -0.9348197729   -4.0437851846    1.6985675650
 H   -0.5728297754    1.4312369738   -1.0809201263
 H    0.8458513504   -0.4309852717   -0.4650135322
 H    0.4842271278    0.1269641862    1.1683055041
 H   -1.9053040787   -0.0548328877    0.8501442985
 H   -1.5187299266   -2.6140620992   -2.2080465323
 H   -0.0428908611   -1.7236990889   -1.7032940917
 H   -3.5846394923   -1.1556806854    0.1726911545
 H   -3.4333974112   -2.3161971944   -1.2084474280
 H   -0.6997035679   -4.8226568585    2.3813579627