20

 C   -0.1843654850    1.3004848435    0.9926225799
 N    0.1484577843   -0.0969968076    1.1845806046
 C    1.0091515639   -0.7579634288    0.3636560278
 O    1.5631824722   -0.2456684031   -0.5937266869
 C    1.2335423776   -2.2401242671    0.6970879045
 C    1.1966407016   -2.6420179053    2.1721671075
 O   -0.1175951649   -2.4898572920    2.7518497086
 C    1.6665055736   -4.0776045215    2.4113986805
 O    1.5953555678   -4.4186419400    3.7768996932
 H    0.3886467755    1.6606949878    0.1376378554
 H   -1.2529786686    1.4325434011    0.7869874526
 H    0.0746234826    1.8952772473    1.8756261113
 H   -0.2640003327   -0.6137138686    1.9484988129
 H    0.4905245392   -2.8296197803    0.1400932754
 H    2.2062185000   -2.4954146245    0.2677916295
 H    1.8247583931   -1.9693478732    2.7660518767
 H   -0.7309568656   -3.0138671998    2.2203447934
 H    1.0602166989   -4.7613969855    1.7875608369
 H    2.7094685615   -4.1904196392    2.0975128861
 H    0.7570043749   -4.0610982034    4.0956558699