18

 O    0.0045022599   -0.0134494732   -0.1855186895
 C   -0.0071240477    1.1590132422    0.0466741586
 C   -1.0521088858    2.3000958072    0.0518885620
 C   -0.7995217904    3.0071890874    1.3945925431
 C    0.7490460243    3.0077346771    1.3625916445
 C    1.5947064049    4.1327987598    1.8775533913
 C    1.6223973189    2.7829079438    2.5630023586
 C    1.0032462372    2.3309352769    0.0252610669
 N   -0.0477662796    3.0198806749   -0.8343730233
 H   -2.0719590878    2.1850988676   -0.3100078788
 H   -1.2158144452    4.0181245885    1.3897355848
 H   -1.2165599603    2.4517323199    2.2393604234
 H    2.4624629433    4.4322977779    1.2990465189
 H    1.0918724877    4.9514708823    2.3826320856
 H    1.1416480708    2.6895660242    3.5313492147
 H    2.5102725514    2.1691294534    2.4485985195
 H    2.0212994432    2.2538979318   -0.3522104936
 H   -0.0544579750    2.5772211183   -1.7546945668