19

 C    0.0182309573    1.4929865522   -0.0546362099
 C    1.3841848526    0.8273673213    0.0210437791
 C    2.1577175923    0.2075736599   -1.1479113256
 C    1.3581917765   -1.1080799955   -1.3443520273
 C    1.6157102323   -2.2094751595   -0.2594179692
 C    0.7112025087   -2.0876624702    0.9581433263
 C   -0.0341618538   -0.9975081426    1.1655179957
 C    0.0996083045    0.0100009496    0.0833569251
 O    0.0225013829   -0.6301347613   -1.1889126000
 H   -0.2614707161    2.0984659315    0.8027425049
 H   -0.3584030533    1.8496823067   -1.0074867270
 H    1.9227432678    0.9804376243    0.9489191082
 H    2.1164843475    0.8014871839   -2.0670990484
 H    3.2098891826    0.0520278515   -0.8912318869
 H    1.4542280826   -1.5305554289   -2.3489989085
 H    1.4677636081   -3.2010645762   -0.7057195725
 H    2.6689347610   -2.1837274481    0.0528537226
 H    0.6769815748   -2.9367840404    1.6349408444
 H   -0.6898365284   -0.8707628080    2.0202087692