20

 C    0.0335877943    1.7546170729    0.3688757999
 N   -0.0145506382    0.3002598978    0.4364340032
 C    0.9837726262   -0.5478224113   -0.1493918704
 C    2.4231069018   -0.0181215782   -0.0144491071
 C    2.2286720084    0.0834254790    1.5287513487
 C    0.7947265954   -0.4566489816    1.3738917184
 C    0.1698329979   -1.4458308579    2.2949156367
 C   -1.2559582493   -1.8694689055    2.0050791522
 O    0.8030518610   -1.8862302951    3.2322988200
 H    1.0374374714    2.1912077683    0.4511630194
 H   -0.4000077834    2.0703574598   -0.5846514497
 H   -0.5832957086    2.1621198896    1.1751075134
 H    0.6573371821   -1.3349899668   -0.8221376228
 H    3.1621199549   -0.7722471091   -0.2910409330
 H    2.6475405716    0.9035004057   -0.5591139587
 H    2.8492698702   -0.6198203034    2.0832855031
 H    2.3227760733    1.0724711080    1.9850530781
 H   -1.9337174936   -1.0265252405    2.1744044937
 H   -1.3794351192   -2.1557401507    0.9565255962
 H   -1.5247041763   -2.6984432412    2.6608818986