18

 C    0.0332793145    1.5637835949    0.0783168280
 C    0.0416474381    0.0462735854    0.0263225513
 C    0.6816340389   -0.5136933165   -1.2503299501
 C    0.8428969766   -2.0428863462   -1.1324970899
 O    1.4684708271   -2.3910964457    0.0895201011
 C    0.8180808928   -1.8164276050    1.2106585039
 O    0.7847135691   -0.4227735298    1.1562416404
 C   -0.4587942486   -2.7375275027   -1.2858858125
 N   -1.4738010058   -3.2758430712   -1.4103590984
 H    1.0531620551    1.9547292586    0.0134911798
 H   -0.5516681463    1.9721151538   -0.7511262817
 H   -0.4071653317    1.9067894635    1.0179554674
 H   -0.9909675402   -0.3342129071    0.1042361608
 H    0.0876983159   -0.2601969226   -2.1335929688
 H    1.6816062150   -0.0841812242   -1.3671507061
 H    1.5021058022   -2.4154423647   -1.9223644000
 H   -0.2043972929   -2.2252606436    1.2905030591
 H    1.4116175402   -2.1003382669    2.0806159758