21

 C   -0.0420954635    1.5523961689    0.0531076663
 C   -0.0134595280    0.0231782290   -0.0007907208
 C   -1.4102075407   -0.5896869205    0.0957394191
 C   -1.4085751503   -2.1005900240    0.0757889597
 O   -0.3920603023   -2.7658658337    0.0517177289
 C   -2.7523082385   -2.8097458855    0.0848220700
 N   -2.6333336150   -4.1676762828    0.2051632997
 N   -3.8198068695   -2.1076721198    0.0070994566
 C   -5.0835241310   -2.8199092619    0.0170914552
 H    0.9671801214    1.9692066189   -0.0187970176
 H   -0.6341916766    1.9702684567   -0.7689114795
 H   -0.4837533456    1.9098292887    0.9901650507
 H    0.4635678985   -0.3110380475   -0.9290606527
 H    0.6098810717   -0.3713258444    0.8090346568
 H   -1.9247492639   -0.2742086076    1.0134352604
 H   -2.0698558677   -0.2419643027   -0.7079168961
 H   -1.6969412425   -4.5242622163    0.0809313679
 H   -3.3985050293   -4.7609235163   -0.0650162749
 H   -5.9096237179   -2.1056708909   -0.0119979201
 H   -5.1918463493   -3.4865095398   -0.8548423309
 H   -5.2005360701   -3.4427033385    0.9180102015