18

 O   -0.0983883072   -0.0123857468    0.1879743359
 C    0.0259534481    1.1813678261    0.1751890857
 C    1.3422761539    1.9232826364    0.0234730477
 O    2.4062954120    1.0117260452   -0.0082362587
 C    3.6375713969    1.6854262057   -0.2284552513
 C    3.7069981387    2.2219487933   -1.6557576713
 N    2.4861423419    2.9429968056   -2.0623467092
 C    1.3748658108    2.1370671844   -2.5692421758
 C    1.2823874433    2.7905181788   -1.2380816214
 H   -0.8490302596    1.8672606484    0.2581443050
 H    1.4389140349    2.5979050700    0.8971540392
 H    3.7494313321    2.5046652107    0.5001769201
 H    4.4341100591    0.9593049607   -0.0460218044
 H    4.5562435259    2.9096282650   -1.7463553364
 H    3.8813678597    1.3942703400   -2.3517303412
 H    0.8466276252    2.5484561220   -3.4251637595
 H    1.4952950891    1.0552063396   -2.5731163081
 H    0.6987215851    3.7022469050   -1.1254630264