23

 C   -0.5103107993    1.4323823091    0.1672693801
 C    0.1809034352    0.0912674912   -0.1114573505
 C    0.9264533767   -0.4656586646    1.0887282795
 C    2.1371916468    0.3175224553    1.5717557537
 C    2.8600636710   -0.3630907457    2.7419657928
 C    3.1896291561   -1.8205211034    2.4029817137
 C    1.9181233645   -2.6532721538    2.1682701943
 C    0.8433476900   -1.9088200986    1.3950388344
 O    0.0735147883   -0.9502091143    2.1411632555
 H    0.2095892850    2.2277892523    0.3829069886
 H   -1.1017158396    1.7497727306   -0.6966747347
 H   -1.1831610389    1.3423811635    1.0253561319
 H   -0.5714560904   -0.6431501582   -0.4192930036
 H    0.8822601023    0.1960497967   -0.9495062867
 H    2.8286400129    0.4330758764    0.7254271371
 H    1.8248896167    1.3286379002    1.8575981341
 H    3.7755917587    0.1907176587    2.9751688476
 H    2.2233912878   -0.3241795234    3.6326648637
 H    3.8088393961   -1.8397313551    1.4958949690
 H    3.7894394567   -2.2776210708    3.1971491800
 H    2.1667344258   -3.5777762757    1.6349946008
 H    1.4810087172   -2.9569121667    3.1278080300
 H    0.2298360703   -2.5249809136    0.7352209586