18

 C   -0.0196389049   -1.2291485610   -0.3339477118
 C   -0.0172697294   -0.0467195441   -0.1221388271
 C   -0.0008509291    1.4020709769    0.0956812875
 N   -0.6547569047    1.7783848924    1.3734365742
 C    0.2870627432    1.9641818529    2.4939105289
 C    1.6620985732    2.4146247676    1.9972256317
 C    1.5445237282    3.3088381504    0.7440463825
 C    1.4514595041    1.9346899067    0.0512097281
 O    2.1714800107    1.3327809599    1.1583247104
 H   -0.0242548637   -2.2767897092   -0.5065674027
 H   -0.5734037541    1.8771785965   -0.7119001579
 H   -1.1617718598    2.6406148421    1.2227194790
 H   -0.1481782163    2.6862703492    3.1931812710
 H    0.4198003799    1.0164145435    3.0296133631
 H    2.3564637738    2.6821833767    2.7984704065
 H    0.7018656764    3.9998774981    0.6645838326
 H    2.4801270107    3.8182986459    0.5121226808
 H    1.9378391920    1.7616939855   -0.9118757467