15

 C   -0.0190405969    1.4881893244    0.0116464945
 N    0.0134210593    0.0387113724   -0.0179231241
 C    0.0007721765   -0.7785813649   -1.1359835686
 C    0.0490462167   -2.0674894788   -0.6659768586
 N    0.0907110176   -2.0663273497    0.7291174915
 C    0.0681044191   -0.8040072513    1.0504513690
 O    0.0929797946   -0.2947692394    2.2940632234
 C    0.0563199353   -3.2577912915   -1.4290046431
 C    0.0621118930   -4.2668467779   -2.0862698476
 H    0.8640475017    1.9068265522   -0.4808160331
 H   -0.9163903539    1.8637225899   -0.4890757772
 H   -0.0315938767    1.8139436132    1.0514755542
 H   -0.0404175191   -0.3771126472   -2.1340535045
 H    0.1275850523   -1.0513215120    2.8930027254
 H    0.0672949004   -5.1589158394   -2.6613767814