15

 O   -0.0315915422    0.0415377128    0.0042329238
 C   -0.0163685696    1.2391975905    0.0106694897
 C   -1.2842745901    2.1287785700    0.0326712231
 N   -0.7286099573    3.4624595350    0.0322605998
 C   -1.1873312230    4.7442714906    0.0444436367
 N   -0.1917030285    5.6050105729    0.0353379404
 C    0.9627295159    4.8521932957    0.0163697843
 C    0.6540316174    3.5177597984    0.0141006510
 C    1.2336851877    2.1432079779   -0.0005907020
 H   -1.9022241870    1.9227743860   -0.8478885065
 H   -1.8779906870    1.9132378478    0.9275248550
 H   -2.2385287044    4.9895460093    0.0596401728
 H    1.9356551214    5.3189198091    0.0057066529
 H    1.8567153604    1.9033454735    0.8690805940
 H    1.8343728463    1.9126193505   -0.8882766350