14

 O    0.0105977468    0.0136742847   -0.2775008151
 C   -0.0312951695    1.1741490888    0.0019822917
 C   -1.2819228826    1.9876097398    0.3577475242
 C   -0.7491626022    3.2739198830    0.9386592571
 O    0.1460778193    3.0527834527    2.0366050357
 C    0.7113346127    3.3598089656    0.7658192316
 C    1.2133481802    2.1297129864    0.0268425276
 C    2.3972047747    1.5095939904    0.6052431382
 N    3.3427996339    1.0334633946    1.0667252058
 H   -1.8693261224    2.1618318041   -0.5525514654
 H   -1.9078694065    1.4215760357    1.0526515406
 H   -1.3734397651    4.1594271226    1.0107412145
 H    1.2533926371    4.2975555255    0.6918534490
 H    1.4325345436    2.3907839060   -1.0186482456