16

 O   -0.1875313200   -0.0504870087    0.3272203655
 C   -0.0621939087    1.1342982192    0.1303038917
 C   -1.1944726212    2.1276512119   -0.1812373385
 C   -0.5074601810    3.4979312183   -0.3289759210
 C    0.9610149815    3.2050067218   -0.1070484911
 C    1.9955976416    4.3022467675   -0.1413756704
 C    1.9437734320    5.0872816000   -1.3779075910
 N    1.8876789368    5.6997078834   -2.3557030137
 C    1.2003803429    1.9115011182    0.1407778495
 H   -1.7121944959    1.8098822589   -1.0905351427
 H   -1.9304044569    2.1018275645    0.6271003107
 H   -0.6638796694    3.9508151986   -1.3146055494
 H   -0.8677135392    4.2330388453    0.4017530110
 H    1.8306383174    4.9913501590    0.6986889024
 H    3.0022414135    3.8898523488   -0.0229575455
 H    2.1635930066    1.4532267532    0.3277652724