14

 C   -0.0315872653    1.4744284435   -0.0375944778
 C    0.0066185630   -0.0175991591    0.0370214933
 N   -0.0203689123   -0.7498255452   -1.0620290678
 N    0.0275660982   -2.0407974013   -0.6260243181
 C    0.0180858456   -3.1350206966   -1.4989609434
 O   -0.0316813738   -3.0683787783   -2.6924078128
 C    0.0849078728   -2.1168759544    0.7468542132
 C    0.0731483995   -0.8359063864    1.2106336481
 H    0.8595653196    1.9148822368    0.4224513143
 H   -0.0815634605    1.7942092142   -1.0797403190
 H   -0.9020997630    1.8733749155    0.4942292036
 H    0.0634997982   -4.0795756760   -0.9248072096
 H    0.1277999724   -3.0694125066    1.2514265506
 H    0.1068720255   -0.5124313061    2.2387786654