19

 O   -0.0897846884    1.3954944301   -0.2605032958
 C   -0.0174863772    0.0339647161    0.1449000568
 C   -1.3775296668   -0.6137474093    0.2287904592
 C   -2.3853492916   -0.0954405014    1.2775618234
 C   -3.5309596380   -1.0667418389    1.0347509350
 C   -3.0954987660   -2.1010788993    0.2872936441
 C   -3.2832979468   -1.9622976515   -1.2315131555
 C   -1.8405280711   -1.3423061130   -1.1228555265
 C   -1.5595999976   -2.0857399172    0.1517485506
 H   -0.5655861337    1.4162080991   -1.0977369987
 H    0.6471086221   -0.5481028234   -0.5131195493
 H    0.4466458754    0.0514134953    1.1379608923
 H   -1.9158652332   -0.0860573210    2.2728820403
 H   -2.7400564113    0.9247786882    1.0912312605
 H   -4.5509083644   -0.6978379481    0.9667535940
 H   -3.2244482596   -2.8823251122   -1.8252325338
 H   -4.1200426005   -1.3460826728   -1.5725076683
 H   -1.1654201949   -1.2722621933   -1.9738462623
 H   -0.8586938163   -2.8856307373    0.3549297140