17

 C   -0.1187117511    1.5031054512    0.2390119508
 C   -0.0326522579    0.0178504598    0.0684045419
 C    0.0064406792   -0.6845617823   -1.0939546636
 O    0.0974443062   -2.0230431856   -0.8590211963
 C    0.1162703691   -2.1796382663    0.4874761283
 C    0.0446792885   -0.9757495563    1.1171974620
 C   -0.0054278698   -0.7176150961    2.5958964452
 C   -1.4280521468   -0.3695980269    3.0122538700
 O   -1.7744550780    0.6960731505    3.4503950811
 H    0.7808750563    1.9033533828    0.7216886000
 H   -0.2267117103    2.0035897821   -0.7268815492
 H   -0.9682012311    1.7892976002    0.8677320320
 H   -0.0182261440   -0.3916975990   -2.1310159515
 H    0.1938130500   -3.1939938652    0.8446841056
 H    0.2977466287   -1.6199263576    3.1413162445
 H    0.6501684266    0.1065459821    2.8920249029
 H   -2.1586155355   -1.1939299935    2.8454243563