18

 C    0.0043739175    1.5688799212   -0.0662078152
 C   -0.0659039763    0.0455392960   -0.0246454659
 N    0.7137029773   -0.5268246282   -1.1045635258
 C    0.8240297104   -1.8636600201   -1.3590132736
 N    1.4079604059   -2.2042214152   -2.5186292169
 C    1.5450837838   -3.5069198902   -2.7578482168
 C    1.1097344230   -4.4834570642   -1.8697049333
 N    0.5167393189   -4.1505977228   -0.7171315305
 C    0.3711881830   -2.8587573274   -0.4607737633
 H    1.0388647354    1.9143905058    0.0226797453
 H   -0.4075780083    1.9553741703   -1.0048358105
 H   -0.5732307491    1.9995857120    0.7554194878
 H    0.3251462729   -0.3123739756    0.9370398581
 H   -1.1165016486   -0.2813470599   -0.0779744537
 H    0.9466352428    0.0631548841   -1.8888335479
 H    2.0195999349   -3.7803348373   -3.6977574997
 H    1.2313388690   -5.5405483315   -2.0837917001
 H   -0.1129239426   -2.5921324570    0.4738771120