18

 O    0.2424198440    1.3766889002    0.2218454163
 C    0.0122025844    0.0045846235   -0.0098949484
 C   -1.3974681422   -0.5701234765   -0.0043540460
 C   -2.0878390318   -0.4092398382   -1.3525655004
 C   -1.6331911186    0.6794472192   -2.3244856098
 C   -0.1196323508    0.3897456621   -2.5402960373
 C    0.2375507203   -0.6153860142   -1.4364577609
 C   -1.0371763825   -1.4651805274   -1.1915072198
 H   -0.4415438338    1.8778890491   -0.2316932937
 H    0.6340477840   -0.5216638168    0.7197539909
 H   -1.9722288568   -0.8209722439    0.8806414412
 H   -3.1295735704   -0.7121217172   -1.3554904334
 H   -2.1921648290    0.6106766617   -3.2631794549
 H   -1.8171982188    1.6890623310   -1.9358680096
 H    0.0510462865   -0.0532166336   -3.5267349554
 H    0.4966322395    1.2912071663   -2.4727665641
 H    1.1888816310   -1.1269996788   -1.5819190657
 H   -1.1667728351   -2.5314182165   -1.3130280789