16

 O   -0.0312298050    1.3384616201   -0.1015277522
 C   -0.0337276112   -0.0540143384   -0.0513986290
 C   -0.4234846850   -0.7062638688    1.2559230192
 O   -0.8058959868    0.1712876853    2.2871399635
 C   -1.3708768244   -0.7658723054    0.0859332435
 C   -2.6901454762    0.0052656044    0.0465123017
 O   -3.5598586234   -0.8944654001   -0.6884799636
 C   -2.8079285467   -1.9850520503   -0.9618465959
 N   -1.5975574140   -2.0297738542   -0.5775689348
 H   -0.2730046647    1.6409452946    0.7856229773
 H    0.7274314824   -0.5103548699   -0.6757992268
 H    0.0495968344   -1.6342827180    1.5663854234
 H   -0.0432756386    0.3069990592    2.8603715127
 H   -3.1278109567    0.1855770582    1.0319476024
 H   -2.6122622731    0.9499410355   -0.4986344209
 H   -3.3235157110   -2.7637093020   -1.5117132105