13

 N    0.0406183269    1.3525562221    0.0499511183
 C    0.0225630584   -0.0130197329    0.0669510149
 O    1.0299476567   -0.6973621673    0.1288155860
 C   -1.3056395318   -0.6548520209    0.0401955052
 C   -2.5794386312   -0.2221123686    0.0907547512
 O   -3.4383293285   -1.2810626116    0.0506624750
 C   -2.6841619635   -2.4638370282   -0.0225897600
 O   -3.1642624041   -3.5582751043   -0.0664600056
 N   -1.3800919951   -2.0432031427   -0.0317041303
 H    0.9450575888    1.7867787652   -0.0449652817
 H   -0.7600304727    1.8803385320   -0.2538576409
 H   -3.0182932922    0.7577465946    0.1730236915
 H   -0.5737398517   -2.6454112975   -0.0487054837