17

 C   -0.0474657290    1.4495910050    0.1495655019
 N   -0.0076847927   -0.0103069975    0.0383333308
 C   -1.2219128608   -0.6976579389   -0.0060117233
 N   -2.3080845669   -0.0340945809    0.0456997476
 C   -1.1144790299   -2.2046334055   -0.1678915421
 O    0.0370426639   -2.7362366629    0.4435178607
 C    1.2018827996   -2.1651759803   -0.1054735103
 C    1.2251388891   -0.6410979971   -0.0683685361
 O    2.2724749804   -0.0347067487   -0.1393289635
 H    0.9805979761    1.8028904738    0.1788744665
 H   -0.5758763282    1.8751763887   -0.7063408492
 H   -0.5861271074    1.7352574173    1.0550479391
 H   -3.1120219689   -0.6599870300    0.0153049722
 H   -1.9792139312   -2.6763901387    0.3037404308
 H   -1.1354523266   -2.4489013629   -1.2450078451
 H    2.0545889999   -2.5190572668    0.4758942485
 H    1.3495433325   -2.4809019944   -1.1528874987