22

 C   -0.1791625432    1.4191753205    0.0363645643
 N    0.0248639621   -0.0169028484   -0.0448660368
 C   -0.0279834263   -0.8079248491    1.1722483751
 C   -1.4412348653   -0.9865464392    1.7463035215
 C   -1.4400073582   -1.8277148583    3.0254670168
 C   -2.8332966022   -2.0209864407    3.6100373318
 O   -2.7056102609   -2.8062926767    4.7846812516
 C    0.2786062704   -0.5932160384   -1.2547900022
 O    0.3308464901   -0.0139757524   -2.3197551980
 H    0.5099401690    1.8618820366    0.7655101146
 H    0.0134974097    1.8369309757   -0.9518905320
 H   -1.2041697324    1.6682221344    0.3337216526
 H    0.4008802076   -1.7917395777    0.9510383664
 H    0.6207098990   -0.3428956619    1.9277036614
 H   -1.8813304987   -0.0030718147    1.9527405855
 H   -2.0732522223   -1.4564071412    0.9821393220
 H   -1.0073872024   -2.8167952264    2.8298329110
 H   -0.8075952366   -1.3572807643    3.7885458438
 H   -3.2823486507   -1.0387575131    3.8323648845
 H   -3.4822644253   -2.5136698915    2.8674858771
 H   -3.5825929798   -2.9402986078    5.1554549060
 H    0.4414594463   -1.6851588954   -1.1579758669