17

 N    0.4970415849    0.2477971631   -0.8230256352
 C   -0.1552922047    0.1609384129    0.3657002026
 O    0.0336107384    0.9247069484    1.2942956169
 C   -1.1973834301   -0.9628352051    0.4545136076
 C   -0.7800385959   -2.3178494063   -0.1330137033
 C   -1.8250598300   -3.4430562360    0.0981221396
 O   -2.0794930367   -3.9758717790   -1.2281457578
 C   -1.3760987613   -3.1932867744   -2.0690816067
 N   -0.6426608079   -2.2679802964   -1.6088006809
 H    1.1936425541    0.9668376396   -0.9268690296
 H    0.3418812046   -0.4362859738   -1.5514047703
 H   -1.4287153304   -1.0736106677    1.5169196638
 H   -2.1131418417   -0.6259770879   -0.0481406998
 H    0.1937162270   -2.5989210094    0.2852378414
 H   -1.4651704615   -4.2591147680    0.7275586563
 H   -2.7727041787   -3.0694838842    0.4985669120
 H   -1.5001165001   -3.4337024358   -3.1192656565