20

 C   -0.0545414715    1.3946955035    0.0395562995
 O   -0.0233379011   -0.0119027466    0.0062341410
 C    0.6440795366   -0.5206726580   -1.1251936622
 C    0.6157492599   -2.0420785854   -1.0550661325
 C    1.3239637810   -2.6914694730   -2.2460932093
 C    1.2545421439   -4.2283519001   -2.1937814214
 O   -0.0685709036   -4.7318307252   -2.1782094895
 C    2.0307431253   -4.8182887207   -3.3057876282
 N    2.6148282588   -5.2618613847   -4.1988032979
 H    0.9587658923    1.8263701663    0.0673126231
 H   -0.5800646458    1.8133728038   -0.8336361431
 H   -0.5880091307    1.6888752206    0.9465136997
 H    0.1562386413   -0.1692669750   -2.0521699171
 H    1.6859078973   -0.1545347179   -1.1562019264
 H    1.0903104066   -2.3582201792   -0.1182504413
 H   -0.4236716448   -2.3801738460   -1.0107643653
 H    0.8782088132   -2.3555809579   -3.1921196139
 H    2.3792320922   -2.3948272881   -2.2798324020
 H    1.7013267538   -4.5758978791   -1.2550696120
 H   -0.4877308545   -4.5070237072   -3.0172923112