23

 C    0.0965543282    1.4667520585   -0.0910391834
 C   -0.1932851697    0.0700316672    0.4239737142
 O   -0.0902515301   -0.9302603639   -0.6176686735
 C    0.6195141776   -1.8396809482    0.2545111905
 C    2.0253791670   -2.1537356501   -0.2544448010
 C    2.8449144904   -0.8997378327    0.1043109237
 C    2.2633691922   -0.4598095102    1.4657301928
 C    2.6877448938    0.9249242544    1.9586841701
 C    0.7487629721   -0.7487397212    1.3554699305
 H    1.0829467564    1.5407396088   -0.5537611064
 H   -0.6487080685    1.7271618622   -0.8503539268
 H    0.0268220930    2.2031832222    0.7159736100
 H   -1.2127818787    0.0615669205    0.8415361711
 H    0.0174176778   -2.7284201155    0.4763245724
 H    2.4152653218   -3.0301109821    0.2784556009
 H    2.0207497097   -2.3882264067   -1.3227578595
 H    3.9207783075   -1.0923280411    0.1549320248
 H    2.6901473125   -0.1202385818   -0.6494491735
 H    2.6277980972   -1.1868896446    2.2074728766
 H    2.4414267323    1.7141419353    1.2449358623
 H    2.2037061395    1.1719244575    2.9099753346
 H    3.7701208360    0.9575567662    2.1238006783
 H    0.3085284620   -0.9596273848    2.3321432311