22

 C   -0.0777327296    1.4744504080    0.0274654011
 C    0.0710499209   -0.0189486500   -0.0311265702
 C    0.2710842879   -0.7773458732   -1.3417618631
 C    0.2118639848   -2.2099844683   -0.7572850592
 C    0.3211426167   -3.3765211554   -1.7178077001
 C    1.2591689948   -2.1071685511    0.3800407969
 C    0.6879252876   -0.8595659893    1.0377436932
 N   -0.7919389205   -0.8493921938    0.8567256381
 C   -1.0795798684   -2.0769326016    0.0801507624
 H    0.8195698072    1.9747742156   -0.3541649232
 H   -0.9301264104    1.8092711437   -0.5747287709
 H   -0.2446817090    1.8049060260    1.0560839262
 H   -0.5254251225   -0.5851728332   -2.0697589139
 H    1.2334204879   -0.5496498055   -1.8136527286
 H    1.2768450960   -3.3672744359   -2.2532682918
 H    0.2481967961   -4.3334824777   -1.1889748411
 H   -0.4777751679   -3.3500383563   -2.4673369165
 H    1.2552381259   -2.9833263161    1.0377732484
 H    2.2780184861   -1.9582088494    0.0061738379
 H    1.0704178131   -0.4530630400    1.9670589546
 H   -1.9772248152   -1.9344490108   -0.5309373597
 H   -1.2467905015   -2.9220167857    0.7567625895