16

 O    0.2994886365    0.5863189371    0.7822780176
 C   -0.1689046795    0.1821668744   -0.4869493766
 C   -1.5287284235   -0.4824745599   -0.4190793200
 C   -1.9094074768   -1.5567629427   -1.3778227392
 C   -1.6111814807   -1.9434687536    0.0808135891
 C   -0.3919337526   -2.6396957011    0.3967601869
 C    0.6379428342   -3.1942665819    0.6754930098
 C   -2.7481335855   -2.2797583099    0.9055830480
 N   -3.6685102250   -2.5360244220    1.5569721124
 H    0.4965861194   -0.2140978225    1.2823428892
 H   -0.2506839525    1.0923751313   -1.0906479516
 H    0.5444609271   -0.4842240740   -0.9924530327
 H   -2.3257519107    0.1486510004   -0.0392191897
 H   -2.9411232349   -1.6421651465   -1.6966692831
 H   -1.1723544639   -1.8850677754   -2.1020104558
 H    1.5367810985   -3.7083167937    0.9139443357