13

 O    0.0702100132   -0.0654660077    0.0015332525
 C    0.0223633919    1.1473589338    0.0087664038
 C   -1.2467190725    1.8878120985    0.0302731222
 C   -1.2681509141    3.2433097404    0.0379889867
 N   -0.0559581914    3.9172702328    0.0250073799
 C    1.1112477989    3.2079794054    0.0050758656
 N    1.2081175305    1.9282044237   -0.0032583767
 C   -2.4439299452    4.0400282560    0.0585295251
 C   -3.4248045057    4.7365229104    0.0757861871
 H   -2.1700153076    1.3246848283    0.0398892739
 H   -0.0469525801    4.9246971159    0.0304100861
 H    2.0105449541    3.8230880572   -0.0039199143
 H   -4.3021338821    5.3362260552    0.0909830281