19

 O   -0.1215653669    1.3877184148    0.2167304917
 C   -0.0200510034    0.0101094214   -0.0065002676
 C   -0.4127788363   -0.5748375056   -1.3364944286
 C   -1.3032796715   -0.7608701535   -0.1152283414
 C   -1.4078587901   -2.0511202447    0.6578960567
 C   -0.9758047288   -3.3951764232    0.1095505153
 C   -0.1107351134   -2.6743106509    1.1035742095
 O    1.0616679377   -2.0858894604    0.6088613447
 C    1.0877004623   -0.6733838749    0.7812918125
 H    0.5976252009    1.8202987044   -0.2577866457
 H   -0.7774791417    0.1136463652   -2.0906318137
 H    0.1568159281   -1.4170027948   -1.7122589586
 H   -2.2035768809   -0.1561278195   -0.1209140506
 H   -2.2229797337   -2.0668373832    1.3742178447
 H   -1.5132601260   -4.2771599001    0.4400338136
 H   -0.6138109190   -3.4393835326   -0.9112342739
 H   -0.0152058914   -3.0651747270    2.1156607285
 H    2.0752150482   -0.3486291450    0.4334033110
 H    0.9923419158   -0.3973016103    1.8429531818