12

 N   -0.1025525577    1.3190210654    0.0090995324
 C    0.0943614426   -0.0132846824    0.0021089724
 O    1.1464979221   -0.6041067182   -0.0093413675
 N   -1.1452467973   -0.7436810855    0.0103837974
 C   -1.2955640819   -2.0934293842    0.0071981263
 C   -2.6521097718   -2.2749176129    0.0182911581
 N   -3.2631387221   -1.0493755860    0.0274318773
 N   -2.3562145258   -0.1267425853    0.0225128734
 H    0.7043626261    1.9172301558    0.0026753527
 H   -1.0371369196    1.6954952178    0.0173716484
 H   -0.4463857966   -2.7533999274   -0.0022137768
 H   -3.2227712580   -3.1887791872    0.0202750360