18

 C    0.0433776462    1.5363192003    0.0657055748
 C    0.0113476348    0.0170893175    0.0041633529
 C    0.6842358900   -0.5456499377   -1.2584510644
 C    0.9572160247   -2.0343573291   -1.1350559288
 O    2.1302772760   -2.4013179113   -0.3956311806
 C    0.8597240535   -2.6833056945    0.1822459057
 C    0.4719451356   -1.8476632820    1.3827998425
 O    0.6599740682   -0.4653898039    1.1759252091
 H    1.0783187970    1.8897774998    0.1029769725
 H   -0.4401423979    1.9685392459   -0.8157191264
 H   -0.4736442383    1.8947381541    0.9596402722
 H   -1.0388533178   -0.3266216670    0.0182577221
 H    0.0424532240   -0.3574813903   -2.1264716214
 H    1.6345665622   -0.0288521981   -1.4362345714
 H    0.8002462679   -2.6373504351   -2.0290560742
 H    0.6021699669   -3.7417369019    0.2480136882
 H   -0.5817442814   -2.0697154596    1.6316907956
 H    1.0860786284   -2.1170202071    2.2486704617