21

 C    0.0256104142    1.5460416061   -0.1417364072
 C    0.0034733551    0.0473393099    0.1814909389
 C   -1.3946010555   -0.5438778857    0.1194431964
 C   -2.0170261315   -0.8988095228   -1.2680806136
 O   -1.0480997036   -2.0186804483   -1.3896937643
 C   -1.5680176209   -2.0879092475    0.0018045877
 C   -2.9758456545   -1.8637620863   -0.5616498371
 C   -4.3415202003   -1.7561995009    0.0224662223
 C   -4.0213101449   -2.7889110210   -1.0590337531
 H    1.0399978442    1.9502803804   -0.0706527670
 H   -0.3370243969    1.7385791334   -1.1573291488
 H   -0.6079569588    2.1144212925    0.5486956259
 H    0.6474439207   -0.5001521935   -0.5124308967
 H    0.4093728439   -0.1129269171    1.1890511293
 H   -2.0872707897   -0.0581090483    0.8157806119
 H   -2.1787046739   -0.2743802702   -2.1478103754
 H   -1.1888778219   -2.8852644253    0.6428454293
 H   -4.5066445076   -2.1154068805    1.0334862364
 H   -4.9615237004   -0.9088574406   -0.2532830862
 H   -4.4298475640   -2.6260959730   -2.0511543791
 H   -3.9743878538   -3.8322720515   -0.7642888098