22

 C   -0.1098675858    1.5458746709   -0.1108947773
 C   -0.0224505833    0.0254787378    0.0571298127
 C    0.6927896401   -0.4405664417    1.3106344897
 C    2.1508341275    0.0128585087    1.7235901469
 C    1.6961935442   -0.5875027005    3.0856006541
 C    0.2993860055    0.0009707924    2.7512868084
 N    1.6968595112   -2.0449751220    2.7292297718
 C    0.3733599866   -2.6894231490    2.6523465830
 C    0.9038636444   -1.9599607434    1.4717968739
 H    0.8846845961    2.0012368382   -0.1571179808
 H   -0.6353163840    1.8045609415   -1.0351657785
 H   -0.6517647504    2.0114406775    0.7186936803
 H   -1.0348366300   -0.4008335696    0.0544345446
 H    0.4854655112   -0.4064390250   -0.8162461543
 H    2.9934459367   -0.4801645274    1.2322519037
 H    2.2850875783    1.0966136183    1.7416697091
 H    2.2093804757   -0.3865871945    4.0251831117
 H    0.3032731502    1.0872165967    2.8532978909
 H   -0.6039716112   -0.3949067041    3.2175158894
 H    0.4362106360   -3.7745532341    2.6469668222
 H   -0.4652572301   -2.3058636139    3.2217260511
 H    1.2752325014   -2.5103459067    0.6096072475