21

 C    0.1051583508    1.6151548249    0.0946528490
 C    0.0989655133    0.1086823374    0.0770780041
 O   -1.2400392404   -0.4366404299    0.2478106943
 C   -0.8210163104   -1.2475524358    1.3714627018
 C    0.6479160422   -0.8511861663    1.1815301396
 C    1.3879896461   -1.6684590987    0.0877601748
 C    0.9101562777   -0.6610501875   -1.0050992841
 C    0.1445952780   -1.2123358136   -2.1907526543
 O    1.0461130133   -2.0138355979   -2.9465562860
 H    1.1281856382    2.0016659209    0.0466995471
 H   -0.4473441458    2.0069979786   -0.7672229291
 H   -0.3721590616    1.9962396858    1.0025018464
 H   -1.2794033224   -0.8945620830    2.3048027560
 H   -1.0648167933   -2.3088712051    1.2348458979
 H    1.2121175608   -0.5230031513    2.0540299509
 H    2.4718006218   -1.7059979851    0.2106488690
 H    1.0249215682   -2.6922138869   -0.0412571285
 H    1.7433056872   -0.0522248501   -1.3720396527
 H   -0.7137098366   -1.7965009944   -1.8319778117
 H   -0.2554039380   -0.3828917411   -2.7971959797
 H    0.5461988208   -2.4438584507   -3.6463309945