25

 C   -0.1356174365    1.4862528793    0.2247665017
 C    0.0342953978   -0.0126009334   -0.0494979604
 C    0.7723179626   -0.4181946597   -1.3545273574
 C    0.0120388348    0.1166366821   -2.5827265730
 C    2.2078944643    0.1400214462   -1.3482100555
 C    0.7950879625   -1.9687193274   -1.3656578728
 C    1.4816646157   -2.6452683545   -2.5729082707
 C    1.4437805969   -4.1001562782   -2.4780923190
 C    1.3984939904   -5.2971197482   -2.3752465636
 H    0.8253591204    2.0024701516    0.3102005815
 H   -0.7158886294    1.9863846148   -0.5565185619
 H   -0.6683586658    1.6354345590    1.1693376890
 H    0.5684931072   -0.4653157896    0.7962874070
 H   -0.9585543959   -0.4813751849   -0.0623135792
 H   -0.0449571094    1.2090138373   -2.5707512792
 H    0.5045118838   -0.1635881377   -3.5191064875
 H   -1.0125882752   -0.2712433112   -2.6140637759
 H    2.7733823945   -0.2311277751   -0.4857913891
 H    2.7563885791   -0.1394019207   -2.2531637004
 H    2.2095960469    1.2330138049   -1.3029574254
 H    1.2911496594   -2.3211692870   -0.4533719933
 H   -0.2363311962   -2.3374288499   -1.3128696297
 H    0.9984847439   -2.3370421518   -3.5076826266
 H    2.5263630248   -2.3208172125   -2.6478002014
 H    1.3649259236   -6.3551684432   -2.2963656469