20

 C   -0.1283223541    1.5373051383    0.0115920461
 C    0.0660496319    0.0278712890   -0.0375757145
 N    0.8968872127   -0.4697780034   -1.1815739703
 C    1.0917691659   -1.9096808011   -0.7522937740
 C    1.9544010334   -1.3490564973    0.4243996260
 C    2.9418515054   -2.1228222308    1.2562615978
 C    2.3004227294   -0.2588301779   -0.6408619000
 C    0.8554465438   -0.5763685516    1.1500154154
 O    0.6688810527   -0.4572649100    2.3319410705
 H    0.8222204816    2.0778408012    0.0338929223
 H   -0.6926101935    1.8773772230   -0.8606313479
 H   -0.6816859609    1.8024574883    0.9168639044
 H   -0.9170062150   -0.4547674134   -0.0977525203
 H    0.1719522578   -2.4587764155   -0.5288585740
 H    1.6849164146   -2.4510258368   -1.4940151692
 H    3.6912073847   -2.6221718757    0.6342608113
 H    3.4602687121   -1.4581353811    1.9547691644
 H    2.4302565692   -2.8830256022    1.8555133763
 H    3.0373555424   -0.5978254482   -1.3733386428
 H    2.5412025159    0.7553376852   -0.3134853918