20

 C   -0.0266132371    1.5649516370   -0.0113563638
 C    0.0195767356    0.0362366077    0.0210410454
 C    0.6298228498   -0.5199148945   -1.2762935368
 N    0.6973067584   -1.9749117780   -1.2251093871
 C    0.9532763854   -2.6122304083   -0.0562941475
 C    1.0146324077   -1.9852562389    1.1468496343
 C    0.7922955559   -0.4958199939    1.2416540049
 C    1.2603870837   -2.7704832888    2.3356214920
 O    1.3141350785   -2.3308487611    3.4704868060
 H    0.9814976457    1.9877278394   -0.0933631325
 H   -0.6156352835    1.9342625202   -0.8579433195
 H   -0.4753749330    1.9579794660    0.9059135243
 H   -1.0076993205   -0.3471488714    0.0802466311
 H    0.0219281575   -0.2309553611   -2.1399291431
 H    1.6334376686   -0.0896372101   -1.4231779931
 H    0.7971299751   -2.4812502665   -2.0875739524
 H    1.0878153638   -3.6884750198   -0.1283704203
 H    1.7530425489    0.0317239333    1.3310369552
 H    0.2489929450   -0.2721274292    2.1656733846
 H    1.4049831546   -3.8611521720    2.1418231285