17

 N   -0.0157768975    1.3140717549    0.1246871032
 C   -0.0668079437    0.0492471135    0.0691134024
 O    1.0673919267   -0.7719516921    0.0620750593
 C    0.6929469264   -2.1525348390   -0.0402359242
 C   -0.7999828532   -2.0976138951   -0.0532307545
 C   -1.2154515357   -0.8260709857    0.0161491731
 C   -2.7135120323   -0.7704699375   -0.0902491228
 C   -3.0742141232   -2.2861662356    0.0700442278
 N   -1.8087512909   -3.0221194816   -0.2265456508
 H    0.9540119457    1.6299662044    0.1590851780
 H    1.1131977929   -2.5815112542   -0.9595235888
 H    1.1098511939   -2.7040278639    0.8131189990
 H   -3.1987609819   -0.1539682893    0.6709410388
 H   -3.0337955835   -0.3869347703   -1.0666827715
 H   -3.3976045659   -2.4924575605    1.0985509585
 H   -3.8681414319   -2.6086362436   -0.6075323165
 H   -1.7085635658   -3.9241739844    0.2190142789