23

 C    0.0953211848    1.4839351543    0.0089893573
 C   -0.0060912242   -0.0432676910    0.0017671264
 C   -1.4487784692   -0.5297832253    0.0129392520
 O   -1.4545620358   -1.9418473639    0.0053861275
 C   -2.7488333390   -2.4972439918    0.0148496200
 C   -2.6029723762   -4.0227269950    0.0050186198
 C   -3.8918197475   -4.7038908427    0.0136562407
 C   -4.9702135335   -5.2393455523    0.0211967572
 C   -6.2672126713   -5.9014579899    0.0304776869
 H    1.1397020394    1.8086982060    0.0007812704
 H   -0.3948768326    1.9210906251   -0.8679789059
 H   -0.3780351042    1.9116091901    0.8997763922
 H    0.4924466789   -0.4541194541   -0.8836596629
 H    0.5092265919   -0.4635437660    0.8730505240
 H   -1.9747029854   -0.1496937974    0.9065176705
 H   -1.9916491016   -0.1401509183   -0.8662792453
 H   -3.3083969203   -2.1783119522    0.9092544989
 H   -3.3255692669   -2.1685231474   -0.8649862989
 H   -2.0217139344   -4.3088973528   -0.8800705403
 H   -2.0047742274   -4.3185904225    0.8755240185
 H   -6.1566259889   -6.9915986343    0.0243676546
 H   -6.8466188020   -5.6339670684    0.9212085097
 H   -6.8633898847   -5.6257761401   -0.8465844433