17

 C   -0.1385458532    1.3100607886    0.0598823993
 N    0.0875586735   -0.1236574858   -0.0983309825
 C    0.8349577568   -0.4717877456   -1.3107129996
 C    1.5020548020   -0.5024313896    0.0362350598
 C    1.5929487121   -2.0513794131   -0.0382263910
 O    0.5271095897   -2.8022990392    0.5614798438
 C   -0.2188097381   -2.8194158732   -0.6852631075
 C    0.8867013661   -2.0157777787   -1.4113095931
 H    0.6794855954    1.9399744190   -0.3293084084
 H   -1.0597613713    1.5847544644   -0.4630812913
 H   -0.2671058069    1.5340289732    1.1231425468
 H    0.9349586980    0.2436174860   -2.1185533667
 H    2.2055396048    0.1872899960    0.4888894299
 H    2.5854654781   -2.4758427723    0.1355866034
 H   -0.3444068418   -3.8454980393   -1.0507459112
 H   -1.1890038499   -2.3258946156   -0.5872208501
 H    1.3360408145   -2.4292532046   -2.3121276815