23

 C    0.0121170968    1.5772307623   -0.0844173162
 C    0.0314271598    0.0437880492    0.0397941367
 C    0.6790234715   -0.5578277840   -1.2102108729
 O    0.8952912109   -1.9457173062   -1.0731863404
 C    1.8386906817   -2.2144199395   -0.0614808356
 C    1.5973126267   -1.4742279817    1.2364330300
 C    2.4030908833   -2.0291033611    2.3824904679
 C    0.7347797309   -0.4493617643    1.2991417595
 C    0.3555537481    0.2579433371    2.5773147871
 H    1.0286845892    1.9863426237   -0.0722711760
 H   -0.4579205603    1.8769346230   -1.0274782026
 H   -0.5497068907    2.0479365325    0.7258373584
 H   -1.0139772825   -0.3002726595    0.0801534086
 H    0.0332552434   -0.4261815105   -2.0840587033
 H    1.6329756006   -0.0398415100   -1.4157449976
 H    1.7921788553   -3.2959388561    0.1199354577
 H    2.8640306959   -2.0017830739   -0.4232366376
 H    3.4519626624   -2.1546111504    2.0828341649
 H    2.3932298022   -1.3927030293    3.2677250917
 H    2.0454170524   -3.0252980814    2.6755020119
 H    0.6893647267   -0.2729097120    3.4695867139
 H    0.7620677911    1.2756702061    2.6221956776
 H   -0.7354100355    0.3572032860    2.6456209164