15

 N    0.1174919450    1.2142725766    0.3913110981
 C    0.0845644379    0.0384471142   -0.2726116288
 O    0.9547775983   -0.4101789856   -0.9864245071
 C   -1.2127612731   -0.7666526163   -0.0199479237
 C   -0.9995716244   -2.0584972916    0.8198769522
 C   -1.8944245414   -1.3593135582    1.8611568872
 O   -2.0622131897   -0.1973995536    1.0011167888
 C   -1.9322809443   -0.9463792787   -1.2843783835
 N   -2.5269944844   -1.0916970035   -2.2640629195
 H    0.9072127374    1.8260785171    0.2689783524
 H   -0.6715999743    1.4935458158    0.9508851778
 H   -1.4156085344   -2.9595168486    0.3723655202
 H    0.0376920416   -2.2323729154    1.1026159246
 H   -2.8552488012   -1.8400783864    2.0647366262
 H   -1.4118124429   -1.0894118658    2.8055640251