16

 N   -0.4409488132    1.7240268528   -0.2662570476
 C   -0.0183959907    0.3323867840   -0.1448840475
 C   -1.1496026432   -0.5397829566    0.1777092416
 C   -2.0635441385   -1.2807579291    0.4252938308
 C    0.7785602595   -0.1860204968   -1.3699336638
 N    1.2835477986    0.6526549383   -2.1711575866
 N    0.9166497592   -1.5837358609   -1.4084392203
 C    1.6599257628   -2.3063371723   -2.3098650297
 O    2.3391705242   -1.8420776588   -3.1971913004
 H    0.3179179476    2.2146132988   -0.7380570659
 H   -1.2222206455    1.7652845427   -0.9163120219
 H    0.6892505562    0.2745034221    0.6984473197
 H   -2.8852019236   -1.9131774308    0.6577221795
 H    1.8319004729    0.1875653917   -2.8951508280
 H    0.3497261541   -2.1067358495   -0.7541280350
 H    1.5694018496   -3.3941815558   -2.1288081648