18

 C    0.0257244689    1.5634794413    0.0546977907
 C   -0.0602321682    0.0342051789   -0.0906266800
 C    0.7270069667   -0.4959025495   -1.2522036213
 N    0.1200043680   -0.7796931533   -2.4041974014
 N    1.1086768656   -1.1995774110   -3.2159463829
 C    2.3227738275   -1.1971448372   -2.6136106518
 C    2.1271955886   -0.7420972677   -1.3262291880
 C    3.1569555569   -0.5602768855   -0.2532632938
 H    1.0587707445    1.8939562899    0.2041916902
 H   -0.3550133807    2.0570139036   -0.8444038115
 H   -0.5636514986    1.9084062215    0.9103713360
 H    0.2906257727   -0.4379479700    0.8354922537
 H   -1.1054092648   -0.2619426933   -0.2227142573
 H    0.8831008303   -1.4872057894   -4.1522192799
 H    3.2154812765   -1.5164428415   -3.1293633464
 H    3.3159337466    0.4963666220   -0.0071884922
 H    2.8647552255   -1.0627287384    0.6761009357
 H    4.1227881339   -0.9725553004   -0.5592175698