15

 O   -0.0176634683    1.3002859225   -0.3914388456
 C    0.0312348556   -0.0882502631   -0.1249596643
 C   -1.3285886577   -0.6014422328    0.3033949793
 O   -2.3047029151   -0.4309199471   -0.8006161585
 C   -2.4420318994   -1.7933597895   -0.9372446747
 N   -3.0284775061   -2.4975335489   -1.7913594231
 C   -1.5765687409   -2.1288018423    0.2635011680
 O   -0.4471093922   -2.9286053027    0.0261275403
 H   -0.6715667418    1.4276693563   -1.0883426073
 H    0.3863864973   -0.6655534569   -0.9889162293
 H    0.7485379419   -0.2353941373    0.6885807409
 H   -1.6935589324   -0.0768162716    1.1891063202
 H   -3.4808272427   -1.9349317964   -2.5135694809
 H   -2.1581362512   -2.4913026437    1.1212605773
 H   -0.7120840069   -3.6207019663   -0.5908343323