17

 C   -0.1130601799    1.5656078879   -0.0744451561
 C   -0.0523907941    0.0570158426   -0.2138599450
 O   -1.3177611714   -0.4771982611    0.2082411661
 C   -1.3899520340   -1.8331638508    0.1403302814
 C   -1.6349716105   -2.6206864512   -1.1666269385
 C   -2.5686729742   -2.7528398145   -0.0141538804
 O   -1.9969518522   -3.7000159530    0.9340609339
 C   -0.9424106444   -2.8278142246    1.1977659656
 O   -0.0979390402   -2.9348021242    2.0236993658
 H    0.8350141168    2.0098852527   -0.3910839648
 H   -0.9144615471    1.9788935105   -0.6933906352
 H   -0.2989092058    1.8486076093    0.9650896299
 H    0.1361975382   -0.2402764148   -1.2554783262
 H    0.7456279661   -0.3676747442    0.4084364298
 H   -1.9727946389   -1.9771279133   -1.9743558992
 H   -1.0126996972   -3.4617903077   -1.4548062226
 H   -3.6334700512   -2.5788229036    0.0323639455