17

 C    0.1828367645    1.5584783787   -0.0616484970
 C    0.0046687463    0.0478470359    0.1012175492
 N    0.6516099956   -0.4684774362    1.2913647424
 N    2.0215145776   -0.5739565941    1.3451808081
 C    2.2624922179   -1.0179763719    2.5661107124
 O    3.5196803226   -1.2594933743    2.9933806052
 C    1.0951380549   -1.2070014381    3.3370417179
 C    0.0911346187   -0.8319068332    2.4630287116
 O   -1.2540254314   -0.7751309161    2.5860563391
 H    1.2453007836    1.8125178585   -0.0898682748
 H   -0.2817162305    1.8951487093   -0.9936760124
 H   -0.2804997098    2.0981838359    0.7695354249
 H   -1.0530959893   -0.2166325838    0.1708673119
 H    0.4292201510   -0.4807441438   -0.7579070524
 H    4.1078153645   -1.0459969027    2.2577186306
 H    1.0062210377   -1.5604876714    4.3500014009
 H   -1.4963438641   -1.1098231425    3.4547605523