20

 C    0.0094977197    1.6802827131   -0.2950719805
 C   -0.3923005914    0.2068640751   -0.2828480889
 N    0.4477650172   -0.5474877944   -1.2079766499
 C    1.7181492088   -1.1411790233   -0.8094366428
 C    2.0323480855   -1.3500631124    0.6601750143
 C    0.9116488085   -2.2482142180    1.2098610029
 O    0.7229806249   -2.4993101527    2.3705752946
 C    0.0709678053   -2.7713939608    0.0338231070
 C    0.5368772127   -1.9999835144   -1.1869016595
 H    1.0339242599    1.8106642767    0.0691660154
 H   -0.0385803636    2.0809218604   -1.3112799484
 H   -0.6543096392    2.2665664058    0.3473582530
 H   -0.3746089552   -0.1653576697    0.7534100414
 H   -1.4260657769    0.0997533737   -0.6318408034
 H    2.5459193011   -0.9656518088   -1.4908128810
 H    2.9885621390   -1.8753860115    0.7761079265
 H    2.1039279930   -0.4348259230    1.2563196418
 H    0.2694448377   -3.8434539473   -0.0889215704
 H   -0.9947873270   -2.6737321259    0.2631982576
 H    0.4598686800   -2.4814928627   -2.1580248799