20

 C   -0.0067297943    1.5512998475    0.3098564094
 C    1.5109863730    1.4704731815   -0.1083288668
 C    1.1308607998    0.2319480610   -0.9549992854
 C    1.5828416444   -1.2084968747   -1.2220810558
 C    0.1771593148   -1.6781175557   -1.6778505830
 C   -0.8938903872   -0.8488667373   -1.0004159501
 C   -0.0971005608    0.0323487258   -0.0556553736
 N   -0.5065572627   -0.5772079104   -2.4033181802
 C    0.4474874926    0.5474393782   -2.3078628613
 H   -0.2166156416    1.8057428547    1.3504776112
 H   -0.5873305993    2.2134846955   -0.3338258630
 H    1.9434011210    2.3259353945   -0.6334720792
 H    2.1453889039    1.2263745379    0.7480896132
 H    2.3279974429   -1.3359458389   -2.0141735500
 H    1.9252400609   -1.7311695936   -0.3242008634
 H    0.0003066840   -2.6849630766   -2.0373631197
 H   -1.8962727132   -1.2228391921   -0.8285663583
 H    0.1686079614   -0.5415959471    0.8399698506
 H   -0.0901937019    1.4977873417   -2.3373696706
 H    1.1503467724    0.5192492481   -3.1473838141