21

 C    0.6501304190   -0.8968424057    1.6044104354
 C    0.3944545081   -0.3790627206    0.1841770163
 C   -1.0831734066   -0.4467500127   -0.2109658170
 O   -1.6826111805    0.5432258117    0.5721672156
 C   -3.0894084465    0.6824507547    0.6921084217
 C   -1.4954152950   -0.6103066441   -1.7202451303
 C   -0.9784757324   -2.0686059066   -1.7087360762
 C   -1.8057265289   -1.8287450008   -0.4255259181
 O   -2.8093818620   -1.1380676677   -1.2750809532
 H    1.6986083879   -0.7617247497    1.8862538322
 H    0.0294093598   -0.3592462551    2.3250027661
 H    0.4200725946   -1.9650132042    1.6874578116
 H    0.6839907446    0.6755812029    0.1220968322
 H    1.0216933468   -0.9174507056   -0.5285453586
 H   -3.2342747671    1.4542914996    1.4543469818
 H   -3.5626361674    0.9982231694   -0.2417944228
 H   -3.5736863978   -0.2418461577    1.0251095875
 H   -1.4997156844    0.1186682343   -2.5316279659
 H   -1.4938812832   -2.7036607511   -2.4286674195
 H    0.0879706579   -2.2821536450   -1.6471391894
 H   -2.1810273268   -2.5534823459    0.2979697607