22

 C   -0.1383703469    1.6050681491    0.0038699533
 C    0.0145775798    0.0888618390    0.0113091884
 C   -1.3388126195   -0.5933762550   -0.2273229097
 C    1.0859825172   -0.5782673777   -0.8933149812
 C    2.4953630325    0.0457514801   -0.8819602090
 C    2.7225770774   -0.6676611073    0.4629548026
 C    2.0604057714    0.0146520740    1.6734911644
 C    0.7291527279   -0.6038489206    1.2032657557
 N    1.4754343616   -1.5404792739    0.2400689667
 H    0.8085125375    2.1254212373    0.1711270150
 H   -0.5402815563    1.9492090994   -0.9562600088
 H   -0.8361569662    1.9278421369    0.7853653645
 H   -1.7595216535   -0.2956090674   -1.1944191115
 H   -1.2364159946   -1.6829121058   -0.2231835569
 H   -2.0568580850   -0.3169254056    0.5530148482
 H    0.7325238602   -1.0024825234   -1.8374638685
 H    3.1184422324   -0.3836910954   -1.6709264682
 H    2.5929792569    1.1347467346   -0.9174552116
 H    3.6823041026   -1.1643079006    0.6202579592
 H    2.3892047334   -0.4357923935    2.6137570418
 H    2.1363445399    1.1021078863    1.7649668842
 H    0.0850359812   -1.0488747707    1.9670577216