16

 N   -0.0484943433    1.2108061605   -0.0234151332
 C   -0.0572794905   -0.0452202061   -0.0081408256
 O    1.0429250499   -0.8884473918   -0.0299808659
 C    0.4161946431   -2.1920882808    0.0038293747
 C   -0.7364685797   -2.0399011513   -1.0347441553
 C   -1.2225218356   -1.0040741386    0.0370835862
 C   -0.6744875842   -2.0143590017    1.1033683776
 C    1.3918401636   -3.3258714466   -0.0113689631
 O    2.5874847234   -3.2162847437   -0.0491916602
 H    0.9085801245    1.5674894994   -0.0554441679
 H   -0.4545332682   -1.6741731696   -2.0235887792
 H   -1.3810431255   -2.9174928741   -1.1001797002
 H   -2.2198684437   -0.5757829941    0.0608700411
 H   -1.3135876685   -2.8896991760    1.2269102278
 H   -0.3361450347   -1.6253174086    2.0652602194
 H    0.8891252997   -4.3199697370    0.0164828340