16

 C   -0.1007616108    1.5158689857   -0.1318370164
 C    0.0377917782    0.0161412582   -0.0189668776
 C    1.3541056778   -0.6579689734   -0.2083340913
 O    2.4397350388    0.1583435535   -0.4777537083
 C    0.7232034529   -0.6342485017    1.1994724105
 C    1.3230735669    0.1561614766    2.2152938773
 C    1.8499725943    0.8047425185    3.0923457725
 C    2.4407577418    1.5371654967    4.0783622316
 N    2.9473750430    2.1601890526    4.9193074294
 H    0.8107078881    2.0247838027    0.1837890937
 H   -0.2997929425    1.7963948789   -1.1709418427
 H   -0.9315333961    1.8758766612    0.4822468911
 H   -0.8220444353   -0.5507284739   -0.3644223747
 H    1.3692822855   -1.6349748330   -0.6911084949
 H    3.2099689824   -0.1791048263   -0.0073830292
 H    0.2952065351   -1.5700940062    1.5473008589