15

 N   -0.0182479325    1.4046406282   -0.1521311772
 C    0.0464258157    0.0276952627   -0.0401500496
 N   -1.0595650433   -0.7005280406   -0.0476899051
 O   -0.6357035774   -2.0568274071   -0.0181515097
 C    0.6897864133   -2.0428178750    0.0273956372
 C    1.2050456414   -0.7997405843    0.0184654556
 C    2.6960103370   -0.8925842446    0.0358069946
 O    2.9496948743   -2.3155277660    0.0953753123
 C    1.7461894761   -3.0943296958    0.0558909879
 H    0.6715317317    1.9011395349    0.3931582083
 H   -0.9503367994    1.7673269182   -0.0002040706
 H    3.1720003482   -0.4798227152   -0.8647754587
 H    3.1657769501   -0.4190996308    0.9090790240
 H    1.6934273203   -3.7432919506    0.9408569725
 H    1.7367218246   -3.7367680040   -0.8362903816