17

 C    0.0410172632    1.5788500376    0.0797327029
 C   -0.0043833764    0.0504151344   -0.0983184321
 C   -1.4025022044   -0.4995888478   -0.0657401708
 C   -2.0323412997   -0.9894207590   -1.1663290892
 N   -3.3027884425   -1.4762709666   -1.1098986815
 N   -4.0461899149   -1.5306464963    0.0030785306
 C   -3.4888025394   -1.0808138389    1.0879136017
 C   -2.1339753084   -0.5210820049    1.2003027992
 O   -1.6781000386   -0.1187447169    2.2681721402
 H    1.0760312650    1.9338128967    0.0748875584
 H   -0.4964059485    2.0864552437   -0.7278905624
 H   -0.4154134501    1.8585311676    1.0313596790
 H    0.4849500337   -0.2345955958   -1.0369380510
 H    0.5598940141   -0.4113888117    0.7199007892
 H   -1.5708150307   -1.0261763834   -2.1481531828
 H   -3.7596849954   -1.8372355394   -1.9311916967
 H   -4.0920216269   -1.1285829294    1.9894895254