19

 C   -0.0987957471    1.5141652148   -0.0659640240
 C   -0.0663737866   -0.0177020115   -0.0629822206
 C   -1.2828678401   -0.5082368367    0.8026961911
 O   -0.3760255801   -0.5522557533    1.9892015796
 C    0.6889464124   -0.7541017160    1.0136653962
 C    2.0408552305   -0.2394531331    0.3772432271
 C    1.1453976128   -0.6058161905   -0.9402060655
 C    1.0053384266   -2.1107946848   -0.7651154623
 C    0.7252082914   -2.2188941299    0.5326065846
 H    0.8090537318    1.9718335179   -0.4642554250
 H   -0.9273568972    1.8417808877   -0.7055413369
 H   -0.2783552455    1.9139426711    0.9371582129
 H   -2.0906304046    0.2109452982    0.9579578408
 H   -1.6732693174   -1.5053378067    0.5857544162
 H    2.2571397207    0.8212957475    0.5000937464
 H    2.9364285283   -0.8470900066    0.5232429058
 H    1.4060858344   -0.1907381412   -1.9141520797
 H    1.1305644910   -2.8637262239   -1.5302490625
 H    0.5306665588   -3.0737617130    1.1645680758