18

 O    0.0446186270   -0.2263659340   -0.1012986934
 C   -0.0230239573    0.9728223952   -0.0294873651
 C    1.1661598790    1.9123415974    0.0136767687
 C    1.3759037941    2.5345323902    1.4256583211
 O    2.6459390972    1.8868822188    1.5684429813
 C    2.5292816046    1.2360435712    0.2813676233
 C    1.0931703285    2.8509423425   -1.1765844788
 C    0.3955635748    4.1606829045   -1.0989867535
 N    1.8588106555    4.1001235353   -1.2363200097
 H   -1.0068119227    1.4941213945    0.0117651743
 H    1.4571083374    3.6293327738    1.4663491988
 H    0.6526691308    2.2154996787    2.1879609674
 H    2.4827067434    0.1464330410    0.3675557688
 H    3.3375668949    1.5274865565   -0.3979135146
 H    1.0785871082    2.3234489353   -2.1295419246
 H   -0.1330340747    4.5511590809   -1.9633185971
 H   -0.0272356326    4.4559190644   -0.1413564480
 H    2.3123732318    4.2932722437   -0.3460961688