21

 C    1.0114353456   -0.5653837734   -0.7230853913
 C   -0.0381037978    0.0351905114    0.2212175871
 C   -0.0626479351    1.5664077908    0.1286521360
 C   -1.4537019691   -0.5263556471   -0.0773352105
 O   -1.8690208203   -0.1752316408   -1.3724230953
 C   -1.5358529662   -2.0373933410    0.0970911856
 O   -1.8791496127   -2.7392985165   -0.8364742083
 C   -1.2240836367   -2.6841395898    1.4351042461
 O   -1.4541494572   -4.0614736036    1.4059946607
 H    1.9968775359   -0.1311185315   -0.5314093388
 H    1.0999976507   -1.6513055485   -0.6073933429
 H    0.7434039964   -0.3595599776   -1.7630449143
 H    0.2077639522   -0.2403242993    1.2558149570
 H   -0.3517675603    1.8828367080   -0.8771119530
 H   -0.7771561248    1.9980218377    0.8375902442
 H    0.9253566510    1.9815446422    0.3501200117
 H   -2.1473044694   -0.0898418536    0.6632697301
 H   -2.0755524043   -1.0100418187   -1.8203698742
 H   -0.1752232031   -2.4613340094    1.6909647400
 H   -1.8382411772   -2.1949112005    2.2083365625
 H   -1.7229068076   -4.2611431787    0.4960459175