20

 C    0.0015581467    1.4889518551    0.1272199393
 C    0.1452607678   -0.0313845010    0.0297411874
 C    0.5993168039   -0.4911381044   -1.3606645249
 N    0.8142336173   -1.9265019282   -1.3909723673
 C    0.1232112700   -2.6045290885   -2.1883087217
 O    0.2473904612   -3.9528375406   -2.2323929043
 C   -0.4473326584   -4.6349820200   -3.2591524406
 C   -0.8582287733   -6.0044662532   -2.7381792621
 O   -1.2801987206   -6.8762370878   -3.4480648852
 H    0.9528441932    1.9916444098   -0.0798937969
 H   -0.7353580743    1.8686758010   -0.5895085876
 H   -0.3227266670    1.7914955239    1.1272635320
 H    0.8687769164   -0.3949521372    0.7677560261
 H   -0.8090859429   -0.5167990296    0.2683044965
 H   -0.1323640657   -0.1580306612   -2.1189110877
 H    1.5527813927   -0.0023709738   -1.6013227659
 H   -0.6231186446   -2.1985990737   -2.8899594095
 H   -1.3572803100   -4.0952347358   -3.5612937938
 H    0.1801952618   -4.7592798067   -4.1507809126
 H   -0.7420686043   -6.1190504382   -1.6387569710