21

 C    1.0156726909    1.3372136272    0.2314315924
 O    0.0120615482    0.7455642756   -0.5600115840
 C    0.4355058552   -0.3882609537   -1.2833166601
 C    0.7179710750   -1.6407792940   -0.4636864675
 O   -0.4559947001   -2.3350302707   -0.0207289617
 C    0.2111266863   -2.8030141760   -1.2005078752
 C   -0.4385712438   -2.3456722570   -2.4918083825
 C   -0.6538926825   -0.8158518710   -2.3139789683
 C   -2.0805157327   -0.4655277326   -1.8716252093
 H    1.3479978983    0.6802596745    1.0485134376
 H    1.8971734815    1.6133755264   -0.3694847448
 H    0.5891282892    2.2436041091    0.6678996004
 H    1.3734007419   -0.1470858343   -1.8181960258
 H    1.5718976382   -1.6964366072    0.2070442533
 H    0.6621422062   -3.7891509502   -1.1180856589
 H    0.2430910363   -2.5619291348   -3.3234858123
 H   -1.3765536527   -2.8720583243   -2.6958233487
 H   -0.4582372615   -0.3034249634   -3.2607997181
 H   -2.3393342966   -0.9759317715   -0.9423166933
 H   -2.1849887238    0.6096219035   -1.7133623447
 H   -2.7919139536   -0.7705755257   -2.6466956684