21

 C   -0.0916878363    1.5556473907    0.0771243972
 C   -0.0383824608    0.0345057760   -0.0344412593
 N    0.7882382284   -0.5213903724    1.0427946081
 C    0.8044296778   -1.9754298971    1.1577279982
 C    1.3489153596   -2.7444291113   -0.0501564152
 C    1.3503505763   -2.4309876167    2.5369750539
 O    0.0240532257   -2.9149961441    2.9164896939
 C   -0.5106367956   -2.5223770828    1.7128139953
 N   -1.6788094812   -2.6176542400    1.2658983004
 H    0.9068246168    1.9972712645   -0.0265784738
 H   -0.7227629282    1.9781606021   -0.7105611415
 H   -0.4931539255    1.8569395404    1.0486087272
 H   -1.0415150773   -0.3885998743    0.0719278361
 H    0.3185089619   -0.2450540895   -1.0406513783
 H    1.7447498751   -0.1908853911    0.9391152005
 H    2.3729176270   -2.4237961376   -0.2746883720
 H    1.3608380051   -3.8228471900    0.1358701930
 H    0.7293324145   -2.5665831421   -0.9324495712
 H    2.0745780931   -3.2493584432    2.5298542989
 H    1.6712677491   -1.6187713655    3.1918065922
 H   -2.3059942554   -3.0481110160    1.9482961764