18

 N   -0.4348240610    1.3111897149    0.1570139006
 C   -0.0949760690    0.0236982334   -0.1107939595
 O    1.0073931632   -0.3288073765   -0.4770410958
 C   -1.2788938655   -0.9775044025    0.0241284694
 C   -0.8543866108   -2.4075968501   -0.3108748896
 C   -2.0386606940   -3.2925702427   -0.6941306545
 O   -3.0473307953   -3.3406075780    0.3121354457
 C   -1.9291806759   -0.8457549661    1.3958255407
 O   -2.5059421881    0.1453064090    1.7748251336
 H    0.3071866101    1.9920905320    0.1813348788
 H   -1.3017101808    1.5068483994    0.6370261154
 H   -2.0362417850   -0.6279843191   -0.6905059723
 H   -0.1289322234   -2.3793048942   -1.1284177090
 H   -0.3208193532   -2.8446953861    0.5444042582
 H   -2.5347335970   -2.8853262175   -1.5827243401
 H   -1.6893895860   -4.3018625799   -0.9534666475
 H   -2.7279105887   -3.8996560234    1.0274473866
 H   -1.8112607397   -1.7229855929    2.0628266493