21

 C    0.1881573452    1.8407046372    0.0138490136
 C    0.0069292052    0.3181596614    0.1063939128
 C    0.5980037421   -0.4409799442   -1.1050652379
 C   -0.1160112222   -0.1569394912   -2.4228002555
 O    0.4462664684   -1.0225597769   -3.3958464518
 C    0.6852773776   -0.2182169555    1.3583645131
 O    1.7941240851    0.1332269509    1.7054082056
 C   -0.0561356947   -1.2508002528    2.1935462419
 O    0.7251919583   -1.7154518176    3.2505920716
 H    1.2511918022    2.0912015900   -0.0257989843
 H   -0.3028195879    2.2459924293   -0.8742327609
 H   -0.2402464600    2.3402138407    0.8881796496
 H   -1.0628879654    0.0770231310    0.1725975448
 H    1.6600242072   -0.1925116235   -1.2048559264
 H    0.5427620590   -1.5224794383   -0.9318810246
 H   -1.1980260714   -0.3365860354   -2.3043181758
 H    0.0113091875    0.8971256147   -2.7105033117
 H    0.0553442256   -0.8131796413   -4.2490568865
 H   -0.9871631864   -0.7758271182    2.5521175718
 H   -0.3726735708   -2.0756859833    1.5337201003
 H    1.5467173755   -1.1999222669    3.1967347403