17

 N   -0.0866523233   -1.2518764642   -0.0032400982
 C   -0.0577570454   -0.0950895657    0.0058121792
 C   -0.0482317628    1.3539618958    0.0155008777
 C   -0.3692739426    2.0664141227    1.4272348413
 C    1.1453267247    2.3970765138    1.4682931666
 C    2.4283069972    3.2888799769    1.3714338061
 N    2.7960931814    2.0446738772    0.4870996485
 C    2.1630959245    1.2390252121    1.6283327095
 C    1.3078027561    2.2093894206   -0.0049800107
 H   -0.7050882227    1.6961218362   -0.7879479077
 H   -1.0237007243    2.9265083145    1.2699553995
 H   -0.7759236924    1.4297466642    2.2151757668
 H    2.3512691327    4.2219906495    0.8085423290
 H    3.0911722420    3.3837596406    2.2357487231
 H    2.7660026289    1.2286184013    2.5400106082
 H    1.8789402194    0.2267549071    1.3430183312
 H    1.2064714466    3.0510802776   -0.6926154202