16

 C    0.0574308563    1.4385973739    0.0098499633
 C    0.0260173212   -0.0127049034    0.0018371237
 C   -0.0162285106   -1.2189397273   -0.0046449500
 C   -0.0427345845   -2.6589308463   -0.0128202884
 O   -1.0733328092   -3.3037403892   -0.0037999282
 C    1.3203220263   -3.3344994717   -0.0338827073
 N    1.1506582473   -4.7631536998   -0.0405804619
 C    2.2024556967   -5.6169591190   -0.0471324257
 O    3.3667341980   -5.2730241282   -0.0518383035
 H    1.0844449246    1.8169883169    0.0027568661
 H   -0.4614144339    1.8401069533   -0.8672547103
 H   -0.4456005688    1.8300882719    0.9005795633
 H    1.8785956539   -2.9853062959   -0.9135200016
 H    1.9005005100   -2.9967625404    0.8359623430
 H    0.1957655549   -5.0934612632   -0.0318185030
 H    1.8787287279   -6.6762112616   -0.0481422593