14

 N    0.0694740918   -1.1692490126   -0.0109820639
 C    0.0227646174   -0.0151436969   -0.0333557371
 C    0.0024450499    1.4468582921    0.0076745999
 C   -0.1789206178    2.1281632129    1.4262621598
 N    1.1299216516    2.8414784014    1.3253865044
 C    2.1559109237    1.7899634091    1.2084898314
 C    1.3833889199    2.1484630176    0.0071370213
 C   -0.9177035454    1.9844984531   -0.9906309254
 N   -1.6366319096    2.4383918733   -1.7722066094
 H   -1.0090786962    2.8331533404    1.4327368077
 H   -0.2598739579    1.4342719579    2.2664490481
 H    3.1667672092    2.1785613528    1.2706759092
 H    2.0001377423    0.8297077195    1.6947406416
 H    1.7869105409    2.6544491895   -0.8618050876