17

 O    1.9904454863    4.1251642572   -0.0400469750
 C    1.0915227125    3.3187346907    0.0124374110
 N    1.2259877308    1.9537293208   -0.0219443722
 C    2.4096041299    1.2226672248   -0.1356989255
 C    2.5045638406   -0.1057914683   -0.2777640355
 C    3.9568916078   -0.5204072071   -0.3008486970
 N    4.7415367853    0.7343143591   -0.2247997546
 C    4.5567558125    1.6403372490   -1.3619220613
 C    3.7681043580    1.8456902806   -0.1155028756
 H    0.0251998454    3.6040461770    0.1016809582
 H    0.3706046491    1.4202594120    0.0283877958
 H    1.6764475820   -0.7973463627   -0.3796557068
 H    4.2186127846   -1.1536729869    0.5580605143
 H    4.2312512046   -1.0838848985   -1.2022539724
 H    5.4117634391    2.2764104971   -1.5728187480
 H    4.0179990358    1.2803545988   -2.2362210993
 H    3.9821361156    2.6640874563    0.5592153638