20

 C   -0.1112025686    1.5039643227   -0.3233385040
 C   -0.0362634871    0.0295205418    0.0815913994
 C   -1.4053880245   -0.6585911646    0.0864399578
 C   -1.3174120622   -2.1342844540    0.4928434096
 N   -2.6122466979   -2.7976977767    0.5120851945
 C   -2.9882697084   -3.7140811327   -0.4219971968
 O   -2.2969023752   -4.1115044791   -1.3357875462
 C   -4.4227374757   -4.2230047582   -0.1933176374
 O   -4.9417322128   -5.0374541339   -0.9002420041
 H    0.8796914910    1.9679012722   -0.3190513870
 H   -0.5277830185    1.6167268532   -1.3300952723
 H   -0.7481265004    2.0720778224    0.3637300408
 H    0.6334846348   -0.5064157564   -0.6031288568
 H    0.4168802781   -0.0552631762    1.0783046429
 H   -2.0802887755   -0.1290865663    0.7736388557
 H   -1.8613433682   -0.5935446156   -0.9090453015
 H   -0.7032803350   -2.6921480985   -0.2182958180
 H   -0.8535805635   -2.2265899776    1.4829200939
 H   -3.2846237134   -2.5139325392    1.2078302685
 H   -4.9569936272   -3.7799541831    0.6823650613