20

 C   -0.0118433191    1.3461468167    0.0050299107
 O    0.0025479269   -0.0599580823    0.0037485369
 C    0.6475220784   -0.6034923763   -1.1295514566
 C    0.6064406756   -2.1012379883   -1.0299241442
 C   -0.6599572967   -3.0093761374   -0.9602961090
 C    0.5562310871   -3.9770845734   -0.9062316827
 C    1.1933907566   -3.1273090863   -2.0442744149
 C    1.2099182471   -2.9894086262    0.1015687839
 H    1.0067015967    1.7670264535    0.0069488247
 H   -0.5454918181    1.7519689426   -0.8696714487
 H   -0.5277737874    1.6684187741    0.9130006671
 H    0.1473233172   -0.2694146168   -2.0561371368
 H    1.6940675471   -0.2539023638   -1.1834140879
 H   -1.2671254335   -2.9257641107   -0.0559637296
 H   -1.2808575752   -3.0500973360   -1.8604557920
 H    0.5289032528   -5.0648522640   -0.8377445929
 H    0.7110064142   -3.1772491068   -3.0251652978
 H    2.2835761689   -3.1603582747   -2.1322265563
 H    2.3015709868   -3.0118371284    0.1740050976
 H    0.7429025946   -2.9041982254    1.0854784184