19

 C   -0.0857999011    1.6126845241    0.1501784486
 C   -0.1157343189    0.0915670280   -0.0105362303
 O   -1.4239663084   -0.3956194965    0.1870242706
 C    0.6432475526   -0.4756959071   -1.2722257417
 C    0.8447932096    0.3942815152   -2.5035696642
 O    1.7310346671   -0.2001785141   -3.4405237884
 C    1.8921593802   -0.7880264028   -0.3844554105
 C    0.9568738657   -0.6442143042    0.8141858580
 O    0.8907703132   -1.1363438806    1.9068104840
 H    0.9160498859    2.0295030482    0.0093468430
 H   -0.7628731413    2.0776487953   -0.5721463066
 H   -0.4274913597    1.8743244126    1.1556497421
 H   -1.4323247113   -0.8327042662    1.0484237851
 H    0.1422951991   -1.4088521179   -1.5523257122
 H   -0.1283992632    0.6282851280   -2.9626116717
 H    1.3115569159    1.3457551498   -2.2294067252
 H    1.3233143067   -1.0117030448   -3.7599798652
 H    2.3964617078   -1.7491705490   -0.4948356101
 H    2.6406612102    0.0102533519   -0.4322474452