17

 O   -0.0770399800    1.3870915336    0.0103570284
 C    0.0207076491   -0.0110350332   -0.0034201960
 C   -1.3467310218   -0.7495172179   -0.0153089240
 C   -0.6537209971   -2.1405459826   -0.0270247330
 O   -1.5385072610   -3.2275000467   -0.0408497386
 C    0.2451348535   -1.9375444195   -1.2706393910
 C    0.6468297888   -0.6693225741   -1.2565448771
 C    0.2370097536   -1.9626491725    1.2262425761
 C    0.6386527356   -0.6944121232    1.2403194561
 H    0.8122487836    1.7550776210    0.0151358038
 H   -1.9352430503   -0.5731562306    0.8873385288
 H   -1.9293352740   -0.5549826815   -0.9180552667
 H   -1.0231866567   -4.0403239294   -0.0465854451
 H    0.4956594923   -2.7274576547   -1.9679810846
 H    1.3108647720   -0.1537749409   -1.9394004970
 H    0.4830173786   -2.7664390237    1.9091917778
 H    1.2980966940   -0.1926731440    1.9377421719