21

 C   -0.0315432187    1.4925448070    0.0565729060
 C    0.0374349134   -0.0158387235    0.0454427009
 C    0.9404951391   -0.7861884400   -0.9691203661
 C    0.8375339005   -1.9036691077    0.0721034035
 O    1.6111685472   -3.0570253231    0.0940419335
 C   -0.6811805941   -2.1391885702    0.4682783903
 C   -0.3140274629   -1.7287662030    1.9213527843
 C    0.7287377768   -0.8437166547    1.2250468352
 C   -1.2760305452   -0.8278920192   -0.0792214035
 H    0.9630249579    1.9410002608    0.1551488374
 H   -0.4763038841    1.8732817267   -0.8706799320
 H   -0.6448693203    1.8542218356    0.8898282537
 H    0.5678100014   -0.9384492096   -1.9880270833
 H    1.9576241268   -0.3770757275   -1.0019503121
 H    2.5379859810   -2.8007431460    0.0404643446
 H   -1.1761965747   -3.0828689301    0.2417891496
 H   -1.0967496663   -1.2741194168    2.5371931870
 H    0.1709698050   -2.5395276193    2.4705934956
 H    1.5906823487   -0.3890618218    1.7154657072
 H   -2.0923184229   -0.4477303068    0.5438450984
 H   -1.6277353885   -0.8863287007   -1.1137808104