22

 C   -0.2282394810    0.9616179288   -1.9593286632
 C   -0.0011190251   -0.1984313588   -1.0103715744
 C    1.3567709713   -0.5326925331   -0.4052097312
 C    2.6064739259    0.2600233905   -0.7114657655
 O    3.2546786161   -0.1991520618   -1.8927085895
 C    0.2271112664   -0.0353667405    0.4808103470
 C    0.2815451025    1.3471253103    1.1097113060
 C   -0.4214777565   -1.0649742908    1.3911293852
 H    0.4143543405    1.8198234660   -1.7495174491
 H   -0.0416949914    0.6597464798   -2.9970045022
 H   -1.2651201531    1.3122552367   -1.9079345675
 H   -0.5964709210   -1.0704688895   -1.2738152096
 H    1.5723408610   -1.5960008990   -0.3207195976
 H    2.3980359180    1.3372158807   -0.7737658383
 H    3.3412359653    0.1271150521    0.0906106759
 H    2.6044728271   -0.1706555572   -2.6020522586
 H    0.7085626896    2.1074229613    0.4536491299
 H   -0.7264022669    1.6798697096    1.3850066508
 H    0.8802080951    1.3303838441    2.0279632815
 H    0.1306997486   -1.1636871115    2.3336112119
 H   -1.4505070281   -0.7779520499    1.6398798848
 H   -0.4546691945   -2.0523192377    0.9202214136