17

 N   -0.0199057789    0.6887941765    1.0372509994
 C    0.0024928750   -0.2664026093    0.2114463594
 N    0.9589656002   -0.9389375431   -0.5539819136
 C    0.0684804302   -2.0574886852   -0.9014475770
 C    0.1821244382   -3.3034313790   -0.0222673395
 O   -0.0035507372   -2.9326273696    1.3338911529
 C   -1.3095642390   -2.4916418481    1.6332361451
 O   -1.9594179644   -1.8650831266    0.5437288385
 C   -1.1056804825   -1.1880416309   -0.3347856156
 H    0.9160580538    1.0558307050    1.2210053981
 H    1.9418948605   -1.0147461837   -0.3280167054
 H    0.0584860098   -2.3078938783   -1.9666989341
 H   -0.5606924715   -4.0480466043   -0.3475713743
 H    1.1740795221   -3.7614269370   -0.0846238388
 H   -1.9609659850   -3.3342498804    1.9063572906
 H   -1.2011783349   -1.8002933990    2.4775063110
 H   -1.7377342665   -0.7150088271   -1.0868453569