18

 C   -0.0042879210    1.5400148068    0.0609112280
 C    0.0059170326    0.0343858673   -0.0475697030
 C    0.7313408214   -0.6516302226   -1.2347439633
 C    1.1260465052   -1.6546182820   -0.1271929164
 O    0.9726678599   -0.5887557678    0.8603699475
 C    0.0046452555   -2.6540299647    0.0687917244
 C   -1.2096792795   -2.1334287479    0.2405026734
 C   -1.3642247845   -0.6271817669    0.2157554627
 H    0.9996875790    1.9426430280   -0.0979850685
 H   -0.6797776215    1.9752096842   -0.6837179637
 H   -0.3476263705    1.8510891924    1.0535879502
 H    0.1458756423   -1.0171094492   -2.0803877759
 H    1.5783715686   -0.0513079212   -1.5737771808
 H    2.1285043548   -2.0863913019   -0.1154335571
 H    0.2018052707   -3.7205770919    0.0619040724
 H   -2.0911270368   -2.7457051313    0.4072136632
 H   -1.7645236565   -0.2682608254    1.1740590370
 H   -2.0879094599   -0.3233434358   -0.5533647102