19

 C   -0.0904891866    1.4897331226    0.0040649612
 C   -0.0061639897    0.0376006691   -0.0076928129
 C    0.0821528615   -1.1667272400   -0.0180025954
 C    0.1135654004   -2.5882248713   -0.0211792485
 C    1.2518802287   -3.2872967728   -0.1492644706
 C    1.2896374224   -4.7878206625   -0.1113202846
 O    0.0746852207   -5.3789783108    0.3013850314
 C   -1.0517901688   -4.7790342265   -0.3154770531
 C   -1.2084362519   -3.3228370212    0.1227918221
 H    0.5191046128    1.9182935590    0.8078190532
 H    0.2635507201    1.9171163750   -0.9411727907
 H   -1.1218048550    1.8276194158    0.1541172347
 H    2.1998413578   -2.7761601352   -0.2876711190
 H    1.5925901841   -5.1752120632   -1.1034115742
 H    2.0518970117   -5.1288680078    0.6004565264
 H   -0.9596298535   -4.8309352895   -1.4131644420
 H   -1.9179912819   -5.3780328774   -0.0210746714
 H   -1.5502261951   -3.2727499545    1.1641738866
 H   -1.9757527179   -2.8283852586   -0.4836555331