18

 O   -0.0562980490    1.4394339759    0.0635009812
 C    0.0040997277    0.0232638329    0.0098120250
 C    0.6702176115   -0.6308414276    1.2410916497
 C   -0.1022306502   -1.9659245896    1.4173845671
 C   -0.1548902344   -2.4391613886    2.7945576145
 C   -0.1861224886   -2.8098123927    3.9372755458
 N   -1.4598260267   -1.7825764329    0.8268645994
 C   -2.1402767147   -0.5644859509    1.2908121745
 C   -1.3990560378   -0.5583976481    0.0053415922
 H    0.8348345611    1.7823537506   -0.0564776649
 H    0.5157047688   -0.2987966887   -0.9104120340
 H    1.7424483744   -0.7976701198    1.1147195169
 H    0.5355205953    0.0211064227    2.1072246686
 H    0.3764591030   -2.7381665172    0.8020615440
 H   -0.2191764294   -3.1483585761    4.9432109590
 H   -3.2234712913   -0.6314941400    1.2811641319
 H   -1.7313521322   -0.0161611775    2.1338684621
 H   -1.9377610676   -0.5785159723   -0.9370153131