19

 C   -0.1301664962    1.5319141616    0.0276719226
 C    0.0392232607    0.0145424594   -0.0155107350
 C    0.8393506913   -0.4842748277   -1.2301512965
 C    0.8613365434   -2.0074191593   -1.2629629182
 N    1.3675404675   -2.5384948207   -0.0035911892
 C    1.1303654786   -1.9918377520    1.2435573137
 N    1.2955254555   -2.5668561036    2.3726311790
 C    0.6777533965   -0.5245230019    1.2628810803
 O    0.8197257448    0.1467477028    2.2520559986
 H    0.8437023306    2.0308900150    0.0535719705
 H   -0.6731407162    1.8825743396   -0.8551872037
 H   -0.6755795630    1.8373208606    0.9224695706
 H   -0.9559986764   -0.4590061573   -0.0674076088
 H    0.3923207973   -0.1062688392   -2.1551451518
 H    1.8650220570   -0.0979814182   -1.1823238904
 H   -0.1548759035   -2.3797570176   -1.4751397767
 H    1.5087598626   -2.3659131473   -2.0701518301
 H    1.5694046680   -3.5284213401    0.0038800209
 H    1.5915687913   -3.5397418242    2.2538090842