19

 C   -0.2583699448    1.4666568748    0.0043684974
 C    0.3820084979    0.0703309261    0.1056558094
 C    0.9409011799   -0.4001496920   -1.1572400338
 C    1.4033025423   -0.7651185378   -2.2082017614
 C    1.9545153154   -1.2196075775   -3.4895003479
 O    3.3607416016   -0.9504339932   -3.5950537038
 C    4.0917173039   -2.1700049849   -3.6952098562
 C    3.0509384147   -3.2491411497   -3.7878931065
 C    1.8409045066   -2.7185240719   -3.6797336480
 H    0.4780955158    2.2084701773   -0.3157884291
 H   -1.0752186489    1.4677331817   -0.7224681363
 H   -0.6596285240    1.7740358206    0.9747672652
 H    1.1736990800    0.0834520139    0.8658265103
 H   -0.3637706833   -0.6513928111    0.4635192211
 H    1.4470313224   -0.6737997109   -4.3007609891
 H    4.7411325107   -2.1287196038   -4.5823785324
 H    4.7464343175   -2.3004896716   -2.8183049637
 H    3.2927671980   -4.2970279967   -3.9125038747
 H    0.8873118641   -3.2285558130   -3.6893851207