14

 O    0.0091127839    1.4120115627    0.0075512274
 C   -0.0119006984    0.0010190867    0.0023269803
 C   -1.4255356612   -0.4599001483    0.0120166656
 C   -2.5635926137    0.2407598260    0.0231708666
 C   -3.7209206863   -0.7080238727    0.0291487086
 O   -4.9011506618   -0.4657752716    0.0395255035
 N   -3.1497045162   -1.9884692918    0.0209668392
 C   -1.7627247858   -1.9293739375    0.0100991032
 O   -0.9950235291   -2.8614181980    0.0014161372
 H    0.9259706526    1.7011190588    0.0009790865
 H    0.4899803517   -0.4229892507   -0.8835334226
 H    0.5043006090   -0.4297897497    0.8765864243
 H   -2.6893355690    1.3126769946    0.0276021250
 H   -3.6820161658   -2.8436042385    0.0227877053