14

 O   -0.9020425072    1.2169581497   -0.0995487720
 C    0.2378515181    0.9155124682    0.1549811593
 C    1.3788824937    1.8485369753   -0.0116029642
 C    1.1767358462    3.3499931227   -0.0423292317
 C    1.6101555498    2.6395739678   -1.2943746988
 N    3.0075240292    2.4489757558   -1.4992975905
 C    3.6175165577    1.7680351536   -0.4668875301
 O    4.7799717785    1.5497196897   -0.2975128464
 O    2.6269618467    1.3525889489    0.4075218075
 H    0.5272036123   -0.0889399203    0.5266743087
 H    0.1369980997    3.6538804056    0.0063050870
 H    1.8963914900    3.9619806150    0.4896122730
 H    0.9485874574    2.5402381384   -2.1469361909
 H    3.5708740881    2.9972929198   -2.1269124910