26

 C    0.2442811203    1.5569146158    0.3414246660
 C   -0.0079789619    0.0675425314    0.0772010817
 C    0.5895244131   -0.4750754272   -1.2409609660
 C    2.1029427409   -0.1741276148   -1.3606239693
 C    2.9998437513   -0.8450860651   -0.3123603252
 C    0.2462380100   -1.9771756989   -1.4513945072
 C   -1.2712154521   -2.2305651039   -1.4787220446
 C    0.8709823693   -2.5489230624   -2.7352498630
 H    1.3000700728    1.7746650568    0.5273154843
 H   -0.0761030366    2.1705233695   -0.5086008771
 H   -0.3163231788    1.8924780328    1.2198429027
 H    0.3725758563   -0.5216598606    0.9222446342
 H   -1.0901732475   -0.0933442401    0.0668277721
 H    0.1028372478    0.0744331332   -2.0631042439
 H    2.4460438467   -0.4584760379   -2.3605132811
 H    2.2463790180    0.9106900435   -1.3072206931
 H    2.9337058803   -1.9368463684   -0.3556747422
 H    4.0482544907   -0.5741924705   -0.4727315922
 H    2.7362511543   -0.5407078302    0.7056395733
 H    0.6576302408   -2.5403919287   -0.6013435460
 H   -1.7544816115   -1.6312968941   -2.2604465833
 H   -1.4797729542   -3.2832749706   -1.6963400396
 H   -1.7562125151   -1.9945380194   -0.5288041073
 H    0.5503569916   -3.5846348671   -2.8885724984
 H    0.5566990876   -1.9741627184   -3.6153242379
 H    1.9634980957   -2.5469407845   -2.7087454570