17

 N    0.0125352099    1.3258564090    0.0337828840
 C   -0.0629678169   -0.0330817501    0.0002242663
 N   -1.1853015789   -0.6554075190   -0.0399132326
 C   -1.2005325750   -2.1120604871    0.0169904365
 C    0.0460492089   -2.7925021874   -0.5575482518
 O    0.1144728181   -2.6640301294   -1.9724698965
 C    1.2988230640   -2.2058843133    0.1120660866
 C    1.3075731542   -0.6993967304    0.0180097904
 O    2.3133909129   -0.0276549126   -0.0486793344
 H    0.9151581311    1.7350977143   -0.1446495274
 H   -0.8200405520    1.8546996864   -0.1635630097
 H   -1.3434469719   -2.4311308676    1.0607678948
 H   -2.0810853099   -2.4627350755   -0.5325757457
 H    0.0005981174   -3.8696772013   -0.3635010521
 H   -0.1996617790   -1.7835602184   -2.2067641020
 H    1.2938167636   -2.4653220281    1.1813626196
 H    2.2206421335   -2.5987376095   -0.3228989659