17

 C   -0.0244756213    1.5413361034    0.0504616495
 C    0.0878231874    0.0506522045    0.0018030958
 N   -0.8372030572   -0.8674877287    0.6878183026
 C    0.6346371944   -0.9210973118    1.0167113277
 C    1.2654779782   -1.7377106663   -0.1011891634
 O    2.0461293407   -2.6403423868   -0.1468471548
 C    0.6571965977   -0.7898680006   -1.1463993369
 C    0.1340684096   -1.0170644575   -2.5077612764
 N    1.4200430743   -0.3236109124   -2.3048220317
 H    0.9096878058    2.0184689447   -0.2638882066
 H   -0.8266964232    1.9006622241   -0.6049453886
 H   -0.2484515869    1.8835339147    1.0660048789
 H   -1.2671118085   -0.3525229225    1.4594060579
 H    0.9831868227   -0.7617365154    2.0292673766
 H    0.2181475469   -2.0041068286   -2.9528023264
 H   -0.7356764568   -0.4419838909   -2.8158779270
 H    1.2967516263    0.6814500301   -2.4148584373