20

 C   -0.0238972614    1.6568298078    0.4682235782
 C   -0.0668057587    0.2113236198   -0.0465051998
 C    0.9225017107   -0.6715338267    0.7427530805
 C   -1.4574500431   -0.3639057155   -0.0312782225
 C   -2.5513709803   -0.0106025268    0.7349785055
 N   -3.5706411455   -0.8234634955    0.3755514618
 N   -3.2223496232   -1.7132470038   -0.5868078500
 C   -1.9478608575   -1.4317492577   -0.8361367644
 N   -1.2517447154   -2.0932976970   -1.8531335476
 H    0.9875327497    2.0675026389    0.3869827212
 H   -0.7015611288    2.3008111088   -0.0997984314
 H   -0.3130513003    1.7084420077    1.5244759268
 H    0.2660065271    0.2195426772   -1.0941866832
 H    0.6543279045   -0.6947877011    1.8046349584
 H    0.9201916027   -1.7065435286    0.3844487724
 H    1.9457235257   -0.2894495942    0.6569728818
 H   -2.6783574031    0.7542184308    1.4849597208
 H   -4.5132453653   -0.8257491860    0.7212537837
 H   -1.7701939318   -2.8986501228   -2.1818028483
 H   -0.3174449760   -2.3707079653   -1.5820644838