21

 C    0.2810096340    1.6489231337   -0.6874643115
 O   -0.3544384789    0.4028881181   -0.5136385246
 C    0.4258744695   -0.6803387674   -0.9405475183
 C    1.6186194911   -1.1415233176   -0.0495216585
 C    1.1393976390   -2.5961915728   -0.2615313721
 C    1.9404084287   -3.5741867984   -1.1503977346
 C    1.9500539601   -4.4753191020    0.0984339931
 O    1.1900109081   -3.5066442819    0.8503307128
 C   -0.2352835240   -2.0534749161   -0.7116303142
 H    1.2092411392    1.7239218141   -0.1010671532
 H    0.5266832736    1.8364296232   -1.7450064006
 H   -0.4137032908    2.4196415022   -0.3450932893
 H    0.7395024198   -0.5364299628   -1.9864544193
 H    2.6397822846   -0.8878902045   -0.3450464390
 H    1.4471913801   -0.8438552501    0.9893214993
 H    1.3958641942   -3.9701751558   -2.0099721371
 H    2.9172200738   -3.2130841652   -1.4783608214
 H    1.4183847239   -5.4297266514    0.0055426125
 H    2.9338672636   -4.6598141971    0.5462766421
 H   -0.9116507991   -1.9959864670    0.1458402313
 H   -0.7415793605   -2.5407521813   -1.5480388873