21

 C    0.0060311769    1.5476782426   -0.1053857230
 C   -0.0079465311    0.0229890955   -0.0150303244
 O    0.6169614559   -0.4622558899   -1.1976616690
 C    0.9429371581   -1.8363790648   -1.1294792076
 C    2.0026245929   -2.0957327304   -0.0564245824
 C    1.5950172155   -1.4270083116    1.2345286281
 C    2.2909742607   -1.9012035155    2.4794793216
 O    1.8612817385   -1.1622269640    3.6062090325
 C    0.6599440250   -0.4789149506    1.2392948776
 H    1.0352367542    1.9174346250   -0.0944823930
 H   -0.4724118696    1.8720908395   -1.0335128816
 H   -0.5329795769    1.9866329289    0.7393623777
 H   -1.0633505013   -0.3134047364   -0.0074944931
 H    0.0429973973   -2.4362107634   -0.9132308184
 H    1.3037046389   -2.1173918613   -2.1232963930
 H    2.1237473788   -3.1780719789    0.0905249328
 H    2.9781330956   -1.7183549081   -0.3928739519
 H    2.0910949244   -2.9804673647    2.6091632456
 H    3.3825544961   -1.8097230032    2.3316705031
 H    2.3127036855   -1.5084009484    4.3805808108
 H    0.3512659246   -0.0253733704    2.1753361674