23

 C   -0.1260641658    1.5206924014    0.1223468844
 C    0.1030306316    0.0120163864   -0.0479190983
 C    0.7617416465   -0.5992799228    1.1496643641
 C    0.0964012209   -1.0582144399    2.4164779572
 C    1.0040296706   -2.0095765308    1.6497856691
 C    0.5690551954   -3.3611965531    1.1617778184
 C    2.4474830148   -1.5401177381    1.8738464174
 C    3.5100404038   -2.1352783430    0.9715490766
 O    2.1044859036   -0.1854995241    1.4482474182
 H    0.8222505742    2.0330939741    0.3075631860
 H   -0.5785127432    1.9526490113   -0.7752049684
 H   -0.7882803126    1.7236061680    0.9700039383
 H   -0.8518030319   -0.4984466497   -0.2215528612
 H    0.7282607776   -0.1692099787   -0.9308994270
 H    0.4065585282   -0.6369826094    3.3697704730
 H   -0.9624477370   -1.2898953222    2.3394600812
 H   -0.4693205389   -3.3353455150    0.8155634451
 H    1.1862255577   -3.7139927380    0.3287224414
 H    0.6256823213   -4.1118064615    1.9597698737
 H    2.7850111467   -1.5430166212    2.9196432807
 H    3.1785188155   -2.1457264530   -0.0710816646
 H    4.4250774997   -1.5386569065    1.0335833258
 H    3.7487179012   -3.1607587042    1.2746107589