18

 C   -0.0412615414    1.3071448582    0.1182719580
 C    1.2673827073    2.1283557915    0.1585500792
 C    2.2558097415    1.4262215797    1.0697576632
 C    2.2180969639    0.1048180395    1.0001544678
 C    2.4531649072   -1.1424329834    1.8026655564
 N    1.0965893496   -1.4171755969    2.3874321674
 C    1.3973838394   -1.8623495898    1.0126883134
 C    1.3178582246   -0.6524966850    0.0495795725
 O    0.1272699820   -0.0288675714   -0.3616918864
 H   -0.4728104106    1.2909378454    1.1285722244
 H   -0.7660213508    1.7670543033   -0.5607445263
 H    1.6577688087    2.2547165843   -0.8601566393
 H    1.0387537054    3.1314466121    0.5344484762
 H    2.8413998068    1.9832343925    1.7942371452
 H    3.3505064732   -1.5229945286    2.2714457796
 H    1.1969420618   -2.2390951209    2.9861147480
 H    1.3372398302   -2.9080198301    0.7377980488
 H    1.8829254013   -0.9403674603   -0.8512035782