17

 O    0.1023874923    1.4340897139   -0.1226138615
 C    0.0187546957    0.0449356695    0.0017725026
 C    0.2941505761   -0.5984632669    1.4095941127
 C   -1.1144129240   -1.2513760016    1.3888519194
 C   -2.2957217591   -0.4271947873    1.9542242773
 N   -2.0174357609    1.0105732595    1.7017221642
 C   -2.5748483998    0.1624560680    0.6129698430
 C   -1.4042902913   -0.6239594205   -0.0143672684
 H   -0.4671649518    1.7786579483    0.5826501132
 H    0.6652584059   -0.3767276311   -0.7734537426
 H    1.1125457738   -1.3229607445    1.4083592232
 H    0.4632827060    0.1307983871    2.2042244021
 H   -1.1965825030   -2.3253339223    1.5514439204
 H   -2.9700495382   -0.7025846304    2.7564154336
 H   -2.7897490887    1.5427104230    2.0987851765
 H   -3.5105122920    0.4403205559    0.1433147946
 H   -1.6771190909   -1.2367566307   -0.8734800603