15

 C   -0.0735539903    1.5671106091   -0.0136465430
 C    0.0327915358    0.0397590242   -0.0162149018
 N    0.8118225210   -0.4701062059   -1.1538848788
 C    1.7648316498   -1.1653912677   -0.6786166086
 N    1.8104027061   -1.2559963749    0.7256973403
 C    2.7547201075   -1.9452292279    1.4834065263
 O    3.6627339260   -2.5688799564    0.9980164468
 C    0.7275836829   -0.5001029236    1.2399148423
 O    0.4708981124   -0.3458970470    2.4036348678
 H    0.9197951509    2.0243162870   -0.0007271512
 H   -0.5963886889    1.9042002894   -0.9109443687
 H   -0.6224770497    1.8971822213    0.8717414642
 H   -0.9760223434   -0.3901378638   -0.0624415442
 H    2.5248104274   -1.6801343499   -1.2533298435
 H    2.5569298024   -1.8420212738    2.5617960921