25

 C   -0.8776834820    0.9818586534   -0.1455978058
 C    0.1876724835   -0.1044637967   -0.0988162036
 C    1.5852793420    0.1842622170   -0.7065165891
 C    2.2245717176   -0.6489872271    0.4420075289
 C    2.5669028781   -2.0762047692    0.0207139652
 O    3.3283388697   -0.0669638347    1.1169947881
 C    0.8852961020   -0.4849121337    1.2573856304
 C    0.9721639505    0.6889503888    2.2403593533
 C    0.3303020519   -1.7127983682    1.9772797149
 H   -0.5139425318    1.9247642837    0.2737724147
 H   -1.1846337513    1.1766001209   -1.1794203761
 H   -1.7745052165    0.6912850023    0.4134820662
 H   -0.2215735963   -1.0182703626   -0.5463029974
 H    1.7731638294   -0.1417472236   -1.7340553254
 H    1.8599430225    1.2386084466   -0.6122346889
 H    3.4232618976   -2.0646393502   -0.6663901849
 H    2.8343046796   -2.6870269156    0.8878466353
 H    1.7408027086   -2.5625370678   -0.5060250684
 H    4.1148171640   -0.2059861717    0.5788541177
 H    1.3655907601    1.5970393767    1.7782662273
 H   -0.0175745914    0.9140554706    2.6521189069
 H    1.6379021513    0.4384466663    3.0707332990
 H    0.9698213785   -2.0057409656    2.8179665111
 H   -0.6645075356   -1.4978195535    2.3849802241
 H    0.2325943381   -2.5753684662    1.3118574763