13

 O   -0.2800299015    1.3082773164   -0.0884072316
 C   -0.0446409574   -0.0701220320   -0.0876454516
 C    0.8272447285   -0.4874850487   -1.2132117499
 N    1.5160928543   -0.8141715765   -2.0807780132
 C    0.5813199910   -0.5569544879    1.2222652657
 O    1.4163911250    0.3921056315    1.8736342290
 C    0.2067500237   -0.0053255471    2.5389620169
 C   -0.8218159642    0.9914020392    2.7408899557
 N   -1.6547278007    1.7499719311    2.9968516318
 H    0.5169602941    1.7401230319    0.2498086042
 H   -1.0159218321   -0.5611903469   -0.2209045946
 H    0.9666218431   -1.5759081005    1.2001635342
 H    0.3678747861   -0.6374345306    3.4105904334