14

 O    0.0450878183    1.3724667714   -0.0877546382
 C    0.0472042314    0.0012550386    0.0056171927
 C   -0.4220704628   -0.7056424446    1.2844554591
 C   -0.8571421246    0.0738057059    2.4042809496
 N   -1.1922095720    0.7134756420    3.3076851233
 C   -1.2850527487   -0.7258372062    0.0088599726
 O   -2.3962027832    0.1271661430    0.0849948037
 C   -1.4642271005   -1.9617821522   -0.6943328937
 C   -1.6090985908   -2.9809824545   -1.3161024140
 H   -0.8509399865    1.6754144651    0.1210957673
 H    0.8881540149   -0.4468390541   -0.5108652447
 H    0.0637369495   -1.6424083504    1.5330275914
 H   -2.7638428230    0.2076948893   -0.8035523729
 H   -1.7416704520   -3.8872626334   -1.8547002262