19

 O   -0.0889821719    1.4132579590    0.0294949525
 C   -0.0131739112    0.0269321510    0.0011830078
 C    0.3217034575   -0.7718438769   -1.3548629307
 C   -0.3911573192   -1.8816139670   -0.5545435554
 C   -0.7719234156   -3.3498875480   -0.3169037386
 O   -0.2409831961   -3.2291610378    1.0483004322
 C    0.5881939260   -2.1240311394    0.5823505303
 C    0.7596905610   -0.7041261738    1.1564356487
 C   -1.3204561765   -0.7838681212    0.0208353763
 H    0.8053190661    1.7689787045    0.0670515752
 H   -0.2381240434   -0.3337846496   -2.1835310238
 H    1.3659237197   -0.9406591605   -1.6334668855
 H   -1.8335516662   -3.6119460598   -0.3200903878
 H   -0.1970758795   -4.0848387673   -0.8957438749
 H    1.5508683341   -2.5366698105    0.2488163435
 H    1.8122750141   -0.4165299009    1.2448197333
 H    0.2670163993   -0.5237486412    2.1148075168
 H   -1.8014594369   -0.9616135863    0.9849679221
 H   -2.0424965213   -0.4324862643   -0.7200196416