15

 O    0.0352029028    0.0149910132    0.3205177436
 C    0.0097246212    1.1595545371   -0.0385822385
 O   -1.1818839788    1.7639072975   -0.2792828308
 C   -1.3187042368    2.9648338939   -1.0100398877
 C   -1.1566998182    4.2961801254   -0.3475752809
 C   -0.1176406703    3.8055950102   -1.3416020552
 C    1.1988946041    3.3159985131   -0.8209661849
 O    1.3151317745    3.1792406408    0.5889846188
 C    1.2593375985    1.9786078191   -0.1989679393
 H   -2.1002681789    2.8441688110   -1.7517774478
 H   -1.8235229958    5.0968175127   -0.6451370643
 H   -0.8495646064    4.2954434283    0.6911157378
 H   -0.0802903930    4.2590606978   -2.3258568100
 H    2.0921428307    3.6935418480   -1.3151526477
 H    2.1662922664    1.3814798219   -0.2042659431