18

 C   -0.0886930910    1.4453929080    0.0268853148
 N   -0.1011326562   -0.0065685308    0.0699519650
 C    0.5300101284   -0.6033085507    0.9779092777
 N    0.5817733724   -1.9886788198    1.1114550443
 C    1.3460195229   -2.3996067592    2.1800413524
 N    1.6509435391   -3.5521239070    2.6154633507
 C    1.8198465794   -1.1028671685    2.8244035896
 C    3.3323681776   -0.9844144999    2.9150946785
 O    1.2719205422   -0.0622401759    1.9864618196
 H    0.4620684882    1.9155088641    0.8496196602
 H    0.3529724517    1.7777216201   -0.9199739359
 H   -1.1199586571    1.8162159522    0.0421727772
 H    0.1141347576   -2.5872762828    0.4514681048
 H    1.2403940611   -4.2981426846    2.0529351381
 H    1.3680407872   -1.0027074195    3.8179224757
 H    3.7836944776   -1.0516643422    1.9212696729
 H    3.6147955065   -0.0305663125    3.3674494744
 H    3.7153467624   -1.8032733610    3.5287736001