15

 C   -0.0029032940    1.5885729690    0.0361767695
 C    0.0451551952    0.0667332160   -0.0017905967
 O    0.7730677799   -0.3762142040    1.1493448580
 C   -1.3637322878   -0.5477786865    0.0629642532
 O   -2.3830586768    0.0741505787    0.1588651824
 C    0.6935521770   -0.4132871445   -1.3165316365
 N    2.0034692122   -0.7484204040   -1.2077072528
 O    0.0424518379   -0.4747446444   -2.3423516475
 H    1.0112834109    1.9951823112    0.0616130378
 H   -0.5191089770    1.9615540422   -0.8498900313
 H   -0.5451437573    1.9190926064    0.9239017580
 H    0.6885305325   -1.3358618651    1.2158131487
 H   -1.3574650429   -1.6642605224    0.0685052235
 H    2.4844961536   -0.6074239372   -0.3351422243
 H    2.5164920967   -0.9925044652   -2.0388014319