20

 C   -0.2452932745    1.3068442285    0.1169087836
 O    0.3672475686    0.0624467543   -0.1464465057
 C    0.8620160014   -0.5602992653    0.9997369598
 C   -0.0747635084   -1.4465245738    1.8606652038
 C   -0.1494327526   -2.5009387860    0.7103714348
 C   -0.2114359274   -3.8751907683    1.3657317807
 C    0.7714314243   -3.5915926237    2.5351918273
 N    1.1810826942   -2.1798301563    2.3287177195
 C    1.3296445344   -2.0066883716    0.8165176743
 H    0.4498320160    2.0028121484    0.6107717874
 H   -0.5460141463    1.7299444835   -0.8442614631
 H   -1.1365328725    1.2007303185    0.7530568218
 H    1.5361274205    0.0906205913    1.5706020382
 H   -0.8542227167   -1.1599999943    2.5705748309
 H   -0.7343294242   -2.3041322132   -0.1872773806
 H   -1.2200332769   -4.1326237701    1.7041867089
 H    0.1309329411   -4.6728901953    0.6991056662
 H    0.3083032650   -3.6889110189    3.5213946042
 H    1.6604189599   -4.2287876596    2.5162855907
 H    2.2097055640   -2.3757612881    0.2854422872