18

 C    0.0184182687    1.4348011835   -0.0732062312
 C    0.0087825954   -0.0615702054   -0.0445616846
 N    0.5974303893   -0.9358828927   -1.1173799060
 C    0.0586032852   -1.9214255747   -0.1183282893
 C    0.1574978201   -3.4076826758   -0.2809404130
 C    0.5058472765   -1.0173328870    1.0812414677
 N   -0.8247904044   -0.9943719888    1.7718290657
 C   -1.1674106880   -1.0328408932    0.3124680579
 H    1.0399504299    1.8121434416   -0.1824188260
 H   -0.5772158617    1.8197451341   -0.9083481819
 H   -0.4040256245    1.8243127555    0.8578803684
 H   -0.0008516279   -0.9176324559   -1.9496545769
 H    1.1994513660   -3.7112210734   -0.4223321845
 H   -0.2334839805   -3.9199912680    0.6055054989
 H   -0.4179296319   -3.7516581287   -1.1475295150
 H    1.4637197790   -1.0023015945    1.6030021323
 H   -1.0134120587   -1.9029813994    2.2042564680
 H   -2.1925848224   -1.0356500872   -0.0677910206