20

 C   -0.2859614429    1.4011212716    0.0141397488
 C    0.0349044968   -0.0966177432   -0.0071452278
 C    0.8088496828   -0.5596386153    1.2201230010
 C    0.1081621335   -0.5394617909    2.6218418738
 C    0.5063781267   -2.0260830441    2.8484486931
 C   -0.5308398921   -3.0335901063    2.3356062212
 O   -0.0537448240   -2.9018670158    0.9750214630
 C    1.0582000202   -2.0775108324    1.3949812830
 H    0.6286417345    2.0045767068    0.0380657417
 H   -0.8566404517    1.6972765501   -0.8715381981
 H   -0.8796075324    1.6692856425    0.8951150802
 H   -0.8881041965   -0.6822465420   -0.0801935658
 H    0.6167006572   -0.3355040223   -0.9073410225
 H    1.7693984029   -0.0319446759    1.2783703664
 H    0.5410918092    0.1638467815    3.3361476417
 H   -0.9735322802   -0.3724506647    2.5918193893
 H    1.0780675465   -2.2754595681    3.7409726112
 H   -0.3939235702   -4.0595251380    2.7030437461
 H   -1.5873539818   -2.7543829738    2.4378024159
 H    2.0183153916   -2.4977181195    1.0800747477