18

 C    0.7878265536    1.8880344614    0.0495816166
 C    0.0558630979    0.5307499760    0.0114157245
 C    0.4348760006   -0.2816290883   -1.1399741926
 C    0.7508876617   -0.9709897502   -2.0782280379
 C    1.1952131519   -1.8282710982   -3.1780020814
 O    2.1953019217   -2.7602799597   -2.7856442854
 C    0.2244926433   -0.1878870236    1.3785928188
 N    0.5280804415   -1.5073182972    1.3234594351
 O    0.0627864371    0.4242940960    2.4158229774
 H    1.8713384525    1.7413641056    0.0700823423
 H    0.5372620890    2.4817702545   -0.8324925740
 H    0.4902431528    2.4248891813    0.9513547956
 H   -1.0226129434    0.7334458825   -0.0510423801
 H    0.3593383475   -2.4309845915   -3.5496362156
 H    1.5337548946   -1.2035589471   -4.0192345059
 H    2.9361468856   -2.2555433140   -2.4335410257
 H    0.6826774225   -1.9738886787    0.4455121419
 H    0.6313612693   -2.0104710688    2.1888411165