18

 C   -0.2371036634    1.5213661116   -0.0443276879
 N    0.0140206963    0.0900073514    0.0148122396
 C    1.1540903814   -0.4720741564   -0.7501165236
 C    2.4636031849    0.2330012684   -0.2822952631
 O    3.4776650274   -0.8068537308   -0.2808226243
 C    2.7356576515   -1.3459757090    0.8285767737
 C    2.1737937723    0.0388962617    1.2475274486
 C    0.6818703656   -0.4740974557    1.1986328536
 C    1.2818225875   -1.6133081854    0.3264689074
 H    0.6261143014    2.1467340809    0.2414035665
 H   -0.5338197381    1.7951703069   -1.0622107537
 H   -1.0680306216    1.7700280878    0.6242329096
 H    1.0194497550   -0.6498274745   -1.8169842788
 H    2.7900558569    1.1609782403   -0.7480918553
 H    3.2730688711   -2.0663721521    1.4425451530
 H    2.6106019168    0.6991174053    1.9918917504
 H    0.1160236614   -0.5943566226    2.1220014191
 H    0.8256520336   -2.5837391378    0.1574490653