18

 C   -0.1794196007    1.5213315778    0.0818756794
 C    0.0417926494    0.0076770098   -0.0423154919
 O    0.8084745179   -0.4844710178    1.0482597442
 C   -1.3062315091   -0.7189694240   -0.0813173454
 C   -1.4316681143   -2.1258327435    0.3030994082
 O   -1.8080130138   -1.0740061778    1.2131577243
 C    0.7657935725   -0.3009942001   -1.3668085749
 N    1.9018113648   -1.0251362253   -1.2371448226
 O    0.3020820052    0.0765893617   -2.4279751560
 H    0.7807448638    2.0247488207    0.2207732313
 H   -0.6545714831    1.9080106379   -0.8220401783
 H   -0.8147053181    1.7382936077    0.9462998510
 H    0.1725756376   -0.6511994980    1.7598636231
 H   -2.0390252270   -0.2908537193   -0.7608027887
 H   -2.2598471744   -2.7164787600   -0.0814736211
 H   -0.5432666398   -2.6825340148    0.5903146749
 H    2.2385755848   -1.2651292830   -0.3203820208
 H    2.4374297544   -1.2414958220   -2.0609190469