19

 C    0.0062251296    1.5422789327   -0.0254165655
 C    1.5394664692    1.7212396686   -0.0185798510
 C    2.0194617247    1.4226911849    1.4558294280
 C    0.9757515044    0.5963999382    2.2967959332
 C    0.4766800753   -0.4957317042    1.3681089974
 O   -0.8645041410   -0.6959230955    0.8471999815
 C    0.0647314333    0.0200815476    0.0593201979
 C    1.0041644262   -0.3441772556   -1.0669122711
 C    1.9157377860    0.6366466807   -1.0570093261
 H   -0.5214203120    2.0177915569    0.8012439998
 H   -0.4359046342    1.8684833047   -0.9702266735
 H    1.8823861647    2.7119975461   -0.3249602492
 H    2.9705864808    0.8805260551    1.4319113098
 H    2.2167149571    2.3698446221    1.9681451750
 H    1.4525591981    0.1898666320    3.1936913018
 H    0.1577623026    1.2348480896    2.6381339999
 H    1.0443721888   -1.4247429061    1.3787131481
 H    1.0017147673   -1.2577824323   -1.6457465989
 H    2.8109712590    0.6856326444   -1.6650450872