15

 C   -0.1492085900    1.5703409145   -0.0321340766
 C    0.0749470332    0.0488798917    0.0110991788
 C    0.8529638855   -0.4644108206   -1.1452104092
 C    2.0332543623   -1.0880686480   -1.2643615251
 N    2.2339110022   -1.3128691012   -2.6287607253
 C    1.1711608609   -0.8237431091   -3.3520006319
 O    0.9728770178   -0.8253352002   -4.5358889907
 O    0.3079278226   -0.2915848030   -2.4085011119
 H    0.8040359524    2.1067223846   -0.0064824697
 H   -0.6739274677    1.8572152190   -0.9470640234
 H   -0.7492988965    1.8939110794    0.8230547420
 H    0.6077698974   -0.2327264609    0.9256026577
 H   -0.8980114947   -0.4586975206    0.0445575427
 H    2.7424809577   -1.3915227307   -0.5139911927
 H    3.0171917667   -1.7637206749   -3.0659969247