17

 C   -0.0006551662    1.5942762628   -0.0304450575
 C    0.0072421591    0.0662500773    0.0956862388
 C    0.7752375208   -0.6401093564   -1.0882642836
 O    1.6157464849   -1.7142014457   -0.5657173717
 C    1.6426984977   -1.4952891097    0.7778932326
 C    0.8148726011   -0.5209286417    1.2031869309
 O    0.8506631609   -0.4113171229    2.5572063994
 C    1.7547170188   -1.3507211256    2.9695447579
 C    2.2807811716   -2.0575613615    1.9211415689
 H    1.0204660974    1.9865636409   -0.0695089190
 H   -0.5271626883    1.9094827158   -0.9377467090
 H   -0.5072972323    2.0506027367    0.8250077499
 H   -1.0353244868   -0.2837420530    0.1312697660
 H    0.1058099648   -1.0790571865   -1.8304622079
 H    1.4333416485    0.0834581899   -1.5841300028
 H    1.9309688041   -1.3867034063    4.0318804424
 H    3.0091385240   -2.8494930042    1.9826283448