21

 C    1.1285994710    0.1884266809   -1.0596521454
 O    0.2616065140    0.2514037721    0.0582342580
 C    0.5792280742   -0.6345759952    1.1000070393
 C    1.7704335704   -0.2269122637    1.9675830006
 C    1.4133920130    0.9459822343    2.8821133281
 C    1.4264240846    2.3265243729    2.2595958119
 O    1.1057798916    0.7555954432    4.0370552958
 C   -0.6107065192   -1.2584146911    1.7627235439
 C    0.2852137892   -2.0986604851    0.8741383919
 H    1.1746996704   -0.8258308214   -1.4781653751
 H    0.7214200535    0.8681522510   -1.8115689259
 H    2.1509111089    0.5095343784   -0.8158597953
 H    2.0508368033   -1.0652783347    2.6090882285
 H    2.6278769310    0.0205827738    1.3310770751
 H    2.4390004951    2.5745253224    1.9191641742
 H    0.7829218478    2.3305645290    1.3736365248
 H    1.0906471718    3.0698318415    2.9835466213
 H   -0.5721508969   -1.4019732657    2.8364482531
 H   -1.5818811078   -0.9845659004    1.3679410133
 H   -0.1095956019   -2.3773781933   -0.0965243252
 H    0.9334018461   -2.8387390988    1.3303597571