21

 C   -0.5334419182    1.3419218320   -0.0269414357
 C   -0.0961015803   -0.1080253804    0.0132834347
 O    0.1314171687   -0.6857201384    1.0529553136
 C    0.0817998655   -0.8231571857   -1.3297916926
 C    1.5991856933   -1.0353523567   -1.5559472799
 O    1.8954790955   -1.5917522115   -2.8203584218
 C   -0.6735768925   -2.1411498564   -1.3238855341
 C   -2.1200562405   -2.2026986470   -1.7414827603
 C   -1.0619179371   -2.8236309868   -2.6183686366
 H    0.1351975517    1.9259164126   -0.6700099829
 H   -1.5341379508    1.4130386347   -0.4699845540
 H   -0.5462842411    1.7622525421    0.9794384403
 H   -0.2915634066   -0.1893836219   -2.1431358554
 H    2.1208020496   -0.0724164356   -1.5229887433
 H    1.9906408172   -1.6494042708   -0.7317115020
 H    1.4770745253   -2.4577916070   -2.8565065890
 H   -0.3922483096   -2.7862621433   -0.4968678429
 H   -2.7848729414   -2.8586420499   -1.1913947309
 H   -2.5887184390   -1.2891914662   -2.0934250256
 H   -0.8262360724   -2.3216373296   -3.5508429396
 H   -1.0071459472   -3.9060556242   -2.6680930220