18

 C   -0.3976298728    1.4504714598   -0.2206182163
 N   -0.0108036550    0.0633908701    0.0174691939
 C    1.3348925012   -0.4403843003   -0.2839482313
 C    2.4783835726    0.4431345786   -0.6055152699
 C    3.0818730390    1.2464330608    0.2818841500
 C    2.6685557189    1.3081396266    1.6999411385
 O    1.3952683082    1.9109891117    2.0214301381
 C    1.5055632326    0.4956359710    2.1260005500
 C    0.7987619910   -0.3861492395    1.1315207064
 H    0.4168721265    2.1770812686   -0.1734983304
 H   -0.8647532791    1.4934148738   -1.2105060663
 H   -1.1477237983    1.7350868177    0.5220142572
 H    1.3238093084   -1.3856903329   -0.8244368352
 H    2.8517945730    0.4021216392   -1.6256090564
 H    3.9357656263    1.8466875884   -0.0180212385
 H    3.4432799621    1.5481330109    2.4261140177
 H    1.4863202609    0.1224694078    3.1498005891
 H    0.4433886144   -1.3150478221    1.5758751233