17

 C    0.0929521977    1.5563360337   -0.0901436772
 C    0.1116881880    0.0407546760    0.0167141893
 O    0.7019581938   -0.4739641116   -1.1725703201
 C    0.8226893806   -1.8792458146   -1.1216719995
 C    1.7895554391   -2.2496163855   -0.0158217071
 O    1.3763801448   -1.7007392152    1.2434944234
 C    0.8142472351   -0.4572100375    1.2787093063
 N    0.7709279185    0.2150712885    2.3491386682
 H    1.1125492463    1.9407496117   -0.1746635312
 H   -0.4696259499    1.8518235777   -0.9793196377
 H   -0.3666882572    1.9874589007    0.7990377377
 H   -0.9253734116   -0.3373156394    0.0822642013
 H   -0.1589231983   -2.3514439224   -0.9499120215
 H    1.2042073703   -2.2124487015   -2.0914085280
 H    1.8489333562   -3.3317495123    0.1309887979
 H    2.7904106470   -1.8686369589   -0.2557378410
 H    1.2370899993   -0.2952723693    3.1026208391