19

 O   -0.1693395230    1.3594806668   -0.1254053565
 C   -0.0329202272   -0.0503000937   -0.0374609713
 C    0.1454608811   -0.5026842522    1.4515794931
 C   -1.4275018237   -0.5760832084    1.5556819118
 C   -1.4227819258   -0.7165159721    0.0317122164
 C   -2.0487337239   -0.4619204124   -1.3448450790
 C   -0.8615057048   -1.4299584587   -1.6826360575
 C    0.4740280001   -0.6960026487   -1.3559153017
 O   -1.0974305866   -2.0766659176   -0.3958968552
 H    0.6861534951    1.7531948344    0.0742377423
 H    0.6065411168   -1.4854411661    1.5474058696
 H    0.6493569680    0.2126981876    2.1059809798
 H   -1.8748697353   -1.3954151963    2.1205570733
 H   -1.8453651024    0.3780211132    1.8799959037
 H   -3.0049669344   -0.9612805305   -1.5054961792
 H   -2.0429139259    0.5602954412   -1.7263250985
 H   -0.8967174388   -2.1059215312   -2.5372767375
 H    0.7674924396    0.0665604520   -2.0817670963
 H    1.2795779311   -1.4256515973   -1.2448443675