23

 C   -1.1598043784    0.7606263587    0.3556620252
 O    0.0799780943    0.1651465276    0.0222622791
 C    0.7233826577   -0.5407310868    1.0689708645
 C    0.1241725576   -1.9390269660    1.2837752494
 O   -1.1500810310   -1.9051277102    1.9207100049
 C    2.2344353740   -0.5707637716    0.7281493608
 C    2.5085220295   -1.3472355542   -0.5669080894
 C    2.7747936953    0.8607181884    0.6264814354
 O    2.8326614611   -1.2346472251    1.8500841224
 H   -1.0522917236    1.4528955098    1.2059047707
 H   -1.4797557410    1.3312191637   -0.5204034516
 H   -1.9204197653    0.0157875209    0.6094536213
 H    0.6228260442    0.0193152906    2.0158290541
 H   -0.0475394260   -2.4069890167    0.3101578495
 H    0.8358837545   -2.5543688214    1.8466266669
 H   -1.0141742301   -1.6171407890    2.8290707750
 H    1.9327620329   -0.9272407291   -1.3952053120
 H    3.5721732153   -1.2913269573   -0.8261147130
 H    2.2446990648   -2.4019932817   -0.4545027688
 H    2.6255013175    1.3898025607    1.5724844387
 H    3.8494105701    0.8460491574    0.4093876784
 H    2.2700863544    1.4121780294   -0.1688916665
 H    3.7821657324   -1.2690309378    1.6951859050