13

 N   -0.0067797237    1.2172981084   -0.7425883684
 C    0.0247964199    0.1666351043   -0.0443034126
 O    1.2276062964   -0.2985394501    0.4635547955
 C    1.3965552885   -1.4705618498    1.1473520283
 N    0.6010473688   -2.1171705806    1.8770007286
 C   -0.7156398534   -1.6876622877    2.1644126056
 N   -1.1855313293   -1.6655305734    3.3415089886
 N   -1.5799731983   -1.3757868878    1.0957417017
 C   -1.2415348440   -0.5913286836    0.1588692354
 H    0.9162668516    1.6507975840   -0.8076311311
 H    2.4245469977   -1.8014430330    1.0191042403
 H   -0.4558464335   -1.9380205041    4.0022871618
 H   -1.9739856408   -0.3618913665   -0.6146380636