17

 O    0.0183886873    1.4962483121   -0.0155930594
 C   -0.0004294343    0.0918914522    0.0279964929
 C    0.7774228887   -0.4552819687   -1.1637528406
 O    1.3269830779    0.2671838358   -1.9591813806
 C    0.6170282748   -0.4641026330    1.3147319090
 C   -0.1956050542   -1.3160553697    1.9399914806
 C   -1.5116067564   -1.4388495364    1.2437123320
 C   -2.3087484626   -0.1498248916    1.1932562554
 C   -1.4126887446   -0.5224842743    0.0420947181
 H    0.5267305500    1.7272319486   -0.8098446089
 H    0.8118425326   -1.5595930110   -1.2481447680
 H    1.5878939392   -0.1231893627    1.6531800653
 H    0.0227071985   -1.8171973988    2.8766299122
 H   -2.0295845633   -2.3897700130    1.2049476530
 H   -3.3758525222   -0.2270582604    1.0143349023
 H   -2.0071610326    0.6642842672    1.8422191695
 H   -1.8746050688   -0.7798653061   -0.9037783727