18

 C   -0.0927630601    1.3764661071   -0.0426032355
 O   -0.0072255455   -0.0361098026    0.0211874203
 C    0.6408871612   -0.5958523814    1.0782764302
 C    1.2352904661    0.1208310410    2.1181207190
 N    1.8661595145   -0.4600169861    3.1451521944
 C    1.9203910352   -1.7892857124    3.1603465246
 C    1.3556036633   -2.5870381359    2.1656256023
 C    0.6971108749   -2.0009326563    1.0925067002
 C    0.0656639713   -2.7988307320   -0.0141136700
 H    0.9008088113    1.8392036655   -0.0938740914
 H   -0.6439056336    1.6051043430   -0.9561326020
 H   -0.6337303299    1.7875106277    0.8189894253
 H    1.2063927124    1.2056023159    2.1315810178
 H    2.4366697477   -2.2442762229    4.0019615153
 H    1.4298047594   -3.6684132862    2.2284866455
 H   -1.0065667465   -2.5882424374   -0.0874840026
 H    0.4988459803   -2.5351322420   -0.9847760449
 H    0.2010027579   -3.8703549952    0.1496516414