15

 O    0.0799640791    1.4777582389    0.1808000692
 C    0.0510271134    0.0713473740   -0.0342614645
 C    0.6256075749   -0.7551523073    1.1816819948
 O   -0.4812358360   -1.4486883191    1.8556936835
 C   -1.4842877231   -1.2982893687    0.9865407274
 C   -1.3171552242   -0.5315251511   -0.1144960628
 C   -2.5853905644   -0.5899759468   -0.7913045553
 C   -3.3759292959   -1.3923841510   -0.0287093752
 O   -2.6899646239   -1.8471365286    1.1004866226
 H   -0.6638227631    1.6940269799    0.7547272622
 H    0.6850262151   -0.0825374073   -0.9124865530
 H    1.3258520351   -1.5258186443    0.8489483737
 H    1.1056052254   -0.1005784484    1.9105799576
 H   -2.8802603350   -0.1144256340   -1.7138004174
 H   -4.3888946874   -1.7451261462   -0.1101945228