17

 C    0.1384463116    1.5432016450   -0.0267522537
 C    0.1999973099    0.0141393490   -0.0213091302
 C    0.6306321497   -0.5740093360    1.3154439081
 C    0.7843089146   -2.1203947185    1.3361483730
 N    2.2073989750   -2.3733893053    1.6106855714
 C    2.7305483859   -1.2254426136    1.7535804273
 O    1.9796683079   -0.1071583866    1.6445128844
 C    4.1226393678   -1.0048522553    2.0376168131
 N    5.2397976041   -0.8217093826    2.2659845010
 H    1.1160583773    1.9720302507    0.2084661868
 H   -0.1713236480    1.9177231710   -1.0062826394
 H   -0.5781250505    1.9126578757    0.7149513666
 H   -0.7850151248   -0.4073808897   -0.2603808381
 H    0.8888663658   -0.3443815793   -0.7965583835
 H   -0.0173714930   -0.2114767769    2.1196763487
 H    0.1757823139   -2.5985891870    2.1098865313
 H    0.5118166827   -2.5759303004    0.3774952630