21

 C   -0.2011750059    1.4542643427    0.1136357404
 C   -0.0488532846   -0.0542782793    0.0985070255
 O   -1.3589951966   -0.6203780437   -0.0842556567
 C   -1.4085768619   -1.9525700536   -0.1344801226
 N   -0.4210188436   -2.7575679405   -0.0332169263
 C   -1.0047978894   -4.0991206305   -0.1661244183
 C   -2.5493072660   -3.9199218102   -0.0162796676
 C   -3.0572002962   -4.2413174373    1.3909378130
 N   -2.6718110556   -2.4903260424   -0.3518931650
 H    0.7769541213    1.9239945684    0.2530543417
 H   -0.6254030902    1.8132704848   -0.8283635754
 H   -0.8561037402    1.7735534307    0.9295475786
 H    0.5996493158   -0.3953531387   -0.7146799345
 H    0.3742212944   -0.4354711963    1.0337824725
 H   -0.7521287525   -4.5196244113   -1.1484281485
 H   -0.6005127124   -4.7799612270    0.5911371786
 H   -3.0943028496   -4.5223368848   -0.7498793048
 H   -2.4880133052   -3.6843284190    2.1429072717
 H   -4.1174882011   -3.9874046852    1.5014574541
 H   -2.9471502665   -5.3101275743    1.6021998628
 H   -3.4489287841   -1.9759887728    0.0409990609