18

 C   -0.1222412002    1.4013881466    0.0637967084
 N   -0.1145269091   -0.0509129973   -0.0314581667
 C    0.6118701928   -0.6087431455   -1.0759003672
 C    1.2899164297   -0.0213932286   -2.1343157971
 C    1.7629538203   -1.1263309359   -2.8727097129
 O    2.4913243129   -1.0469540114   -4.0079544656
 N    1.4318825364   -2.2918994672   -2.3467825807
 N    0.6974744912   -1.9545668652   -1.2350117294
 C    0.1564842701   -2.9833112157   -0.3848160571
 H    0.8809748494    1.8399770278    0.1758955035
 H   -0.5770811738    1.8207847755   -0.8383000749
 H   -0.7325201129    1.6970068204    0.9202096266
 H    0.0633257076   -0.4970029468    0.8585125118
 H    1.4313970828    1.0248683344   -2.3394229337
 H    2.6710993253   -1.9543774912   -4.2844589921
 H    0.8280231271   -3.2372491888    0.4466621449
 H   -0.8049703530   -2.6550566644    0.0209004714
 H    0.0033889933   -3.8772741968   -0.9905533193