20

 C   -0.5234718326    1.4145665902    0.0695106011
 C    0.0601184983    0.0223086176    0.0495807998
 C    0.0536524703   -0.6673174079   -1.1063832865
 C    0.5036458514   -2.0264220481   -1.4834323324
 O    0.3796431405   -2.3744414127   -2.6452712725
 C    1.1444711371   -3.0236195002   -0.5051772976
 N    0.9854924962   -2.8732778103    0.9263475261
 C    1.4939856691   -1.6330753390    1.4873686953
 C    0.5584549741   -0.4219349697    1.4027640960
 H    0.2472577903    2.1532159055    0.3241470389
 H   -0.9622371990    1.6910009583   -0.8910222389
 H   -1.2978676380    1.4997414806    0.8424741579
 H   -0.3676036082   -0.1714038903   -1.9784861736
 H    0.7877357091   -4.0121925716   -0.8105757062
 H    2.2196660876   -3.0142254960   -0.7359584529
 H    0.0243202795   -3.0325170935    1.2071111180
 H    1.7360865604   -1.7919137611    2.5464487998
 H    2.4416148166   -1.4054890995    0.9843267524
 H    1.0502073993    0.4346036000    1.8859347150
 H   -0.3293985921   -0.6137604323    2.0276611004