18

 C   -0.3018782783    1.5112529919    0.0592440850
 C    0.1133275223    0.0313073842   -0.0368950132
 C    0.8667268026   -0.4651608556    1.1570480017
 C    2.2067422234   -0.7527220493    1.3207192463
 C    2.4099877517   -1.1638196836    2.6712757745
 N    3.6577850616   -1.4743521685    3.2522705290
 C    1.1841271554   -1.1166458847    3.2978352138
 N    0.2585204089   -0.6833893500    2.3644558965
 H    0.5770312818    2.1520940994    0.1755884889
 H   -0.8426938519    1.8263501130   -0.8391389180
 H   -0.9538762966    1.6870212267    0.9213471518
 H   -0.7824445500   -0.5838965318   -0.2015759924
 H    0.7444588595   -0.1116276863   -0.9198577975
 H    2.9651151207   -0.6701052470    0.5557439648
 H    4.2578103337   -1.9748051061    2.6079485535
 H    3.5599262789   -2.0314824061    4.0920679552
 H    0.8956151914   -1.3477031298    4.3103187250
 H   -0.7231657852   -0.5690082065    2.5425482153