14

 N   -0.1770110384    1.3492020927   -0.1313405520
 C   -0.0963237973    0.0962412599   -0.1606018531
 O   -1.1769933469   -0.6437714325    0.2332623023
 C   -1.0375954120   -2.0066711725    0.1412547745
 C   -1.2019454978   -2.8001319911   -1.1683232767
 C   -2.0823242315   -3.0743752529    0.0000355757
 O   -1.3673521543   -3.9384084410    0.9296357763
 C   -0.4422547833   -2.9314475326    1.1880474402
 O    0.4247205784   -2.9190656893    1.9945783225
 H    0.6986357354    1.7665332987   -0.4397925636
 H    0.7573662158   -0.5184208149   -0.4669334601
 H   -1.6436814223   -2.2018225561   -1.9603836544
 H   -0.4675683189   -3.5365628992   -1.4777440133
 H   -3.1590888969   -3.0390667792    0.0710043719