21

 C   -0.1196270240    1.3289264518    0.1816208633
 C   -0.1177706385   -0.1837037626   -0.0436200905
 O   -1.4542274541   -0.6716221776   -0.2321491811
 C    0.7338546167   -0.6126185694   -1.2250175791
 O    0.2882644593   -0.0430234674   -2.4379330630
 C    2.1976439197   -0.9359827213   -1.0800619189
 C    1.1895665972   -2.0375669617   -1.3627903981
 C    0.8310249841   -3.0850981830   -0.3278269887
 O   -0.5245337049   -3.4747633697   -0.3974568855
 H    0.8900688633    1.6934485928    0.3983390962
 H   -0.4974082112    1.8554646714   -0.7014355967
 H   -0.7694522953    1.5807143017    1.0229710793
 H    0.2440642412   -0.6763531991    0.8635291669
 H   -1.6927250784   -0.4400889099   -1.1400039461
 H    0.6276181302    0.8573614350   -2.4917311341
 H    2.8588717508   -0.6364057315   -1.8858470666
 H    2.6394322633   -0.8889465721   -0.0888789669
 H    1.1661265351   -2.3904948937   -2.3894967361
 H    1.4249271154   -3.9893514684   -0.5022389138
 H    1.1024281651   -2.7256209751    0.6795121087
 H   -1.0545539851   -2.6671495402   -0.3081328390