19

 C    0.0431432856    1.6572785966    0.0454787839
 C    0.0883382908    0.1433906330    0.0493773313
 C    1.2724280202   -0.7129074982   -0.3451119188
 C    2.6783991061   -0.1251106960   -0.3610065314
 C    2.9242385002    0.4761557033    1.0495446720
 C    1.8525027500   -0.1437253222    1.9869573406
 C    0.7689909165   -0.7242523875    1.0861235993
 H    0.9743255090    2.1197557676    0.3764447691
 H   -0.1686834570    2.0337225538   -0.9618989152
 H   -0.7542438691    2.0205472141    0.7039626293
 H   -0.8546899049   -0.2855633908   -0.2857265540
 H    1.0807409040   -1.5498597002   -1.0091137882
 H    3.3906636243   -0.9334635583   -0.5617513470
 H    2.8245451594    0.6210003975   -1.1505131865
 H    3.9373744566    0.2656113160    1.4042454825
 H    2.8343524075    1.5651570188    1.0265643087
 H    2.2862720345   -0.9583541279    2.5779545366
 H    1.4685297199    0.5904391380    2.7045424719
 H    0.2079967464   -1.5695267677    1.4720357759