17

 C    0.1991177826   -1.1663990080   -0.1062811223
 C    0.1237144062    0.0332342305   -0.0540685484
 C    0.0273028436    1.4581920130   -0.0119574833
 C    0.2914168944    2.2192144104    1.2888940567
 C    1.2927171770    2.3188916192    0.1854528804
 O    2.5256515724    1.6724646114    0.3615144701
 C    3.5153157249    2.3145241373   -0.4458647436
 C    2.8247375656    3.5214571072   -1.0195356327
 C    1.5480892502    3.5146551984   -0.6470160517
 H    0.2720622721   -2.2244364110   -0.1478559440
 H   -0.7230341575    1.8904403063   -0.6688356702
 H   -0.3380012931    3.0732534416    1.5151874333
 H    0.5856319499    1.6185211233    2.1416232265
 H    4.3787345738    2.5699665269    0.1850697661
 H    3.8722956221    1.6264897420   -1.2285822770
 H    3.3200797515    4.2501616431   -1.6473213106
 H    0.7805759345    4.2326364486   -0.9035550893