21

 C    0.0320752852    1.3606733906   -0.1320492783
 O   -0.0053070468   -0.0151433985    0.1650599386
 C   -1.2874168970   -0.6028418026    0.0836823033
 C   -1.7919729203   -0.7564533400   -1.3616082643
 C   -2.9792398558   -1.6839863073   -1.4422965148
 C   -3.3652276118   -2.4784787143   -0.4419543114
 C   -2.6408808667   -2.5539931946    0.8809121785
 C   -1.2225966799   -1.9759597242    0.7688889140
 O   -0.3527089650   -2.8711394709    0.0889191491
 H    1.0464777654    1.7074396615    0.0807143822
 H   -0.1923467616    1.5749123210   -1.1873545576
 H   -0.6745799755    1.9318672226    0.4918075930
 H   -2.0102593358    0.0143893013    0.6467799227
 H   -2.0597422259    0.2191061753   -1.7833591474
 H   -0.9631119212   -1.1322960257   -1.9780388754
 H   -3.5359477931   -1.6860847267   -2.3764924145
 H   -4.2388453977   -3.1136127778   -0.5668836498
 H   -3.2115944048   -2.0232198605    1.6558287104
 H   -2.5666884105   -3.5945715879    1.2181350889
 H   -0.7794590110   -1.8431617673    1.7603220272
 H   -0.8157221600   -3.1847320041   -0.6960579443