17

 O   -0.1233596060    1.2747655390    0.0105569404
 C   -0.0023373221   -0.0923890413    0.0766524995
 C    0.2125774353   -0.9967507910   -1.1783307266
 C    0.9560560252   -2.1790725319   -0.5272689541
 C    1.9527980536   -1.5830488569    0.5023081717
 C    0.6917904163   -0.9605724520    1.1520918864
 C   -0.1878202625   -2.1350590754    0.5609185778
 C   -1.0239762635   -1.1201387136   -0.2944177302
 O   -2.3626858145   -0.9723340013   -0.5340667295
 H    0.7056066538    1.6432360681   -0.3156894663
 H    0.3154964382   -0.5477639987   -2.1586815518
 H    1.1954781688   -3.0555669523   -1.1297846940
 H    2.3901222095   -2.3616776343    1.1348366261
 H    2.7440818695   -0.9163664590    0.1420910905
 H    0.6489176224   -0.6359791974    2.1910534855
 H   -0.5449747075   -2.9822371063    1.1412538467
 H   -2.6318711164   -1.6300108958   -1.1855039322