23

 C    0.0066861128    1.6445262564   -0.1378220254
 C    0.0133745943    0.1125724448    0.0182419740
 C   -1.3267413872   -0.4656929063    0.0381188627
 C   -2.4451062771   -0.9179877555    0.0468102942
 C   -3.7782558620   -1.4492865026    0.0723803399
 C   -4.3233420937   -2.2374439727   -1.1125495188
 C   -4.0359282803   -2.9492391863    0.1786914786
 C   -2.8983561420   -3.9411243153    0.2854919597
 C   -3.2926343608   -5.3443885782   -0.1890518510
 H    1.0297699744    2.0326782932   -0.1483040135
 H   -0.4839283622    1.9374845765   -1.0700140908
 H   -0.5323507873    2.1162320643    0.6883465606
 H    0.5904012239   -0.3338286233   -0.8022870801
 H    0.5464970262   -0.1569745682    0.9395951198
 H   -4.5019129003   -0.8205404115    0.5842809792
 H   -5.3521409226   -2.0589140797   -1.4052907593
 H   -3.6398707582   -2.4011842561   -1.9388234605
 H   -4.9083051515   -3.2045480638    0.7764743634
 H   -2.0456483154   -3.5741906944   -0.2961309993
 H   -2.5553736914   -3.9866173703    1.3271930495
 H   -4.1232004800   -5.7455096582    0.4025555062
 H   -3.6104934789   -5.3316415240   -1.2369809782
 H   -2.4541247709   -6.0421507690   -0.0995620609