20

 C   -0.0351804603    1.5239110655    0.0414955167
 C    0.0323591041   -0.0043440413   -0.0598409234
 C    0.7409526012   -0.4934185684   -1.2965868749
 C    2.2203936935   -0.2118497802   -1.7234701617
 C    1.6265011925   -1.1207139910   -2.8420865129
 C    0.9902795725   -1.9802172627   -1.7079197645
 C    0.3475742461   -0.2310540152   -2.7887645534
 C    2.3024788067   -1.5988332172   -4.0219341695
 N    2.8456971190   -1.9810555673   -4.9688428150
 H    0.9667648240    1.9647630143    0.0653835770
 H   -0.5689932566    1.9551272854   -0.8116907584
 H   -0.5570205616    1.8324765988    0.9518081833
 H    0.5419045709   -0.4124606450    0.8227850001
 H   -0.9827810964   -0.4221510207   -0.0470805196
 H    2.4686224778    0.8101351359   -2.0190526327
 H    3.0052933117   -0.6587321848   -1.1082025535
 H    1.6867431362   -2.5536601086   -1.0911731846
 H    0.1133606346   -2.5699910694   -1.9861907284
 H   -0.5753863894   -0.6954418914   -3.1448698684
 H    0.4589673336    0.7894998134   -3.1623007762