16

 N   -0.3019089983   -1.1385818627    0.3140844443
 C   -0.1588553308   -0.0074187800    0.1292131578
 C    0.0384933470    1.4246423820   -0.0970573237
 C    1.4876351049    1.8219105617   -0.0275798345
 O    1.8499075431    3.0691663705   -0.6273677495
 C    2.5593214323    1.8731726700   -1.0142862610
 C    3.6237185728    1.5304813392    0.0735372912
 C    3.5899465494    2.5156810082    1.2109505963
 C    2.5073334923    1.4750911903    1.1100111154
 H   -0.3611380433    1.6989326909   -1.0787530779
 H   -0.5385259290    1.9807105330    0.6531838042
 H    2.5869396401    1.6313770800   -2.0698179134
 H    4.4237824580    0.8204845826   -0.0832046610
 H    4.3211078143    2.3287801176    1.9907746024
 H    3.3672813650    3.5585895576    1.0256184637
 H    2.3269998123    0.7136159690    1.8563947657