16

 N   -0.4721271541    1.0511865384    0.4383325976
 C    0.0096951627   -0.2500514786   -0.0431800150
 C    0.4101032398   -1.1349211200    1.1783368108
 C   -1.0623917195   -1.6465854555    1.2280619328
 O   -1.8899341156   -0.9570000657    2.1270773252
 C   -1.2079231415   -1.2018493836   -0.2597405734
 C    0.9784489367   -0.1382650279   -1.1383848885
 N    1.7407586764   -0.0251882920   -2.0011625822
 H    0.3088354267    1.6157539012    0.7634366571
 H   -0.9115581171    1.5652504231   -0.3212540704
 H    1.1153590320   -1.9183895768    0.8932917557
 H    0.7793158821   -0.6019044391    2.0571886168
 H   -1.1968733395   -2.7107887095    1.4288939727
 H   -1.7638398980   -0.0146544422    1.9413757138
 H   -2.1474172426   -0.7229674569   -0.5440449091
 H   -0.9709493483   -2.0046772748   -0.9610022439