17

 C   -0.2485382730    1.5425443827   -0.1894677961
 C    0.1161450323    0.0798680089   -0.0404414077
 C   -0.8567672362   -0.7608439118    0.7607080487
 C    0.9195769783   -0.5887282472   -1.1329274696
 N    1.5396126615   -0.1879585944    0.1156635579
 C    2.1543491371   -0.9701393578    1.0554063191
 O    1.9524203851   -0.9389506485    2.2471398804
 C    3.2028191495   -1.8384273198    0.4765152056
 N    4.0082483748   -2.5480433478    0.0482579790
 H    0.5208224818    2.0843535325   -0.7443287356
 H   -1.2008217570    1.6434660837   -0.7197674201
 H   -0.3564008791    2.0114653829    0.7936407881
 H   -1.8598299955   -0.6747730151    0.3317372356
 H   -0.5732664757   -1.8162860272    0.7638715405
 H   -0.8950293153   -0.4211881257    1.7993976262
 H    0.7724442776   -1.6528438457   -1.3008741325
 H    1.2191223841   -0.0200685195   -2.0089480994