16

 C   -0.0683055160    1.6018029276    0.0623541134
 C    0.0624311846    0.0835004160   -0.0273335647
 C    0.9109329215   -0.4047194350   -1.2259672702
 O    1.6524135610   -1.4932811994   -0.6837093939
 C    1.6794689454   -1.3786948976    0.6774226457
 N    2.3485150249   -2.0707230066    1.4830427156
 O    0.8641443974   -0.3744348748    1.0847752205
 C   -1.2485190176   -0.5721981130    0.0094703988
 C   -2.3279370125   -1.0984591007    0.0236928904
 H    0.9244960638    2.0581948794    0.0843565566
 H   -0.6227536482    1.9820573362   -0.7999963182
 H   -0.6078540488    1.8790505743    0.9699597072
 H    0.3086340821   -0.7625620602   -2.0610111408
 H    1.5966611563    0.3801822764   -1.5664859167
 H    2.9301686772   -2.7333249429    0.9757466767
 H   -3.2797772509   -1.5701950497    0.0467729498