16

 O    0.0346205904   -0.0043699882    0.0354978830
 C   -0.0092078484    1.1836208967    0.0354698503
 C   -1.0813627932    2.2964764308    0.0277981083
 C   -0.8075696619    2.9975065951    1.3714774350
 C   -0.0938930274    4.2918276812    1.0672965185
 C   -0.1437880564    4.4577475323   -0.4402397243
 N   -0.1039191207    3.0439971620   -0.8633757559
 C    0.9758580261    2.3723683529   -0.0318830420
 C    0.7294331790    3.0541436114    1.3269090146
 H   -2.1033459993    2.1597106915   -0.3189690590
 H   -1.3744446919    2.8109618240    2.2717589461
 H   -0.1039455475    5.1162860731    1.7679519758
 H   -1.0638172495    4.9282471249   -0.7995639239
 H    0.7167476567    4.9939256882   -0.8512459525
 H    1.9833452710    2.3104722823   -0.4375201595
 H    1.3596290030    2.9116915218    2.1924806251