15

 C    0.0292529757    1.4934561564    0.1292079395
 C   -0.0064791052   -0.0007535100   -0.1705103164
 N   -1.3646618403   -0.5181797041   -0.0236742998
 C   -1.6369304512   -1.8440245050    0.0217162937
 C   -2.8393579663   -2.5288636667   -0.0606228370
 N   -2.5399606761   -3.8443692942    0.0990733356
 N   -1.3300278786   -4.0684407436    0.2628989453
 O   -0.6520127675   -2.6948524285    0.2121497783
 H    1.0476988620    1.8750376680    0.0200810040
 H   -0.6087985368    2.0539492203   -0.5639156162
 H   -0.3107777808    1.6972117131    1.1485287557
 H    0.3827575424   -0.1969186922   -1.1802639878
 H    0.6322518055   -0.5483153001    0.5271393306
 H   -2.1097359272    0.0671708604   -0.3679887886
 H   -3.8419914858   -2.1696898637   -0.2105252770