16

 O   -0.0456455482    0.0522329405    0.3688816493
 C   -0.0606077746    1.2213477192    0.0571506144
 C   -1.2571426315    2.0647201957   -0.2011627138
 C   -0.8965401290    3.3143360315   -0.5240798598
 C    0.5923889328    3.5125063255   -0.5417392112
 C    1.1998035667    4.1752215797    0.7435743675
 C    1.6723658195    2.7772884217    1.2279241047
 C    1.1550756726    2.1342462552   -0.1051686510
 H   -2.2651671042    1.6794703017   -0.1119764687
 H   -1.5853741584    4.1287737133   -0.7284074910
 H    0.9435552267    3.9389092163   -1.4852078724
 H    2.0200184025    4.8610236206    0.5209244223
 H    0.4830042136    4.6909884562    1.3865904410
 H    2.7499635168    2.6859117672    1.3730967024
 H    1.1749239601    2.4003721327    2.1241520063
 H    1.9267648648    1.6702608630   -0.7196216698