20

 C   -1.8348966748    0.6930661941   -0.5887261730
 N   -0.7961003461   -0.3293261447   -0.4807077955
 C    0.3711498301   -0.3259987662   -1.3281964843
 C    0.6612113008    0.6944115303   -2.4073232029
 C   -0.0515869455    0.3573839031   -3.7160124002
 O    0.3887331301    1.2901414435   -4.6888498239
 C    0.4948425725   -0.0239974992    0.1593870391
 C    0.8900444159    1.3278004301    0.6318732243
 O    0.5234768948    2.3913025320    0.1822234125
 H   -1.4737959589    1.7075947744   -0.7777542708
 H   -2.5184081481    0.3905187205   -1.3881339442
 H   -2.3992515144    0.7008378819    0.3486445004
 H    0.6922328725   -1.3354338839   -1.5926602391
 H    0.3946935560    1.7032499898   -2.0897990229
 H    1.7402475761    0.6979777275   -2.6035610926
 H    0.1877172192   -0.6766245584   -4.0157598060
 H   -1.1427087433    0.4094974616   -3.5755570192
 H   -0.0718512965    1.1071346593   -5.5128269956
 H    0.8614103536   -0.8201975516    0.8055051844
 H    1.5919342860    1.2954664561    1.4955499695