21

 C    0.0426817302    1.4371999962    0.0223175988
 C   -0.0365180069   -0.0620001402    0.0104704484
 O    0.9484415997   -0.6624850236   -0.8198961411
 C    0.3890289624   -1.8749246476   -1.3278246596
 C   -0.7330551900   -2.2338864301   -0.3494362498
 C   -1.6571927998   -3.3508651146   -0.7847788753
 C   -0.1260901539   -2.2993416523    1.0967569310
 C   -0.4451269073   -0.8165839481    1.2645722975
 C   -1.3140313667   -0.8269132027   -0.0029201074
 H    1.0259012156    1.7663230188    0.3738120621
 H   -0.1107926372    1.8419076702   -0.9829350102
 H   -0.7162803085    1.8589899046    0.6874448040
 H   -0.0049097607   -1.7202076120   -2.3457880293
 H    1.1809040785   -2.6314505467   -1.3698669128
 H   -1.1116911127   -4.2965016245   -0.8840461468
 H   -2.4602196180   -3.5056503227   -0.0573278010
 H   -2.1202172719   -3.1296379107   -1.7534831460
 H   -0.7386582492   -2.9222288422    1.7547265232
 H    0.9224901485   -2.6061667446    1.1808387750
 H   -0.6246892514   -0.3001466944    2.2016363823
 H   -2.3070945408   -0.4450563328   -0.2063081629