18

 C   -0.2673740916    1.4672451659    0.0413815877
 C   -0.0232496074   -0.0134931639    0.1272318639
 N    0.1262165348   -0.6986979143    1.1956102306
 O    0.0627603115    0.0830806554    2.3583814638
 C    0.0142128904   -0.7696794487   -1.1707956565
 C    0.1197761500   -2.3231283084   -1.1993140690
 C   -1.1118865252   -2.4122684599   -2.1507971192
 C   -1.3396093286   -0.9125290783   -1.9249719704
 O   -2.2322002671   -0.1524555969   -2.1613988770
 H    0.6044366223    1.9689115363   -0.3962726608
 H   -1.1167982830    1.6560756003   -0.6229309881
 H   -0.4609189284    1.8962392555    1.0230436610
 H    0.1773929168   -0.5777916202    3.0489228512
 H    0.7354253155   -0.2916143432   -1.8484614469
 H    1.0555613070   -2.7180831060   -1.5948681486
 H   -0.0648013855   -2.7539541820   -0.2163001327
 H   -0.8635569751   -2.6312256289   -3.1945975930
 H   -1.9406476366   -3.0597566727   -1.8529274461