17

 O   -0.1464813055   -0.0081326247   -0.0063087417
 C   -0.0797903841    1.1895733746    0.0106425067
 C   -1.2688833994    2.1793707823    0.0798151896
 C   -0.6260380876    3.4219373318    0.6547923866
 C    0.7041482846    3.3559276649    0.5918331839
 C    1.8453220346    4.0365431901    1.2993387723
 C    2.7733592924    2.8468573233    1.5272888806
 C    2.4125227234    1.7639682785    0.8327324407
 C    1.1927603773    2.0563049796   -0.0102078434
 H   -1.6748752663    2.3135247491   -0.9335370337
 H   -2.0822521397    1.7720529433    0.6898287190
 H   -1.1973283485    4.2010435352    1.1467509078
 H    2.3431027305    4.8004349185    0.6826670903
 H    1.5382036751    4.5341095265    2.2258576051
 H    3.6420737884    2.9129548036    2.1727061961
 H    2.9328014757    0.8144684118    0.8166601136
 H    1.4744344391    2.1441734915   -1.0749379434