18

 C    0.0229577726    1.3441706389   -0.0599645036
 O   -0.0699383592   -0.0707888195   -0.1184722316
 C   -1.3550720487   -0.5516203610   -0.0430497225
 C   -2.3935850143   -0.5025633957    1.1078457591
 N   -3.0826369418   -1.3794452199    0.0475498768
 C   -2.5802765473   -0.3387097508   -0.9733242967
 C   -1.7143425379   -2.0615013487   -0.1021439806
 C   -1.4163808165   -2.8830840262   -1.3268096267
 O   -2.1118456338   -2.9843977512   -2.3057184217
 H    1.0816204061    1.5962316017   -0.1409319038
 H   -0.5228266564    1.8175842445   -0.8872239165
 H   -0.3665435243    1.7351360480    0.8899901252
 H   -2.1653025442   -1.0310543418    2.0366539538
 H   -2.9254003606    0.4338995398    1.2893544131
 H   -3.1121106919    0.6123217139   -0.8982142142
 H   -2.5491199997   -0.7124684831   -1.9939029689
 H   -1.4258028472   -2.6352402097    0.7868522960
 H   -0.4452324549   -3.4247498190   -1.2538812272