17

 O    0.2262884915    1.4067908424   -0.1433496361
 C    0.0334205434    0.0222902988   -0.0281542407
 C    0.2170998752   -0.6038291648    1.3912922714
 O   -0.1170137228    0.3830242492    2.3740744270
 C   -1.5360572334    0.6150708626    2.3022453564
 C   -2.0601191002   -0.4121554987    1.3153279927
 C   -1.0166398242   -1.4852694808    1.1381913746
 C   -1.3760664553   -0.5793420776   -0.0333481342
 O   -2.0823692582   -0.9525393475   -1.1589368753
 H    0.2969747369    1.7326742715    0.7649255022
 H    0.6428701478   -0.4939573514   -0.7789630548
 H    1.1782638500   -1.0415859121    1.6528181927
 H   -1.9683343372    0.4714922821    3.3001909296
 H   -1.7238717721    1.6492041986    1.9880283609
 H   -3.1030473420   -0.7054190659    1.3420592873
 H   -1.1450012911   -2.5460939965    1.2969357274
 H   -2.5171720384   -0.1697949299   -1.5155151711