21

 C   -0.2313253915    1.3713283390   -0.5829183114
 O   -0.1629753908   -0.0345052881   -0.5786692716
 C   -1.3795974585   -0.6424876266   -0.2086686253
 C   -1.2078068849   -2.1468503332   -0.2165123746
 C   -0.0146787683   -2.6628081440    0.5679063382
 C    0.1798319827   -4.1810872521    0.5563017294
 O    1.3820412536   -4.5647133003    1.2065798069
 C   -2.4109827698   -2.9562796178   -0.4645674205
 O   -1.4410299776   -2.7603270100   -1.4958412156
 H    0.7531326527    1.7454217048   -0.8733905958
 H   -0.9790220358    1.7411128561   -1.3019286072
 H   -0.4854851088    1.7708310952    0.4119993089
 H   -1.6839318926   -0.3100160205    0.8002606466
 H   -2.1835736388   -0.3682041415   -0.9099465934
 H    0.8786431824   -2.1844339745    0.1482247788
 H   -0.0894098371   -2.3133218433    1.6049457989
 H   -0.6187117691   -4.6784736277    1.1163139694
 H    0.1388645768   -4.5502530597   -0.4776462304
 H    2.1164573407   -4.2147993766    0.6919845990
 H   -2.4824147373   -3.9680673314   -0.0715339937
 H   -3.3691245781   -2.4620799279   -0.6258124466