20

 C   -0.0899657044    1.4660684722    0.0481308418
 C    0.0554931493   -0.0218380958    0.0549172530
 C    0.2841582703   -1.0007004571   -1.0380331315
 C    0.6336476705   -2.0608155442    0.0323704384
 C   -0.8698264990   -2.0993410380    0.4357086760
 C   -0.5459752483   -1.5926570797    1.8479010358
 C    0.6751531345   -0.9328738927    1.1516715250
 C    1.9207730365   -0.4867889858    1.8710902672
 N   -1.0853288811   -0.8690170790   -0.4376418263
 H    0.8853802681    1.9626423498    0.0953210124
 H   -0.5983385648    1.7922065980   -0.8637406092
 H   -0.6865741799    1.8061600487    0.9026884347
 H    0.4790190558   -0.8878205844   -2.0985197962
 H    1.3237716803   -2.8997917908   -0.0159452295
 H   -1.5712696320   -2.9048907184    0.2228063202
 H   -1.2767031127   -0.9534542854    2.3533772506
 H   -0.2400788347   -2.4116878888    2.5078411410
 H    2.3278033130   -1.2881974495    2.4965916340
 H    2.7005224041   -0.1859071769    1.1617088648
 H    1.7172109045    0.3716990979    2.5222689277