15

 N    0.1002475508    1.1723267006   -0.5250805247
 C    0.0046153963    0.0235216149    0.2140011610
 O    0.9240384555   -0.3904965788    0.8977997038
 C   -1.2820765670   -0.7087875284    0.0925775610
 C   -1.7064254155   -1.7011816909    1.1683660440
 C   -1.4698350957   -2.1971188735   -0.2065318077
 O   -2.5907049396   -1.9565388189   -1.0557577207
 C   -2.4368599030   -0.5228355323   -0.8916447140
 H    0.9207657050    1.7390671861   -0.3818045936
 H   -0.7081108895    1.6108382528   -0.9311409801
 H   -0.9109157646   -1.8970762172    1.8790296239
 H   -2.7186555110   -1.6669079354    1.5608094951
 H   -0.7498074216   -2.9505957641   -0.5023277965
 H   -3.3508571600   -0.0450324657   -0.5190464917
 H   -2.1384387999   -0.0662118092   -1.8432354298