14

 C    0.0177868516   -1.2109978529    0.0714284800
 C   -0.0117222169   -0.0101667909    0.0950173031
 C   -0.0117582117    1.4458103931    0.1156961229
 C    1.3962020862    2.0280655372   -0.1690164331
 C    1.4065211734    3.5157404978   -0.1094729231
 N    1.6405019837    4.3141777878   -1.1118454489
 O    1.5376802268    5.5600117600   -0.5933642434
 N    1.2293493180    5.4592377626    0.7605725997
 N    1.1510523042    4.2391435262    1.0469115883
 H    0.0276448335   -2.2728042439    0.0549306664
 H   -0.7188915429    1.8300021096   -0.6293305997
 H   -0.3589672026    1.8075889816    1.0905157510
 H    2.0997419403    1.6371218433    0.5724599075
 H    1.7419155866    1.7129661884   -1.1554232508