21

 C   -0.0970971588    1.5586956515   -0.0123558735
 C   -0.0028367154    0.0282997097   -0.0155078422
 C   -1.4092394339   -0.5821059661   -0.0877322649
 C    0.9334818027   -0.5364887428   -1.0909916197
 C    2.3492089985   -0.5775264304   -0.5038538708
 C    2.2603726227   -0.0635456735    0.9292065188
 C    0.8227752129   -0.5713610276    1.1683762168
 O    0.9327546885   -1.9622741708    0.8095306482
 C    1.4754200908   -1.8102389237   -0.4919284317
 H    0.8767081027    2.0442725820   -0.1051153472
 H   -0.7108431747    1.9001335188   -0.8529519166
 H   -0.5746279551    1.9210945466    0.9056669266
 H   -1.8921467461   -0.3287745743   -1.0379099069
 H   -1.3699752217   -1.6690924351    0.0018227600
 H   -2.0445218808   -0.1933870718    0.7167199130
 H    0.7443612116   -0.4204133044   -2.1505310239
 H    3.2379320315   -0.4988714037   -1.1151378052
 H    2.9717936113   -0.5602546934    1.5952415150
 H    2.3697974066    1.0170476206    1.0323839473
 H    0.4020834125   -0.4823286630    2.1687560819
 H    1.6689529741   -2.7364525987   -1.0136231449