17

 N    0.0114371730    1.4389351205    0.1504736127
 C    0.0275646383    0.0336282635    0.0363112918
 C   -1.0731407255   -0.8123419048    0.0168854308
 N   -0.6245142146   -2.1289357857   -0.0140814354
 C    0.7359810098   -2.1131257818   -0.0246907636
 C    1.1722577862   -0.8012217410    0.0081396275
 C    2.6753200102   -0.8038166580    0.0158047797
 C    2.9898668580   -2.2941771208   -0.0246218793
 C    1.8576226590   -3.0313556805   -0.0459011630
 H    0.7447007763    1.8706338977   -0.3988316499
 H   -0.8756148718    1.8363337193   -0.1330794485
 H   -2.1272294348   -0.5858300820    0.0295029448
 H   -1.2194338211   -2.9372910770   -0.0305550488
 H    3.1245107738   -0.2850995676   -0.8434779255
 H    3.1062181168   -0.3340365759    0.9110714694
 H    3.9998450675   -2.6821363252   -0.0356319127
 H    1.7979107387   -4.1120023608   -0.0736907100