22

 C    0.3672104385    1.3814223667    0.2502537655
 O   -0.1231526341    0.0759971552   -0.0153947785
 C    0.4457982362   -0.5144189296   -1.1216625664
 C    1.8639937077   -1.0394049718   -1.1383100709
 C    0.7061196783   -1.9770423854   -1.4098838166
 C    0.4529477051   -3.2401777048   -0.6468791153
 N    0.3422813350   -1.7876905379   -2.8433010894
 C   -0.7268097732   -2.6233112957   -3.3581723342
 C   -0.0772863379   -0.3777891915   -2.5546884255
 H    1.4565724364    1.3787559556    0.3915065233
 H    0.1218145552    2.0810788707   -0.5610640020
 H   -0.1153774721    1.7224222439    1.1689121716
 H    2.5556127714   -0.7893881027   -1.9388920904
 H    2.3020886199   -1.1427920629   -0.1497035125
 H    0.6730796203   -3.0837668707    0.4127488996
 H   -0.5884693674   -3.5669245395   -0.7263499581
 H    1.0940851452   -4.0539638070   -1.0058251170
 H   -1.6589945332   -2.5890986274   -2.7628419472
 H   -0.9698337601   -2.2969313380   -4.3748089513
 H   -0.3956902286   -3.6651982960   -3.4139131332
 H   -1.1688881208   -0.2652682220   -2.5604377268
 H    0.3752397881    0.3728431510   -3.2126181447