14

 C   -0.0086473299    1.4537839094    0.1234677215
 O    1.2375545320    2.0340837383   -0.3379797227
 C    2.2610273164    1.2684981679   -0.7790248787
 N    2.3493262411    0.0011421515   -0.8771275763
 C    1.2017734242   -0.6743724018   -0.4592821361
 C    0.9036462769   -2.0220719431   -0.4093355476
 N   -0.3599970578   -2.0961047832    0.0843458486
 N   -0.9089193904   -0.8900472587    0.3605743770
 C    0.0452642994   -0.0348602298    0.0278323142
 H   -0.1597523372    1.8008931267    1.1525054139
 H   -0.8073344789    1.8831480749   -0.4929575437
 H    3.0884510952    1.9087549196   -1.0726546487
 H    1.4727758018   -2.8972023080   -0.6770806379
 H   -0.9033569828   -2.9239678735    0.2569014965