16

 O    0.1050196111   -0.0133589046    0.2857452888
 C    0.0884849021    1.1783552988    0.1704821456
 C    1.3468701653    2.0444020560   -0.0623839382
 C    1.5624519757    2.9666471773    1.1929977034
 C    2.9866796671    2.5904076173    1.6431173570
 O    3.1718427739    1.2546946224    1.2121051049
 C    2.6469737282    1.1852967436   -0.0955380142
 C    1.1376806566    2.8160226429   -1.2829849233
 N    0.9530159707    3.4139900321   -2.2554484863
 H   -0.8494610927    1.7675449422    0.2459080136
 H    1.4528256664    4.0242213040    0.9506159901
 H    0.8297469117    2.7182217465    1.9668333969
 H    3.7249198424    3.2600022903    1.1743608213
 H    3.1222486936    2.6214451972    2.7261059486
 H    2.4299144109    0.1425759034   -0.3288430100
 H    3.3477812569    1.5989479907   -0.8344266982