17

 O    0.4855710987    0.8767261685    0.5031303328
 C    0.1490530425   -0.3761651678   -0.0249687041
 C   -1.3814180091   -0.6634839925   -0.2253934651
 N   -1.0572855769   -0.9794618934   -1.6342699632
 C    0.2356095460   -0.4793069079   -1.5450154794
 N    1.1540460760   -0.0948032861   -2.3235018629
 C   -1.9953995594   -1.7773126847    0.5817359088
 C   -2.6233626778   -2.9551637906   -0.0308541045
 O   -1.3218325408   -3.0347125789    0.5493812571
 H    1.1207017741    1.2677567467   -0.1100793720
 H    0.6479899434   -1.1956590155    0.5053899615
 H   -1.9586528599    0.2603121974   -0.1040438227
 H   -1.6774791371   -0.8634064560   -2.4244350434
 H    0.8942809718   -0.1679640156   -3.3082197059
 H   -2.3289865440   -1.4736340132    1.5755558841
 H   -3.4106984668   -3.4859833449    0.5022772924
 H   -2.6461787408   -3.0407599957   -1.1155264135