18

 C    0.1400240531    1.3971764917    0.3608386575
 N   -0.0266991566   -0.0121991450    0.0817357193
 C   -1.1473345540   -0.5879195427   -0.0956450870
 N   -1.1424591778   -1.9692610845   -0.2682831483
 C   -2.2576915013   -2.6382109920   -0.9010226857
 C   -3.5093798278   -2.1631387403   -0.1934006692
 O   -3.6211662852   -0.7390269970   -0.2752830612
 C   -2.5164787993    0.0508086797   -0.1191138018
 N   -2.6471183514    1.3104242241   -0.0429464720
 H    1.1976617908    1.5767490159    0.5777768717
 H   -0.1540911162    2.0211201830   -0.4910547549
 H   -0.4626320835    1.7396584105    1.2094514560
 H   -0.2118083671   -2.3219061442   -0.4418606315
 H   -2.3389750038   -2.4327201991   -1.9814304880
 H   -2.1499737051   -3.7197046914   -0.7730339814
 H   -4.4164941756   -2.5560972799   -0.6580340944
 H   -3.4834896932   -2.4677111602    0.8601426290
 H   -3.6394675161    1.5526063415   -0.0880108681