18

 C    0.2089834641    1.5510953383    0.2701955115
 C    0.0908384677    0.0649914732   -0.0508279018
 C    0.9860882108   -0.4134491177   -1.2049566905
 O    2.1863553503   -0.8010190825   -0.5479975014
 C    1.8052639961   -1.3064897753    0.7183975593
 C    2.9006700046   -0.9395021888    1.7190378062
 O    3.2723613917    0.4171284955    1.6258260142
 O    0.5585466826   -0.7237639986    1.0483573013
 H    1.2498184416    1.8118163402    0.4780328214
 H   -0.1628203405    2.1605091994   -0.5605824014
 H   -0.3790910924    1.7881524038    1.1609287896
 H   -0.9568618127   -0.2019335967   -0.2313079020
 H    0.5393383968   -1.2700522113   -1.7299788933
 H    1.2277686719    0.3663992435   -1.9306950297
 H    1.6798010954   -2.4032508009    0.6757428770
 H    2.5236002299   -1.1142245142    2.7306197073
 H    3.7577273208   -1.6118348611    1.5517559792
 H    3.4399582813    0.5734616634    0.6882888831