18

 C    0.0436710686    1.5471233230    0.2303404374
 C   -0.0172531840    0.0571034575   -0.1497590871
 C   -1.3946392798   -0.5335793011   -0.0815842520
 C   -2.1897041220   -0.9009119853   -1.1339182410
 O   -2.0279005801   -0.8888978753   -2.4866412351
 N   -3.3883701437   -1.3804838521   -0.6565435816
 C   -3.3653917890   -1.3219233001    0.7157015466
 O   -4.4738724884   -1.7630649180    1.3699244725
 C   -2.1648822709   -0.8080285603    1.1151826296
 H    1.0698653786    1.9276462443    0.1856985345
 H   -0.5760705506    2.1479688042   -0.4427857932
 H   -0.3309653646    1.7033073351    1.2467452891
 H    0.3932311363   -0.0690034851   -1.1624308427
 H    0.6622437570   -0.5048169894    0.5050104900
 H   -1.1552280597   -0.5318848200   -2.6776640102
 H   -4.1466770460   -1.7274388140   -1.2171475203
 H   -4.3227977803   -1.6580461891    2.3137629981
 H   -1.8461901013   -0.6430819944    2.1334275754