18

 C   -0.1675206323    1.5898144055   -0.0033324743
 C   -0.0304653243    0.0753606980    0.0027151390
 C    1.2026268455   -0.5883213205   -0.6534594727
 C    2.1323173253   -0.2883688816    0.5762659165
 C    2.5829889594   -1.7611330916    0.6434057587
 O    3.0440731555   -2.3076766798    1.8528633119
 C    1.0926842478   -1.8544812139    0.2639334125
 C    0.7081642315   -0.6235632944    1.1660923065
 H    0.7719618182    2.0841685612    0.2646236865
 H   -0.4651798128    1.9535143531   -0.9931825179
 H   -0.9323071207    1.9175797781    0.7098019712
 H   -0.9826635605   -0.4011639369   -0.2647390676
 H    1.5136646264   -0.5879677384   -1.6997764280
 H    2.7149390903    0.6168313574    0.7498669293
 H    3.2961443326   -2.0815546709   -0.1227631255
 H    2.4368887022   -2.0457834037    2.5535948561
 H    0.4695845504   -2.7304118444    0.0748926564
 H    0.4285193854   -0.6500646473    2.2221607415