13

 C   -0.1668316363    1.3268609620    0.3038353649
 O    0.1381006671   -0.0099032668   -0.0301080401
 C    0.5283106325   -0.7651176783    1.0723084030
 C    0.8396035783   -2.1840360117    0.6442783338
 O    0.7629408058   -2.6062314168   -0.4816238892
 C    1.2860856085   -3.1332641679    1.7638476810
 O    1.3906851246   -2.7990429142    2.9150362171
 H    0.7020939322    1.8470885220    0.7354788275
 H   -0.4590671546    1.8292341789   -0.6204702633
 H   -0.9980507201    1.3874042720    1.0231372182
 H    1.4243505954   -0.3555923554    1.5739306536
 H   -0.2499520049   -0.8083023668    1.8563464723
 H    1.5014965116   -4.1590106270    1.3973051013