20

 C   -0.0869665497    1.4137053056   -0.0279781912
 C    0.0560168907   -0.0689433363    0.0960054360
 C    0.9989970446   -0.9343958510   -0.6697458814
 C    1.0824430255   -2.1780943857    0.2321937080
 C    1.0995100552   -1.6623186107    1.6930067910
 C   -0.2361845407   -0.9767693003    1.3128311314
 C   -0.4845363585   -2.0598412854    0.2055574990
 C   -1.4860945105   -3.1675561986    0.2156502093
 N   -0.4815729428   -1.0266227959   -0.9340530753
 H    0.6213641308    1.9335619817    0.6275666946
 H    0.1052618407    1.7305044245   -1.0578269923
 H   -1.0982858171    1.7388408922    0.2394626557
 H    1.6906748963   -0.5785189461   -1.4245576784
 H    1.6412684425   -3.0498950539   -0.1041203834
 H    0.9510218950   -2.4736224112    2.4131351196
 H    1.9352510939   -1.0313794412    2.0113133348
 H   -0.9779648643   -0.6585381662    2.0443969244
 H   -2.5055578700   -2.7667197229    0.2367065399
 H   -1.3873842709   -3.7868772549   -0.6826042227
 H   -1.3520012505   -3.8103807935    1.0928541710