13

 C    0.0411617685    1.5445864132    0.0177078479
 C   -0.0345834707    0.0614948698    0.0271540858
 C   -1.0719066162   -0.7812060546   -0.0448286328
 O   -2.3925184023   -0.5507237116   -0.0924253576
 O   -0.6601794336   -2.0924143150    0.0006596107
 C    0.7345848669   -2.1032798517    0.1072854875
 O    1.3946827417   -3.1042485848    0.1506135170
 N    1.0950207373   -0.7858397919    0.1428743903
 H    0.6748371439    1.9148553792   -0.7977319179
 H   -0.9599172803    1.9590950459   -0.1182134246
 H    0.4457681887    1.9422792192    0.9568153346
 H   -2.8159074198   -1.2837661442   -0.5561618327
 H    2.0553473860   -0.4973759636    0.2029084117