19

 C   -0.0297463009    1.4403229808   -0.1502990529
 O   -0.0275394643    0.0440692989    0.0438110911
 C   -1.3073440888   -0.5625394054    0.0265567903
 C   -1.8299339725   -0.7684641383   -1.3972081408
 C   -1.1486900386   -1.9072746828    0.7598910993
 C   -0.8036813420   -1.7678717498    2.1653474393
 C   -0.5348998158   -1.6664701108    3.3387732422
 C   -0.2049137211   -1.4990095164    4.7284304707
 O   -0.1005901755   -2.4023263551    5.5272909621
 H    1.0020617479    1.7799586152   -0.0335279472
 H   -0.3790082535    1.7288757598   -1.1522965919
 H   -0.6579191448    1.9509847728    0.5955994679
 H   -2.0176731620    0.0623849610    0.5918820143
 H   -1.1468818561   -1.4086335936   -1.9645852566
 H   -2.8192940458   -1.2366898859   -1.3847560713
 H   -1.9218245362    0.1844326200   -1.9249248421
 H   -2.0757616516   -2.4863811801    0.6697556246
 H   -0.3663735714   -2.4851241605    0.2511000524
 H   -0.0464270472   -0.4430337098    5.0303482887