13

 N    0.1081206553   -1.1013238939   -0.0863638604
 C    0.0308712504    0.0530765744   -0.0303066171
 C   -0.0569166702    1.4685980845    0.0414481384
 C   -1.1374880380    2.3432419965    0.6864172476
 C   -0.4298959738    3.5163575869   -0.0345516434
 O    0.8592539268    3.6051548472    0.6438883516
 C    1.2012303373    2.4032660039   -0.0159433933
 C    0.1750749943    2.5017580848   -1.0773049997
 H   -2.1196259344    2.1326453537    0.2584595759
 H   -1.1851701571    2.3983828191    1.7767650842
 H   -0.8974627002    4.4793784667   -0.2186299594
 H    2.2171910876    2.0339693512    0.0088301050
 H    0.1749226319    2.3996460347   -2.1529171593