18

 O    0.3231039502    0.7076351516   -1.0449959800
 C    0.0820885862   -0.2353944164   -0.0394364563
 C    0.0096908815    0.2012016182    1.4503591100
 C   -1.1675708423   -0.8044617111    1.6352647930
 O   -2.2637060224   -0.4703436062    2.4303330766
 C   -1.3636529212   -0.8070212045    0.0925996283
 O   -2.3171106912    0.2140957419   -0.1999825655
 C   -2.7413943257    0.3201982232   -1.4813489367
 N   -3.4226970885    1.3226483692   -1.8263178307
 H   -0.2722652651    1.4523587340   -0.9007038731
 H    0.8026546563   -1.0436382359   -0.1926491289
 H    0.8993226105    0.0806802033    2.0703858880
 H   -0.3529617882    1.2305067278    1.5378224355
 H   -0.8055724005   -1.7785575777    1.9756107022
 H   -2.7492776200    0.2209103315    1.9627291903
 H   -1.6291916225   -1.7373007097   -0.4196062381
 H   -2.4434394659   -0.5286301826   -2.1084361289
 H   -3.6931057414    1.2422267632   -2.8042307156