18

 C   -0.0868119053    1.3613359052    0.5015827289
 C    1.2233508947    1.6837647986   -0.2859662908
 C    1.3798819116    0.1800624182   -0.6417994276
 C    0.0206237824   -0.1293740311    0.0795859746
 C   -0.5949228725   -0.5903438581   -1.2837502598
 C   -1.1701388255    0.4681234592   -2.2414304821
 O    0.1420039399    0.7599528685   -2.7880322107
 C    0.7491063647   -0.2806465584   -1.9921346894
 H    0.0245260377    1.4893302534    1.5814113108
 H   -0.9885170573    1.8988137682    0.1973413268
 H    1.0965439021    2.3288240780   -1.1566229529
 H    2.0295943125    2.0795032181    0.3351246579
 H    2.3170062700   -0.3083305628   -0.3695868593
 H   -0.0629133374   -0.8709107612    0.8754962242
 H   -1.0698776033   -1.5709795687   -1.2880157376
 H   -1.8320028706    0.0540826389   -3.0128063770
 H   -1.6466713657    1.3538265958   -1.8069406988
 H    1.3190388018   -0.9871660918   -2.6028915571