21

 C   -0.0089149664    1.5474022832   -0.0125515720
 C   -0.0419672116    0.0059622846    0.0334188085
 C    0.7003703371   -0.5054394351    1.1859568696
 C    1.2933870546   -0.9178411800    2.1472833799
 C   -1.4677402952   -0.5312437154    0.0333575258
 C   -2.5664904234   -0.2814859782   -1.0487646512
 C   -3.2234641472   -1.2026430243    0.0175931432
 C   -1.9056993809   -2.0267543669    0.0215593004
 C   -2.5794321123   -0.2952058338    1.1037244412
 H    1.0210791620    1.9113111997   -0.0414749605
 H   -0.5315256075    1.9109547683   -0.9020394881
 H   -0.4941175580    1.9697987825    0.8718081110
 H    0.4459514027   -0.3711145248   -0.8774967275
 H    1.8263095792   -1.2857694730    2.9886445771
 H   -2.9595296222    0.7361896468   -1.1267024036
 H   -2.3885541396   -0.7192667077   -2.0357469425
 H   -4.2420474714   -1.5905223947    0.0073019498
 H   -1.6772465567   -2.5941405577   -0.8857549695
 H   -1.6844612086   -2.6035479643    0.9229727932
 H   -2.4099181237   -0.7442722420    2.0855577954
 H   -2.9734917610    0.7216021827    1.1887746997