19

 O    0.0995799453    1.2761546526   -0.4949166650
 C    0.0345930435    0.0471619880    0.2133890283
 C   -1.3717689538   -0.4964136840    0.2363988053
 C   -2.4320888100    0.1688554492    1.1057812432
 C   -3.6243036902   -0.8170726004    1.1083689132
 C   -2.9963236472   -2.2136767032    0.8742229758
 C   -1.7246394366   -1.9352902602    0.0874792679
 N   -1.8159443126   -1.0281904062   -1.0710419874
 H   -0.2405733634    1.0857198191   -1.3773294893
 H    0.7089110168   -0.7021273255   -0.2270622928
 H    0.3834127644    0.2610047905    1.2296607366
 H   -2.0267027095    0.2910269270    2.1179484094
 H   -2.7036542206    1.1676819271    0.7499162472
 H   -4.2006444449   -0.7714859287    2.0354134748
 H   -4.3251229273   -0.5738014889    0.3029973205
 H   -2.7251389288   -2.6851859420    1.8267495501
 H   -3.6771968675   -2.9007733687    0.3599481501
 H   -0.9746111551   -2.7163170511   -0.0021527512
 H   -2.7838743526   -0.7820012748   -1.2633871065