20

 C   -0.6441891319    0.8595393134   -1.6631610531
 N   -0.1238480656   -0.2181949181   -0.8319975407
 C    1.2902336657   -0.2570303311   -0.4611761713
 C    2.2969545168    0.7787530756   -0.9136420303
 O    2.6091357321    0.6528683604   -2.2956404092
 C    0.2284503082   -0.0014106617    0.5657325030
 C    0.0768248769    1.3378248550    1.2850226930
 C   -1.2880995012    1.5589782119    1.7543618731
 C   -2.4152403590    1.7200834934    2.1385845577
 H   -0.2641782074    1.8660019699   -1.4393965489
 H   -0.3968491478    0.6398891778   -2.7049210104
 H   -1.7325597469    0.8827652248   -1.5569315615
 H    1.7057200920   -1.2681674917   -0.4943137708
 H    1.9280814681    1.7993999020   -0.7955402637
 H    3.2018007581    0.6894720393   -0.2907048828
 H    2.8964617438   -0.2532111468   -2.4507684499
 H   -0.0541603342   -0.8344973000    1.2088015304
 H    0.7609844371    1.3450934963    2.1438944539
 H    0.3810274248    2.1754175582    0.6512558734
 H   -3.4101628596    1.8709795212    2.4771930783