17

 O    0.0457103595   -0.0044977559    0.2437648207
 C   -0.0061839311    1.1878581309    0.0683450930
 C   -1.3093647846    1.9567838928   -0.1028787790
 C   -1.1601937889    3.1420275464   -1.0678531858
 O   -0.0755440555    3.9704640306   -0.6873949754
 C    1.1616827361    3.3014956413   -0.8258541708
 C    1.2367073011    2.0589971942    0.0538513250
 C    2.1139896636    2.0099776048    1.2425642410
 O    2.4835042184    1.3786245828    0.0231692701
 H   -2.0936217501    1.2617342074   -0.4150150376
 H   -1.5827547212    2.3496920939    0.8856727860
 H   -1.0193124458    2.7798112469   -2.0994144393
 H   -2.0544752485    3.7699108677   -1.0512909412
 H    1.3225461799    2.9960142464   -1.8733613247
 H    1.9482445507    4.0109600923   -0.5571209903
 H    2.6828447555    2.8990769495    1.5126217503
 H    1.8668498111    1.3306270879    2.0564100179