17

 C   -0.6949850610    0.8288948590    0.1145494147
 N    0.6387945404    0.2074462595    0.1454345086
 C    0.9904392550   -0.5400843674   -1.0054763476
 C    1.8944429587   -0.1198511518   -1.9648400753
 N    2.2479982847   -0.8549112461   -3.0310539041
 C    1.6489469584   -2.0370202446   -3.1214593150
 N    0.7803126307   -2.5741972303   -2.2622165253
 C    0.4564878352   -1.8382640604   -1.1972551085
 N   -0.4300081797   -2.3627072735   -0.2909363459
 H   -0.8146843789    1.5591542472   -0.6994132384
 H   -1.4543639386    0.0537627203   -0.0144404869
 H   -0.8757102327    1.3315491747    1.0686567347
 H    1.3418964324    0.9151099145    0.3269247179
 H    2.3693829673    0.8565639722   -1.8659568619
 H    1.9011190784   -2.6469116394   -3.9859755150
 H   -0.5636214165   -3.3599724221   -0.3708756595
 H   -0.3388845638   -2.0040076720    0.6492150873