23

 C    0.0079995328    1.5376523639    0.0445282355
 C    0.0058916068    0.0059564383    0.0762934934
 C   -1.3985534044   -0.5922705329   -0.0279079249
 C   -2.1094049240   -0.4509128874   -1.4166071274
 C   -2.4281229126   -1.9359063987   -1.6921761308
 C   -1.0826329265   -2.6265631363   -1.3336143699
 C   -1.4659889061   -2.1303543559    0.0971088792
 O   -0.8768264224   -2.6012124818    1.2679931146
 C   -2.9449684536   -2.4199603667   -0.3080250826
 H    1.0244960939    1.9349048105    0.1275972230
 H   -0.4226766326    1.9218471453   -0.8867814016
 H   -0.5789956154    1.9501534311    0.8729522290
 H    0.6364728991   -0.3752924075   -0.7370096677
 H    0.4628682889   -0.3448872037    1.0085378933
 H   -2.0136315584   -0.1533595135    0.7676214725
 H   -3.0092162743    0.1693856514   -1.3744945923
 H   -1.4455503868   -0.0270947103   -2.1775177403
 H   -2.9600017441   -2.1771388138   -2.6113769512
 H   -1.1365656919   -3.7160219748   -1.4191739410
 H   -0.1634691548   -2.2581191372   -1.7961900430
 H   -0.9425423466   -3.5611702326    1.2787623902
 H   -3.7371286996   -1.8480455164    0.1847080112
 H   -3.1815290875   -3.4880718109   -0.2969790188