17

 C   -0.0289020103    1.5640843158    0.0135914206
 C    0.0121857891    0.0386386701   -0.0227321353
 C    0.6949817509   -0.4865519664   -1.2832654032
 N    0.8380376984   -1.9297992903   -1.1941105956
 C    1.2179785111   -2.5947872044   -0.0589754768
 O    1.4923990773   -3.7721243898   -0.0368653156
 C    1.2536537296   -1.7422442104    1.2362352669
 O    1.7157775058   -2.1882634815    2.2607261657
 N    0.7517949542   -0.4719832231    1.1271971986
 H    0.9817171340    1.9826687001   -0.0180745088
 H   -0.5962258486    1.9522101628   -0.8371335998
 H   -0.5180956952    1.9170280784    0.9269120936
 H   -1.0193410014   -0.3469899215   -0.0111736701
 H    0.0834826056   -0.2473091244   -2.1577012237
 H    1.6684146557    0.0124904468   -1.4052562801
 H    0.9172991820   -2.4712827738   -2.0433646441
 H    0.6826013319    0.0242693416    2.0057882478