17

 C   -0.0720773756    1.5118173760   -0.0086060058
 C    0.0239491369    0.0113390249    0.0632580000
 O   -1.2495180499   -0.6624552979   -0.0033202923
 C   -0.9383474681   -1.4700093999    1.1622315994
 C    0.4518828767   -0.8132077400    1.3058023958
 C    1.6101835853   -1.4100552608    0.4738751102
 N    1.0091965387   -2.1158588361   -0.6775387036
 C    1.1864072693   -0.6489179102   -0.7407959638
 H    0.9143235503    1.9718110147    0.1133487319
 H   -0.4709452288    1.8156259286   -0.9833269969
 H   -0.7389856516    1.8965081464    0.7679297839
 H   -1.6281172267   -1.2508004912    1.9860476255
 H   -0.9462645532   -2.5383191854    0.9324257886
 H    0.7222591196   -0.3411756455    2.2490605145
 H    2.6017606445   -1.6638959288    0.8276020799
 H    1.7728452478   -2.5285401674   -1.2121421964
 H    1.7725037948   -0.1978555873   -1.5340775308