21

 C    0.0900734346    1.3063147762   -0.0789045822
 O   -0.0587345086   -0.0906001340    0.0529902827
 C   -1.3888708733   -0.6126429335    0.1382921858
 C   -2.1537814154   -0.0551615875    1.3457498327
 C   -2.1665470344   -0.3945934172   -1.1660689847
 C   -1.0926067389   -2.1093751546    0.3466835046
 O   -2.3043126523   -2.8575078402    0.4741533913
 C   -2.5134405707   -3.8923721582   -0.3621458212
 O   -3.4951433897   -4.5696521946   -0.3181944326
 H    1.1648214824    1.4955376198   -0.1374404782
 H   -0.3790619056    1.6974247110   -0.9920208495
 H   -0.3114222303    1.8564484677    0.7826553776
 H   -2.4429719018    0.9884350241    1.1952759617
 H   -3.0650605769   -0.6362055628    1.5073380095
 H   -1.5376875918   -0.1191380192    2.2479802687
 H   -1.5837168467   -0.7468350488   -2.0230422078
 H   -3.1148294982   -0.9376308097   -1.1387277160
 H   -2.3998413848    0.6622553260   -1.3202160288
 H   -0.4953156686   -2.4802123156   -0.4943527356
 H   -0.5152165703   -2.2397660787    1.2662132692
 H   -1.6817553188   -4.0364338903   -1.0792864973