12

 N    0.0294537780    1.3205846594    0.0667607698
 C   -0.0616577567   -0.0196542008    0.0194542790
 N   -1.2197231298   -0.6052907717    0.0036709115
 O   -1.1359154782   -2.0315435113   -0.0139547744
 C    0.0498762657   -2.6328574634   -0.0141042033
 O   -0.0727494469   -3.9543599950   -0.0168344194
 N    1.2230453509   -2.1029916959   -0.0146627750
 C    1.2707727613   -0.7328148600   -0.0083834483
 O    2.2900937991   -0.0739623935   -0.0284173792
 H    0.9591964807    1.6995414682   -0.0257644082
 H   -0.7851096654    1.9030925562   -0.0162911791
 H   -1.0141190986   -4.1785115423   -0.0155124235