12

 N    0.0567345611    1.3001542677    0.0072505682
 C   -0.0325287022   -0.0360545875    0.0010319424
 N   -1.1881290346   -0.6445110959    0.0042356554
 C   -1.0788626771   -2.0046134645   -0.0032045509
 N    0.0034208966   -2.7217790827   -0.0126904180
 C    1.2070156478   -2.0532946009   -0.0161030511
 N    2.3775561919   -2.5232418902   -0.0243982510
 O    1.1594348403   -0.6319282079   -0.0085450062
 H    0.9555759129    1.7492282312    0.0045264653
 H   -0.7915696484    1.8382773476    0.0145263688
 H   -2.0268607830   -2.5397178418   -0.0006409199
 H    2.3100540148   -3.5396649050   -0.0287876031