15

 N    0.1134387478    1.4024266909   -0.1437767784
 C    0.0297872780    0.0195743156   -0.0536057966
 C   -1.1023879523   -0.8054133737   -0.0166817864
 N   -0.6488844061   -2.1165811840    0.0159607945
 C    0.7031905747   -2.1469476869   -0.0049759406
 C    1.1575363351   -0.8386153614   -0.0532234818
 O    2.4664296305   -0.4167166739   -0.0178304673
 C   -2.5085819983   -0.5364553856   -0.0030572042
 O   -3.3691377038   -1.4041706983    0.0359176048
 H    0.9808952425    1.7570810934    0.2385106723
 H   -0.6798059784    1.9059479239    0.2261515124
 H   -1.2891952517   -2.8917425700    0.0535159990
 H    1.2630548627   -3.0679357361    0.0239787070
 H    2.7265460759   -0.1303733649   -0.9008100609
 H   -2.7837887767    0.5406897910   -0.0321255938