18

 C   -0.0067025914    1.4497580573   -0.0539390877
 C    1.5406853515    1.5098922226    0.0140505253
 C    2.0877144803    1.3177902900    1.4743198644
 C    1.6306350904   -0.1597951265    1.3642786454
 C    0.1206769723   -0.4729937973    1.4787398811
 N   -0.0847627621   -0.0578459680    0.0264698026
 C    1.4413546988   -0.0418857365   -0.1192949716
 C    2.4186721665   -1.2215894065   -0.2075236223
 O    2.5895696137   -1.2343327776    1.2549016894
 H   -0.5703167389    1.9714968559    0.7271302717
 H   -0.3756541315    1.7669789408   -1.0335530448
 H    2.0480619242    2.1991875626   -0.6615470240
 H    3.1786417365    1.3746766416    1.5086099440
 H    1.6665192901    1.9451522819    2.2656391386
 H   -0.0676572232   -1.5435597155    1.5910661190
 H   -0.4866821564    0.0804741692    2.2027407587
 H    1.9830835158   -2.1574451198   -0.5751106726
 H    3.3669529437   -1.0311880842   -0.7218024672