18

 C    0.0785188935    1.2871729281    0.3239087609
 N   -0.0327920759   -0.0006015536   -0.3434855633
 C    1.1967779457   -0.7813636120   -0.3491577222
 C   -1.1810738366   -0.7451322587   -0.1031082585
 N   -1.2486787142   -2.0470206556    0.0039154342
 C   -2.6030910856   -2.3493932796    0.1374104162
 C   -3.3314307141   -1.2007893706    0.1259749010
 O   -4.6461095178   -0.8772490950    0.2316284181
 N   -2.4291600990   -0.1649509546   -0.0188508499
 H    0.9521349414    1.8134632586   -0.0699108164
 H   -0.7935426507    1.9145419239    0.1176065970
 H    0.1898981274    1.2021229484    1.4180373567
 H    1.4993278366   -1.1055776540    0.6589414528
 H    1.0507969564   -1.6749589553   -0.9556926850
 H    1.9970343346   -0.1722077464   -0.7793806773
 H   -2.9483867757   -3.3653988113    0.2476260855
 H   -5.1467694639   -1.6905760584    0.3467069206
 H   -2.6802012721    0.7989175262   -0.1517072604