16

 C    0.1164102697    1.5147401984    0.1601748464
 C    0.0131144843    0.0338145963    0.0240875939
 C   -0.1882135060   -0.7259715239   -1.0795065554
 O   -0.2053279267   -2.0425470592   -0.7028262499
 C   -0.0024333123   -2.0121039270    0.6381102563
 C   -0.0099670627   -3.3113289887    1.3647316669
 C   -1.4263422044   -3.8441032276    1.5795649534
 O   -1.7521135543   -4.9835294494    1.3881479725
 N    0.1280030489   -0.8181660818    1.1234303888
 H    1.0873670520    1.8010600614    0.5775477616
 H   -0.0012694410    2.0077013144   -0.8080683263
 H   -0.6527771098    1.8984133618    0.8384721515
 H   -0.3235646343   -0.5238681551   -2.1279956852
 H    0.5720648033   -4.0748138763    0.8430946986
 H    0.4295275887   -3.1353487053    2.3530089281
 H   -2.1461449453   -3.0808588582    1.9495462387