17

 C    0.1049375739    1.4763956771   -0.3662803077
 C    0.1423555208   -0.0079716451   -0.1246523469
 O    1.4264298036   -0.6245747201   -0.0088515302
 C    0.6162089846   -0.5817936452    1.1518835666
 C    0.9632834661    0.0908247763    2.4933342413
 C    0.3425574477   -1.1142737565    3.2571717756
 O   -0.8127987161   -0.7614522314    3.9845674194
 C    0.0588790072   -1.7925418189    1.8829656165
 O   -0.4521546905   -2.8252640848    1.5588614539
 H    0.8462677676    1.9929506606    0.2480518074
 H    0.3165121275    1.6952966593   -1.4180132380
 H   -0.8880161976    1.8749227714   -0.1330407337
 H   -0.5761898970   -0.6067541273   -0.6864524988
 H    2.0343424052    0.2184394200    2.6589181601
 H    0.4433850828    1.0305502160    2.6883755869
 H    1.0660491176   -1.6742173134    3.8676655091
 H   -1.2987706234   -1.5726612578    4.1725102087