22

 C   -0.1284872699    1.3935868133   -0.0186381452
 C    0.6423476068    0.0981776250    0.1137587431
 C    1.9708094550    0.0677490575    0.8456772518
 C    0.7497107105   -0.5974297495    1.4382431440
 O    0.0747664084   -0.0165312494    2.5140372107
 C    0.5426087935   -0.4024815397    3.7962869404
 C    1.7864419082    0.3241884944    4.2521628593
 C    2.6506813180   -0.2936749741    5.2890246826
 N    3.1334263918   -0.1548177309    3.9059546878
 H   -0.0546120581    1.9865311415    0.8955896563
 H    0.2567386071    1.9924399329   -0.8507328940
 H   -1.1911329024    1.2032721336   -0.2040764938
 H    0.5615229137   -0.5641928463   -0.7443878128
 H    2.7750008491   -0.5535987493    0.4653967882
 H    2.2972114284    0.9880018125    1.3164036954
 H    0.7174801123   -1.6888925545    1.4478156745
 H   -0.2815112361   -0.1752490202    4.4825571472
 H    0.7164515374   -1.4916838938    3.8325146967
 H    1.6959167468    1.4086043960    4.2337326177
 H    3.1567928415    0.3302253994    6.0198530474
 H    2.3818992616   -1.2834097954    5.6521944988
 H    3.0647866167   -1.0475971529    3.4229501640