18

 C    0.2504142316    1.3819825263   -0.0062461907
 N   -0.0167071500   -0.0391215551    0.0011672685
 C    0.2199092557   -0.9322095106   -0.9982935944
 C   -0.1068168556   -2.1810416915   -0.4985896495
 C   -0.5278884871   -1.9267844871    0.8264724399
 N   -0.4637525436   -0.6293350184    1.1219391954
 N   -0.1242132876   -3.4092914354   -1.1821775653
 C    1.0854003135   -3.8506391361   -1.8694711335
 C    0.6292853460   -4.5291599187   -0.6243301802
 H    1.3095260119    1.5938747766    0.1801399389
 H   -0.0331090538    1.8102271943   -0.9711484819
 H   -0.3471784986    1.8375333649    0.7833407076
 H    0.5772428996   -0.6231393890   -1.9672976913
 H   -0.8829063085   -2.6348460709    1.5604348647
 H    0.9312226160   -4.3146911947   -2.8391354857
 H    1.9664092892   -3.2166297574   -1.7933262338
 H    1.2061636312   -4.3466622846    0.2795943447
 H    0.1352736301   -5.4949894526   -0.6719934733