16

 C    0.0201956971   -1.1979685067   -0.0828559991
 C    0.0353254717    0.0040503254   -0.0284422175
 C    0.0210185755    1.4302009318    0.0586974710
 C    0.3321075671    2.2986633633   -1.1498661892
 C    1.2815652521    2.2908941510    0.0119208839
 C    1.0623591481    3.3682180877    1.0578699144
 O   -0.3471741441    3.4187474209    1.2599926459
 C   -0.8615579299    2.1026128376    1.1128292509
 H    0.0119703324   -2.2581371453   -0.1374396770
 H    0.6379115570    1.7799472625   -2.0502031541
 H   -0.2881291324    3.1762289582   -1.3029969759
 H    2.2571172926    1.8315461296   -0.0862691347
 H    1.5929775271    3.1070983595    1.9875280974
 H    1.3794742183    4.3685772123    0.7455849481
 H   -1.9119084239    2.1905933383    0.8194903603
 H   -0.8029630087    1.5333474339    2.0532354254