20

 C   -0.2136923169    1.5003519684   -0.0326528045
 N    0.0874261196    0.0739152224   -0.0348675848
 C    0.7312980079   -0.5079409083   -1.2059965659
 C    2.2461052357   -0.3047746709   -1.1574471479
 O    2.7555725415    0.7472420039   -0.3623504552
 C    2.3438816865    0.4801487748    0.9854157107
 C    1.1708199551   -0.4844982415    0.8345560622
 C    1.6208194852   -1.3937150296   -0.3459972674
 C    1.9007384145   -2.8643165905   -0.3276344273
 H    0.6386540049    2.1490070456   -0.2806213918
 H   -1.0055632402    1.6844530853   -0.7669780979
 H   -0.6062087869    1.7870758051    0.9491194383
 H    0.1752470001   -0.7321957153   -2.1125792066
 H    2.8500168476   -0.5214452584   -2.0319171413
 H    3.1632739160    0.0223472411    1.5630495172
 H    2.0750927797    1.4307349057    1.4568769857
 H    0.8203165983   -0.9394506587    1.7647829068
 H    1.0401667292   -3.4311251873    0.0448830251
 H    2.1299846965   -3.2316146188   -1.3331711179
 H    2.7600632456   -3.0996389429    0.3115800323