19

 C    0.5786325221    1.0887096824    0.5977313725
 O   -0.2535463420    0.3534389049   -0.2783440123
 C    0.4602570194   -0.3386997694   -1.2643418956
 C    1.2181945510   -1.6227832075   -0.9004887345
 C    0.2883108173   -2.6808673115   -0.4757679053
 N    0.4254057148   -2.4296684250   -1.9378316107
 C   -0.3776276424   -1.2436296474   -2.1832205373
 N   -1.3438778396   -1.1494515114   -2.9711409216
 C   -2.0040259032    0.1380421574   -3.1170436708
 H    1.2560862758    0.4312182148    1.1614167308
 H    1.1841427169    1.8281965794    0.0517025216
 H   -0.0737908494    1.6110766229    1.3004311548
 H    1.0981254765    0.3466031785   -1.8455412345
 H    2.2954846154   -1.7256319647   -0.8489819124
 H    0.7089655879   -3.6353845525   -0.1779337493
 H   -0.6452287607   -2.4128226098    0.0107711735
 H   -3.0677476933    0.0165580412   -2.8853377713
 H   -1.5981889481    0.9319469745   -2.4778540809
 H   -1.9433133582    0.4507433932   -4.1655315867