20

 C    0.1737521534    1.6212110962    0.0718802273
 C    0.0111840983    0.1141484836   -0.0688412949
 C    0.7466299231   -0.4987667801   -1.2952531008
 C    1.4942502658   -1.7189437947   -0.7507196993
 C    1.2966623479   -1.6599390370    0.7738537762
 O    0.5512489004   -0.5132456357    1.1081198913
 C    0.6032337431   -3.0261746388    0.6659707249
 C   -0.4903080962   -3.0370397558   -0.3219521024
 N    0.8857309181   -3.1086114132   -0.8381132297
 H    1.2341554392    1.8894527159    0.1173386930
 H   -0.2815860765    2.1375501252   -0.7796995036
 H   -0.3098978546    1.9743848978    0.9867818123
 H   -1.0627008344   -0.1159756666   -0.1213193429
 H    0.0537927770   -0.7573236238   -2.1006848809
 H    1.4644186184    0.2216477596   -1.6991003514
 H    2.5237338477   -1.7801551071   -1.1027481065
 H    2.1967155840   -1.6887225903    1.3929110524
 H    0.7992907639   -3.8706057445    1.3190926948
 H   -1.0207808013   -3.9764921154   -0.4478686740
 H   -1.1053080772   -2.1612679154   -0.4968304757