15

 O   -0.1907224664    1.3648629010    0.1311111203
 C   -0.0026971920    0.0094413764    0.0789993111
 C   -0.1731352972   -0.8458064816   -1.1953845348
 O    0.5389064351   -2.0673425724   -1.0013073340
 C    0.0307748272   -2.0396992128    0.3654267441
 C   -1.1018989858   -1.0299793021   -0.0361372631
 C    0.8205940203   -0.8787874178    1.0473116545
 C    2.3234145952   -0.8732189893    0.9601054420
 O    3.0424252360   -0.3704040919    1.7900143587
 H    0.5594269867    1.8039168266   -0.2867307604
 H   -0.3123939613   -0.4496635059   -2.1925026030
 H   -0.0700501064   -3.0216685022    0.8200159459
 H   -2.1739423377   -0.9955297766    0.0923274784
 H    0.4902476710   -0.7037575715    2.0739670868
 H    2.7361595854   -1.3535611198    0.0478765235