16

 C   -0.0641851131    1.3572815090   -0.0774810859
 O    0.0264129037   -0.0693682530    0.0329931292
 C    0.6710571004   -0.5239287884    1.1246417840
 O    1.1500761505    0.1932015215    1.9676341301
 C    0.7052216035   -2.0382168747    1.1360656299
 C    1.4420454987   -2.5864309476    2.3686475883
 C    1.4775161806   -4.0433252575    2.3868343284
 C    1.4939033323   -5.2450349622    2.3791403287
 H    0.9320416686    1.8049148392   -0.1169413633
 H   -0.6062528534    1.5489655821   -1.0033966592
 H   -0.6031012868    1.7765592670    0.7758654094
 H   -0.3240270326   -2.4104633422    1.0985690243
 H    1.1791381334   -2.3837581168    0.2112888205
 H    2.4607896296   -2.1836930777    2.3899167770
 H    0.9584637514   -2.2091858538    3.2765342816
 H    1.5178009632   -6.3063413348    2.3870430471