19

 C   -0.2303866622    1.5214300352   -0.0415641416
 C    0.0439565303    0.0357413142    0.0401871978
 C   -1.1517392578   -0.9558107856    0.2116007424
 C   -0.3362637058   -1.7745116496    1.2539287173
 C    0.8106511476   -0.7348901560    1.2012108589
 C    1.9537080582   -1.0918801540    0.2091506076
 O    2.4515361673   -2.3999359007    0.1474284167
 C    1.0601421687   -0.5912336722   -0.9292528776
 O    1.0842344230   -0.7862304813   -2.1139903627
 H    0.6923187195    2.1099355181    0.0016494478
 H   -0.7368006692    1.7649013449   -0.9822097172
 H   -0.8759193513    1.8447793607    0.7820169105
 H   -2.0160353519   -0.4525540008    0.6538682223
 H   -1.4790735926   -1.4695717545   -0.6956595793
 H   -0.8183247602   -1.8637218518    2.2286733664
 H   -0.0256835407   -2.7711373277    0.9318582112
 H    1.1117521459   -0.2577621461    2.1329442902
 H    2.7705252429   -0.3618994419    0.3518471379
 H    2.4368692782   -2.6647396210   -0.7803216785