19

 C    0.1436191737    1.5962770116    0.0269939675
 C   -0.0546008581    0.0841162601   -0.0332377444
 C    0.3856708406   -0.5112882895   -1.3848314126
 N    1.1386038070   -1.7620708210   -1.2760386030
 C    2.2335333214   -1.8712174964   -0.3433827606
 C    0.9929829185   -2.6846633277   -0.1646892257
 C    0.7279017546   -1.9764696422    1.2164936315
 C    1.9516817735   -1.1402869633    1.0234309072
 N    0.6302952800   -0.5419645321    1.1066866660
 H    1.2047168401    1.8490324506   -0.0774541283
 H   -0.4007484476    2.0898036933   -0.7854005958
 H   -0.2109170943    1.9961903467    0.9807642411
 H   -1.1166914489   -0.1345503309    0.1294521781
 H   -0.4799537976   -0.6955053727   -2.0296123583
 H    1.0370004992    0.1890119088   -1.9207648363
 H    3.2197159969   -2.1546179023   -0.6939171873
 H    0.8046642788   -3.7328587910   -0.3655648173
 H    0.3507549101   -2.4803864567    2.0994823647
 H    2.7161497019   -0.8434102254    1.7317545136