19

 C   -0.1622808561    1.5451876873    0.0636771905
 C    0.0495088742    0.0292126867    0.0088922909
 C    0.8122643646   -0.5161204244    1.1986694261
 O    0.1690086069   -0.2083243282    2.4550320853
 C    1.1383520823   -0.8710626401    3.2774842141
 C    1.1139350938   -2.2846234769    2.6378179864
 C    0.9185365114   -2.0625356501    1.3435256345
 C    2.4333808173   -0.1690147532    2.7930916460
 C    2.2328085375    0.0478110446    1.4983448760
 H    0.7919659272    2.0818954108    0.0668448868
 H   -0.7394549913    1.8889840479   -0.7996333260
 H   -0.7005022391    1.8229697552    0.9732363826
 H   -0.9190936940   -0.4814088722   -0.0413393201
 H    0.5958679145   -0.2484852373   -0.9015770920
 H    0.8887659193   -0.7933319115    4.3346307439
 H    1.2880584473   -3.2129583006    3.1626718411
 H    0.8850398710   -2.7606061791    0.5188077583
 H    3.3105119178    0.0127045513    3.3974639376
 H    2.9033655055    0.4582303900    0.7564824280