17

 O    0.2458502137   -0.1697724873   -0.3283292886
 C    0.1141831017    1.0120689665   -0.1515514406
 C    1.2619218920    2.0071012708   -0.0243565804
 C    1.2357871044    2.9864021892   -1.1637048298
 C    0.9200690736    4.2866120237   -1.1049395884
 C    1.0850934061    4.9288180113   -2.4416504438
 O    2.4437626210    4.8642197044   -2.9372716892
 C    1.5168685470    3.8671186904   -3.3678886315
 C    1.5915234022    2.5633560818   -2.5833650732
 H   -0.8946198504    1.4804798205   -0.0862514053
 H    1.1420475737    2.5401206120    0.9269070306
 H    2.1984869583    1.4406496974    0.0007135290
 H    0.6345224203    4.8259816881   -0.2097176529
 H    0.5276099955    5.8113992432   -2.7390123724
 H    1.2883649541    3.8665102827   -4.4300559094
 H    2.5904046151    2.1135696971   -2.6360400432
 H    0.8883146117    1.8173061983   -2.9756698107