20

 C   -0.0539765372    1.4889601782   -0.0107189965
 N   -0.0085004186    0.0321915091    0.0073957909
 C   -1.3504381677   -0.5440313371   -0.0822215342
 C   -1.2904900985   -2.0715449880   -0.1479572506
 N   -0.5539971683   -2.6601113181    0.9703581889
 C    0.7570600740   -2.0521876823    1.1083656918
 C    0.7075744559   -0.4980363908    1.1697003390
 C    2.0788367183    0.0230788207    1.2319944651
 N    3.1720689344    0.3897281198    1.3094660953
 H    0.9595571533    1.8971522027   -0.0067122479
 H   -0.5527252630    1.8199376236   -0.9261052734
 H   -0.6028835038    1.9128958551    0.8511765939
 H   -1.9775657403   -0.2385871392    0.7818088199
 H   -1.8290834534   -0.1439431503   -0.9828454007
 H   -2.3027310311   -2.4866787856   -0.1674725177
 H   -0.7898236920   -2.3708365576   -1.0768131655
 H   -1.0829075361   -2.5412299755    1.8300416754
 H    1.2494850716   -2.4320135907    2.0074670265
 H    1.3684972561   -2.3336680780    0.2438653003
 H    0.2082992863   -0.2072914259    2.1184547096