20

 C    0.0780941310    1.5535224558   -0.0228891799
 C   -0.0327820536    0.0193439079   -0.0078244357
 C    0.7258677184   -0.6655309854   -1.1768840254
 N    1.9225309828   -1.2557951648   -0.5479271061
 C    2.9806087491   -1.7174925154   -1.2720919653
 O    3.9891929185   -2.2338783394   -0.8352593967
 C    1.7527119056   -1.2653782058    0.8605494193
 C    2.7273420637   -1.9512709122    1.7608213550
 C    0.6411379640   -0.6003931652    1.1956930465
 H    1.1273909098    1.8666228817   -0.0182214180
 H   -0.4041389511    1.9761798798   -0.9112647703
 H   -0.4034663422    1.9868101890    0.8594865969
 H   -1.0947540921   -0.2476036087   -0.0565412536
 H    0.1179366086   -1.4570933713   -1.6298929524
 H    1.0121111659    0.0378584635   -1.9637830078
 H    2.8135194166   -1.5607174627   -2.3569823952
 H    3.7281065346   -1.5238174276    1.6648563092
 H    2.3902697815   -1.8557565930    2.7958863164
 H    2.8232856477   -3.0114537148    1.5106940034
 H    0.3003530811   -0.4587600213    2.2122266395