14

 O    0.0929920539    1.3336065266    0.4222202049
 C    0.0148723671    0.0080984731   -0.0771178557
 C   -1.4051500929   -0.4482971586    0.0576990418
 N   -1.6799525232   -1.6951701347    0.3640098345
 O   -3.0595518575   -1.7959091235    0.3692108737
 C   -3.5903959010   -0.5831430100    0.0731601088
 C   -2.5852652080    0.3159190671   -0.1363512837
 C   -4.9934338448   -0.4709757552    0.0380436659
 C   -6.1917874579   -0.3681565483    0.0052892902
 H    0.9815109266    1.6620154192    0.2560967319
 H    0.3044896798   -0.0333991195   -1.1393434782
 H    0.6645464152   -0.6885508053    0.4700207795
 H   -2.6683058976    1.3611353195   -0.3765221547
 H   -7.2499531796   -0.2784948803   -0.0223161988