25

 C   -0.0446947417    1.5875444824   -0.2814335285
 C   -0.0189643460    0.0958685171    0.0626189512
 C   -1.4005021940   -0.5629109543   -0.0071092932
 C   -1.3818735161   -2.0573935082    0.3420175207
 C   -2.7557505396   -2.6900679926    0.2684269903
 C   -3.3201378321   -3.2229017332   -1.0407171736
 C   -3.0007173042   -4.1615077300    0.1017815876
 C   -1.8800523514   -5.1700435950   -0.0127800741
 O   -4.0913331430   -4.6217386868    0.8660431076
 H    0.9545535849    2.0303415825   -0.2216216069
 H   -0.4221311641    1.7533181013   -1.2967222287
 H   -0.6954171163    2.1405860804    0.4052116405
 H    0.6655885911   -0.4262713695   -0.6193728320
 H    0.3969098254   -0.0408538773    1.0698446214
 H   -2.0868119230   -0.0405652249    0.6738171720
 H   -1.8190989304   -0.4335433046   -1.0143237772
 H   -0.6916455423   -2.5735078410   -0.3370099972
 H   -0.9691654329   -2.1876988240    1.3521230277
 H   -3.4971419935   -2.2187577731    0.9092894799
 H   -4.3660323407   -3.0364221477   -1.2580598747
 H   -2.6666596826   -3.2306821963   -1.9085996564
 H   -1.0369025675   -4.7831725619   -0.5901779945
 H   -1.5188888251   -5.4582527325    0.9798178103
 H   -2.2334585367   -6.0778099621   -0.5182049340
 H   -4.5005171180   -5.3484449287    0.3824437319