19

 C   -0.7506246431    1.2333020725   -0.0736008663
 C    0.1986545750    0.0409814533    0.0065418586
 C    1.2413790163   -0.0119141952   -1.1443168824
 N    2.3598118919   -0.6646983798   -0.4927659122
 N    3.4834821246   -1.1828591525   -1.0088364798
 C    4.1711762814   -1.5567146695    0.0754807991
 C    3.4886907599   -1.2653646878    1.2804789435
 C    2.3100786336   -0.6797527834    0.8597128270
 C    1.0459554407   -0.0214370202    1.3191829430
 H   -0.1991381887    2.1787983384   -0.0230078413
 H   -1.3216010992    1.2275220925   -1.0079538740
 H   -1.4676596804    1.2192851313    0.7533006356
 H   -0.3865817666   -0.8841443474   -0.0462570961
 H    0.9005051119   -0.5845653793   -2.0102460761
 H    1.5261831076    0.9917298014   -1.4868763027
 H    5.1342905001   -2.0318504532   -0.0447806525
 H    3.8108085042   -1.4624609509    2.2897518937
 H    1.2436989151    0.9888903635    1.7022101767
 H    0.5283891957   -0.5675525837    2.1127641561