20

 C    0.1179917964    1.5627271995    0.3351960050
 C   -0.0141020378    0.0893683943    0.0040184733
 C    0.9119353850   -0.5122704373   -1.0233637976
 C    1.0785198948   -0.8545831179    0.4401050932
 C   -1.4378399780   -0.4150682943    0.0698740165
 C   -2.4058459548   -0.0542668585   -1.0850375533
 C   -2.5877402646   -1.5776839147   -1.2130117041
 O   -1.5679913953   -1.8279063893   -0.2214651621
 H    1.1631338875    1.8822650489    0.2854301802
 H   -0.4520247461    2.1856878439   -0.3647315248
 H   -0.2483803082    1.7785036203    1.3461911912
 H    0.5202565741   -1.2940083819   -1.6642211596
 H    1.6447693124    0.1374563745   -1.4901105060
 H    1.9247438022   -0.4397628975    0.9778532175
 H    0.7874107274   -1.8532513620    0.7443880950
 H   -1.8552185464   -0.1925639304    1.0642965911
 H   -3.2930972558    0.5206940835   -0.8169325897
 H   -1.9105731884    0.4133338301   -1.9381548327
 H   -3.5657731648   -1.9562327593   -0.8893081397
 H   -2.3362183095   -2.0268858618   -2.1805154732