13

 O    0.0788865682    1.3763729436    0.1044083896
 C    0.0609319076    0.0497973662   -0.0206839078
 N   -0.0015780363   -0.5209524138   -1.1966206841
 O    0.0030852426   -1.9054878122   -0.8478721995
 C    0.0673327917   -1.9510679280    0.4742494856
 N    0.0895897690   -3.1392903152    1.1466223461
 C    0.0539678972   -4.4380506941    0.6510302678
 N   -0.0086240109   -4.7127329066   -0.5823423081
 N    0.1065999119   -0.7833854114    1.0645698441
 H    0.1267548315    1.5719095160    1.0478888683
 H    0.1394685050   -3.0239447216    2.1464846119
 H    0.0879377797   -5.1571095632    1.4772233093
 H   -0.0242354870   -5.7209000597   -0.7202779532