18

 C   -1.1610946095    1.0330880554   -0.0892741055
 C   -0.1272591887    0.0969523838    0.5235538684
 O    0.1119758078   -1.0589957525   -0.2874051772
 C   -0.7857829689   -2.0549312816   -0.2016289823
 C   -1.9196707938   -2.2761143216    0.5591455465
 C   -2.3534332597   -3.5648832547    0.1428575607
 N   -3.4283181942   -4.2871771559    0.6655796519
 N   -1.5749115269   -4.0908262291   -0.7919964721
 N   -0.6067248948   -3.1390717743   -0.9835873987
 H   -1.2795638070    1.9192564084    0.5424639725
 H   -0.8417181928    1.3579499183   -1.0834948604
 H   -2.1333491403    0.5426777386   -0.1809127270
 H    0.8461943689    0.5889506001    0.5952405392
 H   -0.4194909945   -0.2213122999    1.5316103386
 H   -2.3582512780   -1.6355971303    1.3044769774
 H   -4.2536858141   -3.7207770481    0.8104718646
 H   -3.6487896470   -5.0828534209    0.0792301072
 H    0.1365714736   -3.2958161059   -1.6401676238