21

 C   -0.0284265542    1.5020078604    0.0786951050
 C    1.3421239826    0.8517568629   -0.0137041298
 C    2.2273257361    0.2424087605    1.0796634787
 C    1.5572919887   -1.1465919854    1.2922135061
 C    0.0803479938   -0.7561126670    1.2777702283
 C    0.0694415347    0.0110306516   -0.0512100865
 C   -0.0021099967   -0.9694549182   -1.1985454832
 C    1.3303457352   -1.7709454821   -1.0914549489
 O    1.7706968784   -2.0885878601    0.2336641455
 H   -0.4007248313    1.8876693633    1.0240807328
 H   -0.3081908416    2.1073506622   -0.7795014438
 H    1.8328101778    1.0321764294   -0.9651291721
 H    3.2632970834    0.1522029656    0.7421959603
 H    2.2367579538    0.7962641766    2.0264262988
 H    1.9061664662   -1.6655799260    2.1904313953
 H   -0.5834832960   -1.6237905240    1.2748440573
 H   -0.1751734812   -0.1221766218    2.1325001003
 H   -0.8753704658   -1.6274022498   -1.1211517565
 H   -0.0376246290   -0.4850068364   -2.1807960564
 H    1.2577928527   -2.7359316422   -1.6036301473
 H    2.1107429524   -1.1868205693   -1.6000739939