18

 C    0.2877540061    1.5756646687    0.3453739305
 N    1.2546979472    0.5851027698   -0.1542269395
 C   -0.1272159588    0.1654326045    0.1427281654
 C   -0.2746591639   -0.7804739062    1.2992406024
 O   -1.6463851604   -0.8590681235    1.7734718080
 C   -1.6950353503   -2.2965663181    1.6288362140
 C   -0.2977888058   -2.2866765522    1.0221052269
 C    0.3275100649   -3.0863191193   -0.0282614960
 O    0.7311206346   -3.1880065436    1.3484622735
 H    0.4858190952    1.9386424825    1.3500971246
 H   -0.1008949716    2.3236572373   -0.3400435391
 H    1.3762932876    0.6918301579   -1.1573551772
 H   -0.7935246254   -0.0380385403   -0.6936338894
 H    0.4242049756   -0.5074874356    2.1008936586
 H   -1.7576357469   -2.8141031741    2.5943461638
 H   -2.5210083210   -2.6205198603    0.9844713060
 H   -0.1901482228   -3.9575849249   -0.4276061263
 H    1.0593868357   -2.6278593826   -0.6910290063