15

 C   -0.0347786029    1.4955901773   -0.0190658723
 C   -0.0517071879    0.0010720879    0.0161117373
 C   -1.1482478299   -0.7669038324   -0.1093242515
 C   -1.0232816444   -2.2039473550   -0.0528995663
 N   -2.1538094735   -2.9808986358   -0.2588819534
 N    0.0989864478   -2.8287487411    0.1276763936
 O    1.2470881983   -2.0369199782    0.2165522035
 C    1.2494961706   -0.6658601911    0.1887927037
 O    2.3031696185   -0.0901133321    0.3002883549
 H    0.6155653324    1.8477350992   -0.8262169994
 H   -1.0378981933    1.9045538110   -0.1579024679
 H    0.3930854397    1.8912035616    0.9078028523
 H   -2.1319491278   -0.3321845074   -0.2634983032
 H   -2.9980416512   -2.6294764804    0.1702021880
 H   -1.9989378064   -3.9612665234   -0.0623492992