20

 C   -0.0581521706    1.5615560926    0.1402335499
 C    1.5149044348    1.5394969839   -0.1442962859
 C    1.2286698699    0.1582010491   -0.7949662525
 C   -0.0335063122   -0.0074505222   -0.0248957787
 N   -0.2880409855   -0.9957463034   -1.2196671632
 C    0.3759370900    0.0804738056   -2.0985816618
 C    1.1227519785   -0.6440810206   -3.2115531809
 C    1.7465959290   -1.7991507262   -2.3830195852
 C    1.2257116762   -1.4054362221   -1.0113554296
 H   -0.3617893915    1.9084312188    1.1305375201
 H   -0.6141949488    2.1241522353   -0.6100617421
 H    1.9319286292    2.3340335563   -0.7697937349
 H    2.0849094656    1.4766831404    0.7870954629
 H   -0.0244939763   -0.5345312874    0.9324346587
 H   -0.2786713130    0.9023099251   -2.3895673564
 H    0.4372861585   -1.0027435010   -3.9847098434
 H    1.8686517250   -0.0029864479   -3.6911038151
 H    1.3808561281   -2.7838033017   -2.6864397966
 H    2.8396109156   -1.8189444675   -2.4120445483
 H    1.4045158975   -2.0593845670   -0.1563058470