18

 C    0.1772523322    0.7219867813   -0.5099724155
 N   -0.5216610412    0.3425306038    0.7168491572
 C   -1.6891184960   -0.4778363783    0.4930913662
 C   -1.3939130965   -1.9121729592    0.0564801006
 O   -0.3154327107   -2.4432232829    0.1146782096
 O   -2.5256178173   -2.5238980188   -0.3760466764
 C   -2.4243683344   -3.8968773418   -0.7648918105
 C   -3.2815587537   -4.7517599931    0.1511838930
 O   -3.6674495672   -5.8507386188   -0.1412298968
 H    1.0607443660    1.3111854983   -0.2495298633
 H    0.5019222622   -0.1284665373   -1.1295330645
 H   -0.4777432575    1.3583740277   -1.1158685916
 H    0.1191401302   -0.1607963890    1.3218356567
 H   -2.2845201953   -0.5479475663    1.4136143202
 H   -2.3418304939   -0.0120029185   -0.2529206321
 H   -2.7665397226   -3.9969831670   -1.7980747469
 H   -1.3806519908   -4.2235358337   -0.6954826183
 H   -3.5124727937   -4.2753636663    1.1305840622