15

 C    0.0933422437    1.5093853970   -0.1031381559
 C    0.0383979489    0.0568600010   -0.0419825658
 C   -0.0119864994   -1.1447554270    0.0191002649
 C   -0.0457333406   -2.5817080959    0.0479820312
 N   -0.3435085762   -3.2491442298    1.3207250857
 C   -1.3210613933   -3.3774415141    0.2272468753
 C   -2.6194783422   -2.6787121803    0.4484530755
 O   -3.6493581737   -3.0069130553   -0.0843162657
 H    0.9107677396    1.8467052515   -0.7495678153
 H   -0.8389045380    1.9264777646   -0.4992882631
 H    0.2558667278    1.9398596549    0.8909149300
 H    0.6769808380   -3.0643495802   -0.6081029501
 H    0.1969607929   -4.1060712969    1.4050247363
 H   -1.3957461935   -4.3093313431   -0.3275362002
 H   -2.5562594241   -1.8235754463    1.1529954173