17

 C    0.5268346620    1.4767714829    0.1998857211
 O    1.1974662337    0.2908584203   -0.2406190479
 C   -0.2030041191    0.2154534063    0.0185691312
 C   -0.5958890360   -0.6449916457    1.1695874815
 C    0.3426715285   -1.0022750886    2.3052470457
 C   -0.2032772003   -2.0733433748    1.3768344036
 O   -1.3667731359   -2.7659423519    1.7513151519
 C   -2.3204023675   -1.7842620880    2.1108787238
 O   -1.9759379126   -0.5763673095    1.4515311593
 H    0.7781615531    1.8042278838    1.2068527395
 H    0.4371440391    2.2635177091   -0.5467473358
 H   -0.8325966967    0.0988802429   -0.8640575683
 H    1.3830838610   -0.7403001371    2.1464263185
 H   -0.0048962526   -0.9423375442    3.3304229349
 H    0.4387936268   -2.6487411267    0.7230192463
 H   -3.3150780482   -2.1054014389    1.7859802816
 H   -2.3152344454   -1.6296970099    3.2018999331