19

 C    0.3062550197    1.6806510652    0.0905403776
 C    0.1518269057    0.1667856947    0.0146251193
 C    0.6290594247   -0.6642037982   -1.2268478164
 C    1.7899271209   -0.1153587985   -2.0771698809
 C    3.0534617980   -0.5687919931   -1.3178070786
 O    2.7038972908   -1.8065396939   -0.6969459246
 C    1.3647714534   -1.6863118993   -0.2894288302
 C    1.0906746513   -0.6902360629    0.8832501273
 O    1.5550931109   -0.5498895291    1.9766721774
 H    1.3379419784    1.9923028686   -0.0998257867
 H   -0.3402638573    2.1850725914   -0.6342678839
 H    0.0384293812    2.0338288603    1.0905664393
 H   -0.8849517859   -0.1104037698    0.2475884023
 H   -0.1821315230   -1.0557935060   -1.8394699899
 H    1.7644489218   -0.5824917612   -3.0655981892
 H    1.7573343903    0.9674418882   -2.2208106763
 H    3.9147950250   -0.7535096507   -1.9634356951
 H    3.3453008635    0.1704495170   -0.5562161577
 H    0.9373172407   -2.6833897526   -0.1579498937