17

 C   -0.0140213128    1.5347177315    0.0053399601
 O    1.3014302260    2.0778809155   -0.0635347697
 C    2.1269134115    1.4765345083   -1.0570835328
 C    2.0509937594   -0.0533725528   -0.9673600584
 O    0.6806723293   -0.4155715024   -1.1778917178
 C    0.0365486799    0.0013743640    0.0322941026
 C    1.0029597251   -0.4685897322    1.1189466925
 O    1.6350035873   -1.7135753971    0.8163074909
 C    2.3118070568   -0.5041581464    0.4694383916
 H   -0.4660728418    1.9518330510    0.9112851559
 H   -0.6135457011    1.8456144260   -0.8636357690
 H    1.8108735547    1.7797291766   -2.0667356523
 H    3.1391124682    1.8538535181   -0.8777618214
 H    2.6550139894   -0.5464697483   -1.7333334656
 H   -0.9593248998   -0.4482417770    0.0602610560
 H    0.8485431476   -0.2295761860    2.1663690373
 H    3.2491141502   -0.2948199987    0.9751038902