17

 O    0.2899412753    0.5363159634    0.9779089230
 C    0.4052602844    1.6909118527    0.6934964733
 O    0.7767471467    2.0968551924   -0.5392295601
 C    0.9272764180    3.5139869794   -0.7309205613
 C    2.3113050322    3.9650915843   -0.3417537855
 C    2.6815834446    5.3919033522    0.0299728858
 C    1.6034325065    6.0151466111    0.9113521852
 O    1.5958566127    4.8566526116    1.7920923162
 C    2.6953044943    4.2913600015    1.0705985147
 H    0.2203442932    2.5330709763    1.3866373170
 H    0.7406334025    3.6824575707   -1.7939051196
 H    0.1638342289    4.0476600487   -0.1572733730
 H    3.1088456754    3.4670975005   -0.8886999049
 H    3.4941194015    5.9256278325   -0.4431756398
 H    1.9585845759    6.8972118907    1.4543352887
 H    0.6187527077    6.2230385707    0.4777241003
 H    3.4857226603    3.8171637312    1.6401407301