20

 C    0.0867366991    1.5728842095   -0.0076539729
 C    0.0174288674    0.0443512855   -0.0070621353
 C   -1.4224811474   -0.4884835113    0.0357683282
 O   -2.1948222205   -0.0075837524   -1.0539758743
 C   -1.4679239243   -2.0175607201    0.1001579623
 C   -2.8613530081   -2.6993589829   -0.0311488938
 C   -2.2688743569   -3.4258629668   -1.2581205515
 O   -2.6087649251   -4.3023780822   -2.0019119457
 N   -1.1003271819   -2.6810395886   -1.1714412680
 H    1.1194348636    1.9228943459   -0.0946507361
 H   -0.4899949848    1.9804243061   -0.8415168093
 H   -0.3297280784    1.9850462202    0.9181145181
 H    0.5087368350   -0.3504545669   -0.9079423783
 H    0.5709856102   -0.3600776968    0.8506119270
 H   -1.9181572522   -0.1018147473    0.9364128753
 H   -1.8994790786   -0.4933832682   -1.8350628391
 H   -0.8882824122   -2.3806397166    0.9565970334
 H   -3.1471772684   -3.3657883784    0.7836479040
 H   -3.6747167694   -2.0128679191   -0.2682229325
 H   -0.1875657670   -2.9160161295   -1.5378489815