20

 C   -0.2240015330    1.3440827525   -0.3298340021
 O   -0.0924501698   -0.0466080517   -0.1469071408
 C    0.7778005776   -0.6471566199   -1.0784762941
 C    0.8169588685   -2.1349218350   -0.7964546083
 C   -0.4977985079   -2.9077621505   -1.1209667499
 N    0.2503618562   -3.6534266562   -2.1373654420
 C    1.5315672916   -3.0001469025   -1.8783883147
 C   -0.0654477630   -4.6298101319   -3.0125039385
 O    0.7206610788   -5.1432224050   -3.7838502950
 H    0.7401547806    1.8636216864   -0.2146538343
 H   -0.6282766582    1.5884028461   -1.3247211966
 H   -0.9156023158    1.7099226388    0.4325754888
 H    0.4272405889   -0.4658848957   -2.1105722559
 H    1.7918248866   -0.2171853378   -1.0021455804
 H    1.1776167324   -2.3074455991    0.2186678242
 H   -0.8891589532   -3.5271006636   -0.3070673647
 H   -1.3079865359   -2.2849855238   -1.5154569525
 H    1.9286921310   -2.4505381995   -2.7396774160
 H    2.3064205761   -3.6802951002   -1.5111698298
 H   -1.1371410413   -4.9123339415   -2.9479485576