16

 N   -0.1176008505   -1.1762631190   -0.0722088559
 C   -0.0737595722   -0.0223012217   -0.0205893291
 C   -0.0000168806    1.4295247022    0.0189459228
 C   -0.2347293090    2.1198465329    1.3900211317
 O    0.7955319659    1.7054895870    2.2742811721
 C    1.0900384941    2.7574259258    1.3393347454
 C    1.4137286982    2.0966431643    0.0156466551
 C    2.7140869839    1.5285643639   -0.4520538333
 C    2.0932081824    2.7043788103   -1.1737342342
 H   -0.6416042714    1.8556263324   -0.7581278243
 H   -1.1806385377    2.4393696506    1.8092848576
 H    1.4377937396    3.7016901537    1.7403538793
 H    3.5931071838    1.7000219766    0.1595829438
 H    2.6867389695    0.5589046514   -0.9377844877
 H    1.6569946167    2.5350545549   -2.1527226589
 H    2.5486748173    3.6820274546   -1.0521116644