16

 C    0.0856858265    1.4471064066   -0.0375372491
 N    0.0034408236   -0.0109193138   -0.0107210757
 C   -0.1199183099   -0.6287367558    1.2367632450
 O   -0.1476960550   -0.0196487822    2.2792752636
 C    0.0699541258   -0.7975406088   -1.1718510798
 N    0.2375038853   -2.0522587394   -1.0922649558
 C   -0.0973901316    0.0040824891   -2.4711918217
 C   -0.0599062022   -0.8470461918   -3.6536036770
 N   -0.0280419770   -1.5359068804   -4.5800222915
 H    1.0258543268    1.7872689858   -0.4823272343
 H   -0.7527255789    1.8944712190   -0.5798122428
 H    0.0475299536    1.7766488446    1.0000775855
 H   -0.1951130143   -1.7184937478    1.1466525933
 H    0.2200557095   -2.4965763501   -2.0079761970
 H   -1.0482981258    0.5490664395   -2.4547507213
 H    0.6896373035    0.7613844356   -2.5569148813