18

 C    0.0023104053    1.4457561936    0.0249640274
 C   -0.0779645671   -0.0441874069   -0.0472119838
 C    0.5025550260   -0.9269802783   -1.0937049784
 N    1.0683164759   -0.9589555344    0.3028120779
 C   -0.0025352569   -2.0184119048    0.5867700702
 C   -1.1747358506   -1.0170852316    0.4776416956
 O   -1.7427745338   -1.6945064423   -0.6629081763
 C   -0.3951199114   -2.1832736632   -0.9130952344
 C   -0.2973971971   -3.3859398813   -1.7981946851
 H    0.9604908892    1.7979959185   -0.3685629019
 H   -0.8002810072    1.9052811494   -0.5625356405
 H   -0.0855456724    1.7984112486    1.0580389706
 H    1.0813961326   -0.5922648150   -1.9464591137
 H    0.1517076919   -2.8006112366    1.3271229821
 H   -1.8926531109   -0.7177969190    1.2388492888
 H   -0.6516864546   -3.1457873058   -2.8065060894
 H    0.7417417600   -3.7207360607   -1.8704231978
 H   -0.9056997290   -4.2056286503   -1.4064283914