20

 C   -0.0021543601    1.3740618380   -0.1037904106
 O    0.0236428134   -0.0358512308   -0.0906281372
 C   -1.2667069181   -0.6173334133    0.0152491232
 C   -1.1469354979   -2.1404050416   -0.0343252813
 C   -2.5323064644   -2.7684586084    0.1270310555
 O   -2.3650387485   -4.1681473249    0.2888480722
 C   -0.4668999930   -2.6258579134   -1.3275075327
 O    0.9153680903   -2.3438201286   -1.3758963164
 H    1.0311061804    1.7200035960   -0.1782800136
 H   -0.5737860463    1.7619969870   -0.9606884932
 H   -0.4475572867    1.7746725737    0.8192674662
 H   -1.7421443049   -0.2932504542    0.9560850854
 H   -1.9036100566   -0.2587276979   -0.8128685731
 H   -0.5289701829   -2.4689531124    0.8104181579
 H   -3.0415623534   -2.3280278873    0.9997329750
 H   -3.1490093311   -2.5416447098   -0.7589981354
 H   -3.2346523139   -4.5778909758    0.2963295145
 H   -0.5737962192   -3.7116396562   -1.3944476219
 H   -1.0023865794   -2.1895145172   -2.1922121819
 H    1.0092812322   -1.4172699027   -1.1202608128