17

 O    0.0542610524    1.4044054235    0.0975813762
 C    0.0398647469    0.0147512402    0.0743780138
 C   -0.3505560028   -0.8385898093    1.2739090645
 C   -1.5048796623   -0.1486807271    1.9830280844
 O   -2.2387551576    0.0058356678    0.7283779605
 C   -1.2358367487   -0.7606043623    0.0292732454
 C   -1.7156201349   -1.7421205173   -0.9996194527
 C   -2.3698987362   -1.0547789145   -2.1884703570
 O   -2.1324200116   -1.3225240472   -3.3370286381
 H   -0.8700216910    1.6834773894    0.1504611226
 H    0.8607385795   -0.3943304988   -0.5081265260
 H    0.2581174540   -1.6423664775    1.6666586345
 H   -2.0644418487   -0.7936968379    2.6669117690
 H   -1.2957885811    0.8152405541    2.4589593426
 H   -0.8906638135   -2.3600360006   -1.3640053477
 H   -2.4669515111   -2.4015179194   -0.5414634966
 H   -3.1118313232   -0.2722133929   -1.9172898753