15

 C    0.0369476220    1.5310665827    0.1035124686
 N   -0.0109497685    0.0644717885   -0.0190285292
 C    0.0402085111   -0.6838398045    1.1734454140
 O    0.1197221637   -0.1851446182    2.2666544696
 C   -0.1021620258   -0.6449252582   -1.2055125945
 O   -0.1388086997   -1.8618153918   -1.2474499717
 C   -0.1586618962    0.1483939476   -2.5419572630
 N   -0.2468942565   -0.7082856673   -3.5799224033
 O   -0.1266825581    1.3598639459   -2.6301225602
 H    0.9024187591    1.9339539616   -0.4199849528
 H   -0.8598867917    1.9828209674   -0.3171706315
 H    0.1050252051    1.7399070473    1.1702893672
 H   -0.0009532485   -1.7621158306    0.9819930245
 H   -0.2646844094   -1.6984836508   -3.3964198168
 H   -0.2906495367   -0.3443099895   -4.5162517309