15

 O   -0.3216041662    1.4319805664   -0.0546642785
 C   -0.1241044504    0.0679285188   -0.0594985653
 C   -0.4071220961   -0.8505906205   -1.2105366114
 C   -1.1787488120   -1.0045428789    0.0900352852
 C   -0.3027385042   -1.6776008828    1.1829265991
 O    0.9823104196   -1.9982838064    0.6764352977
 C    0.7467651775   -0.6378774986    1.0516979003
 C    1.5442274813    0.0060498886    2.1146968715
 O    2.2983014939   -0.5777212072    2.8538905221
 H    0.3451811769    1.8400145965   -0.6200161640
 H   -0.9938598071   -0.3833808461   -1.9952803986
 H    0.3021891391   -1.6032404108   -1.5315085905
 H   -2.2523976106   -0.8995726661    0.1557903552
 H   -0.6375568598   -2.1952873783    2.0739894723
 H    1.3696704183    1.1001465756    2.1919513449