17

 N    0.0022612397   -1.1515709833    0.0410694793
 C   -0.0126465795    0.0048814193    0.0503956790
 C   -0.0378142142    1.4523963692    0.0449298866
 C   -0.3187009642    2.1650428832   -1.3099582182
 N    0.7672817407    3.1220081102   -1.0012374714
 C    1.3196651970    2.2308458957    0.0479637736
 C    1.4344247696    2.8433441586    1.4560550738
 O    0.3190393581    2.3519759565    2.1956043377
 C   -0.7270410078    2.0719367784    1.2884166938
 H   -0.1231353359    1.5035028461   -2.1614174186
 H   -1.3100729947    2.6160652125   -1.4242375557
 H    1.3924969967    3.3246364450   -1.7719220654
 H    2.1938148749    1.6441964480   -0.2498847709
 H    2.3387190578    2.5396212833    1.9905282448
 H    1.4074270494    3.9385306107    1.3737465340
 H   -1.2560929514    2.9875998153    0.9843227042
 H   -1.4289348160    1.3959270312    1.7802022733