20

 C   -0.1486088072    1.4822165270   -0.0141417969
 C    0.0191556743   -0.0273536880   -0.0918397863
 O    1.1095133545   -0.5538782198   -0.2520578712
 N   -1.1260250366   -0.7503710012    0.0381214796
 C   -1.1425938177   -2.2004767279   -0.0378617576
 C   -2.4058696235   -2.7033928330    0.6795700642
 O   -3.5737987554   -2.0337073623    0.2340177344
 C   -1.0509654540   -2.7078295298   -1.4813276949
 O   -2.2504562227   -2.3428115917   -2.1708259243
 H    0.4891882173    1.8651485442    0.7867517544
 H    0.2032664945    1.9251343965   -0.9499304468
 H   -1.1786250968    1.7996375178    0.1661504134
 H   -2.0278565802   -0.3034114835    0.0933979677
 H   -0.2526104012   -2.5751948098    0.4795629771
 H   -2.4852813112   -3.7937473254    0.5507769027
 H   -2.3244251455   -2.4990516379    1.7517226092
 H   -3.6031632873   -2.1659581560   -0.7244454935
 H   -0.1692096519   -2.2648608068   -1.9586761237
 H   -0.9280310011   -3.8013516929   -1.4667793231
 H   -2.1965665387   -2.6576623094   -3.0771321443