15

 N   -0.0204306195    1.6099476318   -0.0596128422
 C    0.0352438915    0.3513650443   -0.0984194355
 N   -1.0812680663   -0.4829820100   -0.0819829830
 C   -2.4231694722   -0.1374981815   -0.0228868144
 O   -2.8852896459    0.9679469359    0.0262109777
 O    1.1282054543   -0.4769610708   -0.1625696251
 C    2.4068835991    0.1287532134   -0.1915363284
 C    3.4416564590   -0.9844428512   -0.2617311399
 O    4.6219816705   -0.7724746838   -0.2987793372
 H    0.8950419108    2.0487616009   -0.0802703537
 H   -0.8677479589   -1.4679952867   -0.1185091813
 H   -3.0393621522   -1.0597928538   -0.0272561968
 H    2.5229340570    0.7824046237   -1.0667566477
 H    2.5876980420    0.7305880067    0.7094875251
 H    3.0094289007   -2.0080929690   -0.2756170975