19

 O    0.1527384456    1.4128287140    0.0707146338
 C    0.0423539314    0.0001776630    0.0011926968
 C   -1.4183323823   -0.5473529837   -0.1148665688
 C   -1.1396886253   -1.9256275940   -0.7596159433
 C   -0.4366283163   -1.3226570373   -2.0006659940
 C   -1.4483187593   -0.2623539078   -2.4066730479
 C   -2.0470114169    0.1833195821   -1.2955470905
 C    0.7399481435   -0.5830698261   -1.2908331106
 O    1.3222243261    0.4187562746   -2.0873138140
 H   -0.4569490180    1.7691127591   -0.5891418772
 H    0.5246768623   -0.3723613897    0.9078464564
 H   -1.9763391260   -0.5267819581    0.8213085022
 H   -0.4873888936   -2.5685603519   -0.1578398840
 H   -2.0554693158   -2.4663530934   -1.0082170745
 H   -0.1194430206   -2.0088620728   -2.7857690575
 H   -1.5828824539    0.1006634822   -3.4171593448
 H   -2.7788942306    0.9778809508   -1.2146170166
 H    1.5013319689   -1.3219601553   -1.0016017880
 H    1.4246023809    1.1856607544   -1.5053900075