17

 N    0.4142233969    0.8886126972   -0.5111146872
 C   -0.0747062358   -0.0001720175    0.3885712454
 O    0.3809603192   -0.1357762552    1.5098909524
 C   -1.2697245313   -0.8542577328   -0.0145475624
 C   -2.0539977050   -0.9722547851   -1.2701196023
 C   -1.2725919243   -0.9133190208   -2.5657377264
 O   -0.8855736753    0.3843106660   -2.9964743765
 C   -0.2623797795   -1.9062887500   -1.9302417917
 N   -1.1857245546   -2.1308033336   -0.7559762833
 H    1.1936599020    1.4538491397   -0.2152767610
 H    0.0181120796    1.0036007377   -1.4352229875
 H   -1.8805766277   -1.0070886355    0.8718187460
 H   -3.1380606462   -1.0154811659   -1.2279620065
 H   -1.8411514945   -1.4078729135   -3.3613147643
 H   -0.4269815815    0.3061791575   -3.8398397539
 H   -0.1335433411   -2.8356076578   -2.4870112495
 H    0.7142513791   -1.4968137203   -1.6633220012