21

 C   -0.0169406141    1.4137326802    0.1031060037
 C    1.2794502466    0.6327794023    0.0504477475
 C    2.2323644893    0.5778121637    1.2388050455
 O    1.6593463619    0.1022832274    2.4387518073
 C    1.8051197229   -1.2901306509    2.6606793748
 C    1.3157524353   -2.2047403281    1.5310070009
 C   -0.1764451079   -2.0859513571    1.2125633603
 O   -0.6309767956   -0.7571997810    1.0259620507
 C   -0.0648751462   -0.0740577804   -0.0436181944
 H   -0.3154942845    1.7732335810    1.0825060849
 H   -0.2966618441    2.0493844265   -0.7295066520
 H    1.8133971124    0.6895295088   -0.8965400606
 H    3.1166406160   -0.0222913291    0.9705220466
 H    2.5930019179    1.5922531911    1.4519680554
 H    2.8647887942   -1.5224780604    2.8624783085
 H    1.2425318042   -1.4928312773    3.5789133575
 H    1.9106921302   -2.0329042140    0.6278428911
 H    1.5168148168   -3.2418550032    1.8293481062
 H   -0.4146827321   -2.7023658804    0.3291667402
 H   -0.7704095233   -2.4673733444    2.0503634463
 H   -0.3200645100   -0.4945812748   -1.0194367505