13

 N    0.7414524361   -0.0281360535    0.7641120904
 C   -0.1514651139    0.0973047587   -0.2268127505
 O   -0.0902681746    0.8600258640   -1.1709568984
 C   -1.4217460652   -0.8312737851   -0.1329264868
 O   -2.1626540254   -0.6766057281   -1.2971041168
 C   -0.9941074122   -2.3146208451    0.0054929524
 O   -0.2882625870   -2.7246642515    0.8857404844
 C   -2.1933870648   -0.4566568063    1.0703058319
 N   -2.7996802624   -0.1773780670    2.0135015287
 H    1.5862314874    0.5201852139    0.7280367249
 H    0.6702863947   -0.7970330217    1.4151181237
 H   -1.7438490301    0.0788178606   -1.7551806351
 H   -1.3999095128   -2.9451262591   -0.8088852289