18

 O   -0.0092679137    1.4041920094    0.0748795760
 C    0.0130753248   -0.0001599505   -0.0310404948
 C   -1.3651625478   -0.6426087945    0.0663309932
 C   -2.2402703808   -0.1665140519   -1.0556685249
 C   -1.2150806250   -1.2262384959   -1.3477176586
 C    0.1881093319   -0.6269577635   -1.4714743762
 C    0.4750886615    0.3331756902   -2.6374386261
 C    1.7304618156    1.0524966074   -2.4273672515
 N    2.7218187795    1.6050257729   -2.2051953690
 H    0.8960596727    1.7300407948    0.0125800245
 H    0.7271847137   -0.4417929855    0.6738839545
 H   -1.7706536230   -1.1087715235    0.9551212474
 H   -3.2642526537   -0.5232557267   -1.0189258127
 H   -2.1391310399    0.8471975580   -1.4296673858
 H   -1.4963791035   -2.2122566363   -1.6962683222
 H    0.9591096588   -1.4015465046   -1.4494363643
 H    0.5319566630   -0.2178184538   -3.5827255905
 H   -0.3257345740    1.0708642240   -2.7387527789