19

 C    0.0554834399    1.4479116861    0.1562516161
 C    0.0125404688   -0.0428608625    0.0363058828
 C   -0.0284138240   -0.7770414379   -1.0824602858
 C   -0.0153254528   -2.2409622202   -0.8167455647
 C    1.2400025634   -2.7586004094   -0.1442643142
 C    0.0498753810   -2.3582004349    0.6978222910
 C   -0.0172273755   -0.9431252189    1.2770248948
 C    1.1190490926   -0.6271866827    2.2368112972
 O    0.9980780021    0.0081980311    3.2528849821
 H    0.9631224967    1.7915106240    0.6670355248
 H    0.0182954530    1.9253009153   -0.8263725213
 H   -0.7880919189    1.8183348085    0.7521134931
 H   -0.0497466817   -0.3620485280   -2.0846137707
 H   -0.6056833291   -2.9156790463   -1.4264102364
 H    1.4453811206   -3.8224158138   -0.2052890171
 H    2.1205885661   -2.1267202602   -0.1788013313
 H   -0.4774501276   -3.1474770295    1.2194236242
 H   -0.9452014835   -0.7751889007    1.8387856686
 H    2.1103838788   -1.0226896598    1.9212366068