15

 N    0.1612369417    1.1439027090    0.1884389459
 C   -0.0158573681   -0.1043175553    0.0599757313
 N   -1.2766401250   -0.6784381652   -0.0018536217
 C   -1.6641836881   -2.0923264500   -0.1731002386
 C   -3.1417544285   -1.6494623658   -0.0984911911
 C   -3.9353918898   -2.1253735447    1.0936659493
 O   -3.5039875360   -2.8646616205    1.9408463837
 C   -2.5836572487   -0.1917802469    0.0592275246
 O   -3.0624102712    0.8923130910    0.1827821571
 H    1.1571446600    1.3557597644    0.2168987460
 H    0.7681513191   -0.8685533446   -0.0162212600
 H   -1.3545196909   -2.5163699620   -1.1315938219
 H   -1.3614221191   -2.7372553148    0.6541974666
 H   -3.7294838981   -1.7560682489   -1.0142960444
 H   -4.9655276573   -1.7159640956    1.1483254833