11

 N    0.1181886250    1.4192997954    0.1537149622
 C   -0.0138548025    0.0381209737    0.0160876751
 C   -1.0691304102   -0.7882536866   -0.0476039125
 O   -0.6269444102   -2.1078007917   -0.0570770470
 C    0.7460489872   -2.1104752121   -0.0080600014
 O    1.4336967216   -3.0937745363    0.0150751761
 N    1.1195549796   -0.7773166179    0.0039982914
 H    0.6433640279    1.8416440399   -0.6059981079
 H   -0.7822831952    1.8759256338    0.2247433475
 H   -2.1305508040   -0.6254462492   -0.0881835405
 H    2.0552496509   -0.4869624689    0.2300164767