20

 C   -0.0168692586    1.5104866345    0.0132783268
 C    1.3664848433    2.1863616506    0.0084847827
 C    2.2316057188    1.8885876888    1.2481191403
 C    2.8886519786    0.5240824262    1.1712376800
 O    2.8516558823   -0.3225200489    2.3268010743
 C    2.0975019371   -0.7125143376    1.1724231093
 C    0.5833117935   -0.6877574253    1.2505887152
 C   -0.0507186295   -0.0287811429    0.0106077415
 H   -0.5740583408    1.8678063348    0.8910310788
 H   -0.5747839390    1.8665905329   -0.8616357800
 H    1.9173615542    1.8976350753   -0.8974153390
 H    1.2125952071    3.2694084062   -0.0654281621
 H    3.0086651348    2.6541526554    1.3526542250
 H    1.6210273476    1.9395904690    2.1558011826
 H    3.8457019312    0.5031582009    0.6461221561
 H    2.5171676609   -1.5733908584    0.6481131319
 H    0.2140109556   -1.7139961787    1.3568413738
 H    0.2818852503   -0.1535380668    2.1578073299
 H   -1.0986099001   -0.3430932967   -0.0619664246
 H    0.4415234625   -0.4091567495   -0.8952042226