21

 C    0.1213869376    1.5750541538    0.0218768247
 C    0.0284429993    0.0415896724    0.0683922396
 C    0.7322941173   -0.5099260663    1.3164093984
 C   -1.4267456110   -0.4764506699    0.0189049642
 O   -2.2019397534   -0.0178235125    1.1134390456
 C   -2.1539669214   -0.1744314266   -1.3285053280
 N   -1.5273975044   -0.6895078127   -2.5457357983
 C   -3.5338451061   -0.6868676940   -1.2590791819
 N   -4.6071795133   -1.1110638772   -1.2165795368
 H    1.1680716019    1.8922321529    0.0396561605
 H   -0.3309145150    2.0028582398   -0.8792487092
 H   -0.3623434609    2.0306029539    0.8937279106
 H    0.5434540713   -0.3601768121   -0.8141225452
 H    0.2068197046   -0.1942663059    2.2222621116
 H    0.7544671602   -1.6045230026    1.3083431312
 H    1.7648275268   -0.1521598409    1.3734038657
 H   -1.4043220055   -1.5675372082    0.1330701797
 H   -2.2976804078    0.9384577923    1.0453079898
 H   -2.2297801532    0.9155835533   -1.4406000740
 H   -0.6234608543   -0.2527572916   -2.6865165415
 H   -1.3772783529   -1.6913832080   -2.4717208368