20

 C   -0.1289335643    1.6405475183    0.0151020133
 C    0.0081925490    0.1269987089   -0.0130472313
 C   -1.3546007361   -0.5608364622   -0.1613314546
 O   -1.9451255901   -0.3608678723   -1.4347964073
 C    1.0634802949   -0.4993913258   -0.9701601665
 O    1.8178182364    0.4514226666   -1.6922154901
 C    1.7020624202   -1.1196992768    0.2743259618
 C    2.0650909146   -0.0700909235    1.2445052071
 N    0.6603122013   -0.5078307770    1.2029102785
 H    0.8352341955    2.1500095033    0.0100161091
 H   -0.6678490168    1.9927330934   -0.8711341830
 H   -0.6858916319    1.9465498965    0.9076497326
 H   -1.2200874067   -1.6415163560   -0.0540250720
 H   -2.0134940838   -0.2324786583    0.6561455904
 H   -2.2284985397    0.5560521811   -1.4954925712
 H    0.6130946394   -1.2377284606   -1.6430230857
 H    2.4591496899   -0.0169043459   -2.2362654159
 H    2.0136659815   -2.1540782771    0.3813030178
 H    2.5679694679   -0.3852533862    2.1536535477
 H    2.3468479688    0.9150364035    0.8869813892