14

 O    0.0155049877   -0.0767773052    0.0495746678
 C   -0.0422671109    1.1279487110    0.0681679655
 C   -1.3241639493    1.9423128730    0.0809071642
 C   -1.1164591624    3.2991235705    0.7893772778
 N    0.0633697504    4.0332593029    0.3230805858
 C    1.0601170457    3.3120137206    0.0076939351
 N    1.0983044406    1.9224544860    0.0130492757
 C   -2.3173478847    4.1354245217    0.6506722289
 N   -3.2864707829    4.7537566053    0.5431123113
 H   -1.6119120240    2.1158481783   -0.9632329075
 H   -2.1147969454    1.3536687554    0.5479700353
 H   -0.9819422113    3.1149566764    1.8668052904
 H    1.9930334025    3.7870540008   -0.2907818116
 H    1.9720903441    1.4384434034   -0.1397754587