19

 C   -0.2180960089    1.5297739205    0.0759362135
 C    0.1487127883    0.0834403511    0.0135900523
 C    0.7252780540   -0.6994666390   -1.1752407897
 C    1.3565161163   -1.7211616536   -0.1485588905
 C    2.8024526974   -1.7985117007   -0.1751785967
 C    4.0047899301   -1.8431462731   -0.1798808241
 C    0.7474330420   -0.8474428198    0.9919925390
 C    1.2417118453   -0.7083354076    2.3930568284
 O   -0.6646241026   -0.8552858489    0.7488251617
 H    0.5994218266    2.1533639656   -0.2998435335
 H   -1.1045779283    1.7312296893   -0.5362952789
 H   -0.4435413485    1.8266298712    1.1036370521
 H   -0.0112436539   -1.1109541084   -1.8693397659
 H    1.4946718088   -0.1533525149   -1.7241556183
 H    0.9113648208   -2.7203401625   -0.1799024457
 H    5.0652669339   -1.8950665327   -0.1905495826
 H    2.3222429291   -0.5400143876    2.4005005045
 H    0.7456579964    0.1259889432    2.8960737645
 H    1.0364830933   -1.6198541421    2.9658977097