14

 O   -0.0795108166    0.0163450763   -0.4618325010
 C   -0.0408821034    1.1331307289   -0.0743816311
 O   -1.0231549822    1.8382912582    0.5930221580
 C   -0.2415482164    3.0651492074    0.6274094089
 C    0.6253744810    3.2052368899    1.8871610428
 N    1.6505590516    2.2975542306    1.2943985077
 C    0.9579435089    2.3231683428   -0.0360253328
 C    1.6970128536    2.7064533982   -1.2002568909
 C    2.3320188939    3.0260378285   -2.1698307544
 H   -0.7915417394    3.9060444594    0.2128010109
 H    0.9685111660    4.2365463267    2.0275283558
 H    0.1838877946    2.8359705732    2.8165929249
 H    2.5805399625    2.6964882365    1.2464259096
 H    2.8870341459    3.2986901534   -3.0340056384