15

 O   -0.2498077738    0.2692976011    0.7377512170
 C    0.3295701763    0.6811666394   -0.2356147860
 C    1.3947340258    1.7217282088   -0.1805778919
 N    2.3068135665    1.7684719597   -1.3438197992
 C    1.4225166029    2.8965121473   -1.1203235494
 C    0.3458218035    3.1695445338   -2.1632573814
 C    0.8097639669    4.1027815261   -3.1840950790
 C    1.2148863814    4.8816506026   -4.0044132741
 H    0.1128026342    0.2994042679   -1.2569215140
 H    1.7861871937    1.8961083862    0.8188650444
 H    3.2572127952    1.9655428341   -1.0443800793
 H    1.8511753931    3.8014612139   -0.6929116942
 H    0.0455170892    2.2267546137   -2.6318366753
 H   -0.5438083950    3.5777946683   -1.6665539843
 H    1.5624841802    5.5632719772   -4.7406478235