14

 O    0.8362307322    1.0706496864    1.2770559334
 C    0.5058937774    1.6544038879    0.2803225391
 C    1.1849418030    1.4749552050   -1.0766065876
 N    1.3018719460    2.7366830194   -1.7819197305
 C    2.3125180974    3.6120111764   -1.4630013775
 N    2.7137341239    4.5614791439   -2.2738292967
 O    3.6944212214    5.2378942849   -1.5808430579
 N    3.9001379594    4.6983500375   -0.3539026537
 C    3.0684222713    3.7001421712   -0.2512689225
 H   -0.3331007226    2.3853922470    0.2651154728
 H    2.1418239792    0.9569807983   -0.9297040311
 H    0.5380709978    0.8162854309   -1.6681224544
 H    1.0522919761    2.7401587224   -2.7585569929
 H    3.0265009576    3.0953074389    0.6408739995