14

 O   -0.0853074763    1.4450563803    0.0283327646
 C    0.0044971438    0.0355867195    0.0135709282
 C    0.6720434501   -0.5156363428   -1.2776968449
 C   -0.0407830313   -0.1144104709   -2.4807434051
 C   -0.6417781118    0.2114408676   -3.4681134278
 C    0.7024972194   -0.4755184069    1.1990743261
 C    1.3119471088   -0.8723331199    2.1641268025
 C    1.9940572371   -1.3219055984    3.2584719015
 N    2.5768285380   -1.7041836151    4.1876261955
 H    0.8081316364    1.8083871941    0.0340218765
 H   -1.0328914744   -0.3165700943    0.0380918773
 H    1.7113383647   -0.1634386407   -1.3098257491
 H    0.7195053426   -1.6088945527   -1.2065858775
 H   -1.1680466972    0.5006554901   -4.3441449479