16

 N   -0.1308424804    1.2863440448    0.0436320731
 C    0.0543994313   -0.0577019928    0.1651923934
 O    1.0001989768   -0.6011047035    0.6794868602
 O   -1.0184664760   -0.7143834284   -0.3730328641
 C   -0.9802852166   -2.1176463496   -0.2406174125
 C   -1.8817040724   -2.7609859132    0.7454900163
 C   -2.1927335202   -2.8578855649   -0.7559108466
 C   -3.3661052796   -2.1044026473   -1.2636318567
 O   -4.0619365308   -2.4751786081   -2.1761725120
 H    0.6705874777    1.8669596951    0.2199915273
 H   -0.8436764401    1.6311364225   -0.5762513431
 H   -0.0011516888   -2.5413997424   -0.4257312576
 H   -1.5554284315   -3.6589270238    1.2561600422
 H   -2.5260042905   -2.1061401168    1.3230295334
 H   -2.0178786499   -3.8011958587   -1.2606916279
 H   -3.5756884489   -1.1548958028   -0.7246259154