18

 C   -0.1810330042    1.3182282069   -0.0775831670
 O    0.0742444637   -0.0623806832    0.0014113358
 C    0.6077898268   -0.5882409065   -1.1929891023
 C    0.7828397757   -2.0825834221   -1.0068744474
 O   -0.4527606510   -2.8302896821   -1.1134942621
 C    0.0001842378   -3.5193822935   -2.2948824071
 C    1.3936537068   -2.8583348156   -2.1956254712
 O    1.8019580377   -2.0241042210   -3.2545522555
 H    0.7357201228    1.8932238529   -0.2871037442
 H   -0.9178357318    1.5544392387   -0.8617758562
 H   -0.5819155013    1.6330622923    0.8890854017
 H   -0.0573960740   -0.3903962544   -2.0471476221
 H    1.5860484706   -0.1340134092   -1.4242395274
 H    1.2614468071   -2.2612511257   -0.0363707712
 H   -0.0427717077   -4.6093574779   -2.1797304403
 H   -0.5558483310   -3.2219737718   -3.1939462521
 H    2.1925978936   -3.5496347804   -1.9013221136
 H    2.1726599782   -2.5718613575   -3.9529524378