17

 C   -0.0936934833    1.5949101980   -0.0344670155
 C   -0.0260461974    0.0804245143   -0.0121655430
 C    1.2346541993   -0.6225009536   -0.5948652491
 O    2.0252112533   -0.1469721213    0.5586741644
 C    0.7521207806   -0.6184723655    1.1406070687
 C    0.8841147881   -1.9061099796    0.2451092004
 O   -0.2420173034   -2.6394679027   -0.0669446294
 C    2.0422977936   -2.8151293004    0.5703070618
 O    1.8970744048   -4.0175681823    0.5344150628
 H    0.8709591434    2.0312716641    0.2325123655
 H   -0.3763477266    1.9538683944   -1.0297088929
 H   -0.8487512009    1.9578094282    0.6708315600
 H   -0.9711982678   -0.3983450477   -0.2738356229
 H    1.6899477214   -0.5494529882   -1.5836038898
 H    0.6318389393   -0.5407823110    2.2221446404
 H    0.0309933246   -3.5698738149    0.0138059069
 H    2.9979806807   -2.3389135017    0.8344541915