15

 N    0.1662775204   -1.1321646794   -0.0131560324
 C    0.0691424893    0.0219321762    0.0119290292
 C   -0.0614689466    1.4322093736    0.0251934127
 C    0.1016782245    2.3350070365    1.2443604804
 C   -0.9859512388    3.3904247293    1.1781167005
 N   -1.1253143684    3.5908380750   -0.2704230458
 C    0.1772599241    3.3686587038   -0.9206891424
 C    1.0196255597    2.5169279321    0.0694253098
 C   -0.8803074299    2.3244562722   -0.9650410873
 H    0.4694271153    1.9081365727    2.1684138855
 H   -1.9368818796    3.0538676792    1.6003336359
 H   -0.6910282030    4.3294134376    1.6559146596
 H    0.5433270950    4.0624537666   -1.6647848596
 H    2.0904807522    2.3794647207    0.0778018393
 H   -1.5420167043    1.9740488839   -1.7453276353