17

 C    0.1199842545    1.2702983179   -0.0289287791
 O   -0.0174520599   -0.1606266400   -0.0211428343
 C   -1.2886455681   -0.6193792674    0.0339461725
 O   -2.2519058970    0.0987993891    0.0920785418
 C   -1.3329532056   -2.1429871626    0.0227675360
 N   -2.6053186515   -2.6219580286    0.5141924417
 C   -1.0178354630   -2.7064277651   -1.4023106611
 N    0.1733616187   -2.3315364050   -1.9283458151
 O   -1.7847909959   -3.4757206857   -1.9446435127
 H    1.1920825026    1.4646991585   -0.0470101614
 H   -0.3646369094    1.6978901232   -0.9098925809
 H   -0.3331638912    1.6981745721    0.8676491892
 H   -0.5018640331   -2.4816809898    0.6596081882
 H   -3.2738976582   -1.8581544979    0.4600674998
 H   -2.9246343839   -3.3403341115   -0.1334502026
 H    0.7370163007   -1.6266699686   -1.4837484477
 H    0.4203704303   -2.6701619788   -2.8435809946