21

 C   -0.0970589072    1.5135596724   -0.0166096586
 C    0.0567069398    0.0104739132   -0.0081239158
 C    1.1583844321   -0.6749527553   -0.8745640667
 C    1.1370982295   -1.7905953026    0.1959965695
 O    2.3540030302   -2.4666449627    0.3819626366
 C    0.6858755496   -0.7103248236    1.2205300029
 C   -0.0562484718   -2.7238860423   -0.0689479295
 C   -1.2137215231   -1.9081586383   -0.6872425407
 O   -1.2363360119   -0.5529076309   -0.2548645859
 H    0.8513543843    1.9990054126    0.2299546051
 H   -0.4241443986    1.8611499093   -1.0015259724
 H   -0.8482187317    1.8214955812    0.7174603194
 H    0.9417595123   -0.9256689472   -1.9155070430
 H    2.0929904830   -0.1121379714   -0.8197237483
 H    2.2269741621   -3.1363478737    1.0631878103
 H    1.5467267675   -0.1666134152    1.6188930862
 H    0.0035821235   -1.0001500960    2.0241865072
 H    0.2424486890   -3.5160326267   -0.7641493265
 H   -0.3611342122   -3.2006350152    0.8716497705
 H   -1.1264266665   -1.9410154836   -1.7826611580
 H   -2.1884037298   -2.3320867940   -0.4289847422