22

 C   -0.0296101789    1.5380037132    0.3113190126
 C   -0.0235733653    0.0402679442    0.0647273432
 C    0.9933621036   -0.5273945947   -0.8926743336
 C    1.1481495995   -0.7653160778    0.5904321521
 C   -1.3829160135   -0.6485746162    0.1109244573
 O   -1.9884726262   -0.5166296610    1.3950296609
 C   -2.3602125784   -0.0927405222   -0.9109157306
 C   -3.8197619509   -0.2867385201   -0.7531695402
 N   -3.2201642632    1.0521270205   -0.5791256807
 H    0.9892601624    1.9368237671    0.3049080858
 H   -0.6067782127    2.0651533184   -0.4546244055
 H   -0.4761668315    1.7719575256    1.2832866860
 H    0.7077845717   -1.3705465725   -1.5135594560
 H    1.6755143347    0.1647427352   -1.3742401222
 H    1.9364670858   -0.2362412500    1.1151312417
 H    0.9668220019   -1.7703858566    0.9602817576
 H   -1.2267965663   -1.7168947759   -0.1194606383
 H   -1.3208825848   -0.7376187042    2.0520388533
 H   -1.9456686388   -0.0579892150   -1.9163512083
 H   -4.4499777122   -0.3977360961   -1.6311043577
 H   -4.1617635724   -0.8090094805    0.1347304766
 H   -3.1317277645    1.2238057185    0.4205390859