19

 C    0.0828006769    1.5587730578    0.1970933176
 C    1.2954882058    0.7183185934   -0.0694481224
 O    2.1034140330    0.3943455041    1.0446940059
 C    1.5419176492   -0.7789592660    1.6533473290
 C    1.5521960310   -0.8653644006    3.1810904632
 C    0.2064131996   -1.5947849166    3.4868451755
 C   -0.6765472027   -1.1817934588    2.3184802562
 C    0.0704204424   -0.7194386094    1.3190165834
 C   -0.0580552649    0.0421583238    0.0522692291
 H   -0.0250075482    1.9870537873    1.1869756307
 H   -0.3042049523    2.1650401957   -0.6161083617
 H    1.8363748183    0.7983980251   -1.0071009799
 H    2.0215929504   -1.6663172640    1.2043635924
 H    2.4252742678   -1.3745115701    3.5963611654
 H    1.5203560796    0.1521627157    3.5838337804
 H    0.3478237479   -2.6843738927    3.5283141305
 H   -0.2173994883   -1.3045392987    4.4543095148
 H   -1.7588398558   -1.2348054659    2.3479758715
 H   -0.5892771798   -0.3552051600   -0.8044833715