15

 C   -0.0426550273    1.3558351402    0.0237433317
 O   -0.0308428237   -0.0763287064   -0.0805385683
 C    0.6074568618   -0.5679172727   -1.1487268330
 O    1.1223732093    0.0953946022   -2.0104553914
 C    0.6215513860   -2.1037416966   -1.1213406652
 N    0.7149005504   -2.5790087472   -2.5020210932
 C    1.7122653477   -2.5407676083   -0.2366310781
 C    2.6191560409   -2.9280607799    0.4513228147
 H    0.9773334222    1.7427126139    0.0857440323
 H   -0.5377048652    1.7978471348   -0.8440613847
 H   -0.5940676281    1.5802247985    0.9362424998
 H   -0.3296520216   -2.4317629139   -0.6858974035
 H    1.4140102300   -2.0148353954   -2.9787566853
 H    1.0438180745   -3.5389369478   -2.5059939653
 H    3.4173488031   -3.2685182415    1.0638242395