16

 O   -0.2473036135    0.8920164281    1.1913222194
 C    0.0412125261    1.1558561246    0.0523833799
 C    1.3993049167    1.6716182897   -0.3844843469
 C    1.2934254766    2.8829166260   -1.3120785643
 C    1.0520712968    4.2463553069   -0.6749521391
 C    2.4002041096    3.9264395975   -1.2499429880
 C    0.6937935866    2.6242446903   -2.5948189684
 C    0.1970546190    2.3854119740   -3.6645201048
 H   -0.6929032753    1.0315425478   -0.7738482002
 H    1.9779463843    1.9129571846    0.5112856632
 H    1.9145882296    0.8574920896   -0.9129757850
 H    0.4166704342    4.9412162238   -1.2101598399
 H    0.9424194598    4.2680087497    0.4039592339
 H    3.2217228688    3.7314061435   -0.5694146554
 H    2.6851826007    4.3986584616   -2.1823477306
 H   -0.2440876200    2.1828749521   -4.6089370639