23

 C   -0.0242660549    1.5020256112    0.0673562291
 C    0.2763428315    0.0159293699   -0.0335497058
 O    0.4034493755   -0.5074508887    1.2746327005
 C    0.6680735080   -1.8871474958    1.3106026291
 C    2.1183835047   -2.3929633000    0.9797535393
 C    2.1804118856   -2.9947644957    2.3860400394
 C    1.9913552919   -1.9007383834    3.3996392292
 C    0.7744441292   -2.4683108177    2.7186986320
 C   -0.3679414566   -3.0994968296    3.4621551980
 H    0.7848340570    2.0222526615    0.5880020432
 H   -0.1335172271    1.9391096194   -0.9297986905
 H   -0.9507913186    1.6683799601    0.6242553143
 H   -0.5324131446   -0.5066936802   -0.5727968434
 H    1.2029863813   -0.1507248046   -0.6067203363
 H   -0.0781649261   -2.4296288028    0.7089895306
 H    2.1362810592   -3.1276725543    0.1715817560
 H    2.8555307046   -1.6109354602    0.7686859750
 H    2.6154104398   -3.9528915970    2.6440178235
 H    2.1040817206   -2.1982230786    4.4376705774
 H    2.3223571726   -0.8884495147    3.1840159989
 H   -1.0870554706   -2.3424254188    3.7970046837
 H   -0.9091338989   -3.8170360925    2.8341967478
 H   -0.0145478142   -3.6337810774    4.3503137290