17

 C   -0.2962320486    1.3377648696   -0.8293205570
 C   -0.0532120158    0.0585132793   -0.0597552350
 C    1.1383220795   -0.7567867594   -0.3714722473
 O    1.1116682954    0.0702385606    0.7898964367
 C   -1.2394896160   -0.5971524162    0.5429686043
 C   -2.5515492479   -0.4094034959    0.2288063489
 O   -3.3494583424   -1.1980845808    0.9960071106
 C   -2.5293098018   -1.8985921318    1.8242704972
 C   -1.2323670373   -1.5770397763    1.5967222166
 H    0.6506381746    1.7519056790   -1.1824743271
 H   -0.9395142535    1.1543986200   -1.6966356180
 H   -0.7853657585    2.0820727520   -0.1935892442
 H    1.1163841681   -1.8296949091   -0.1858426767
 H    1.8155120562   -0.4350854488   -1.1627499148
 H   -3.0609849334    0.2144571113   -0.4862500780
 H   -3.0205547233   -2.5677314456    2.5111290789
 H   -0.3650305855   -1.9496738780    2.1173058448