14

 C   -0.0435166096    1.3715857328    0.0625500373
 O   -0.0022690447   -0.0458381378    0.0081429621
 C    0.6106899945   -0.5712966153   -1.0640900745
 C    1.2217720597    0.0295392788   -2.1484745256
 N    1.6705644670   -0.9998952315   -2.9245336883
 N    1.4034655371   -2.2069208681   -2.4383396168
 C    0.7508159347   -1.9677713961   -1.2917907116
 C    0.2866916876   -3.0202073866   -0.4601257129
 N   -0.1044514787   -3.8544649510    0.2399571256
 H    0.9693339551    1.7944751252    0.0860162036
 H   -0.5874538388    1.7830974956   -0.7977119633
 H   -0.5676364376    1.6312641492    0.9824836188
 H    1.3686545417    1.0600241080   -2.4210304955
 H    2.1660297918   -0.9313726831   -3.7978721488