17

 C    0.0311636886   -1.1335406509   -0.4648404494
 C    0.1791713248    0.0584256752   -0.5093626321
 C    0.3764792214    1.5016598047   -0.5256199940
 C    1.0823434787    2.0124934658    0.7591236184
 C    1.2801611786    3.4563614155    0.7448897607
 C    1.4303484732    4.6492586769    0.7005027694
 C    1.6189966209    6.1011751398    0.6663942425
 C    2.5828094896    6.5449514685   -0.3430345913
 C    3.3703333681    6.9206554020   -1.1675287323
 H   -0.1067922180   -2.1860200939   -0.4415815289
 H    0.9730368873    1.7904600781   -1.3983793470
 H   -0.5878568575    2.0119503688   -0.6296728262
 H    0.4859483066    1.7210024749    1.6314150481
 H    2.0459493496    1.5003227930    0.8618109645
 H    0.6538122626    6.5941141475    0.4848100420
 H    1.9455211732    6.4511549122    1.6555973067
 H    4.0681777723    7.2482752420   -1.8976207912