15

 C   -0.0231840392    1.4961583339   -0.0116432084
 C    0.0069292622    0.0114986831   -0.0006830574
 N    0.0078244796   -0.7498675338   -1.0665645786
 N    0.0395870188   -2.0421011098   -0.6118615382
 C    0.0591806530   -2.0846986137    0.7475896526
 N    0.0893130161   -2.9477233152    1.7347851934
 C    0.0873603542   -2.1228586046    2.8478710742
 C    0.0564647358   -0.7843852235    2.5336110450
 N    0.0381356189   -0.7643751082    1.1416441339
 H    0.8578756610    1.9140866273    0.4881268084
 H   -0.0410756340    1.8463256819   -1.0444113513
 H   -0.9097676060    1.8785201014    0.5065455239
 H    0.0475015391   -2.8049841845   -1.2631928945
 H    0.1088617967   -2.5485829813    3.8405620263
 H    0.0467407139    0.1091309471    3.1316035308