21

 C    0.0474727946    1.2463596372   -0.4957527307
 O   -0.0464536002   -0.1609513080   -0.3719173235
 C   -1.2640937100   -0.5911064609    0.1889576940
 O   -2.3709399005   -0.3629007064   -0.6621038678
 C   -2.7968159795   -1.5958636707   -1.2829315986
 C   -4.3172666182   -1.6900970238   -1.1263624463
 C   -2.3822292165   -1.5943483442   -2.7624207475
 C   -2.0551653414   -2.6509242806   -0.4938464925
 C   -1.2083220021   -2.0865792076    0.3557221798
 H    1.0397669638    1.4682113829   -0.8948175559
 H   -0.7154241532    1.6412120968   -1.1774723513
 H   -0.0633868801    1.7432682964    0.4806202147
 H   -1.4451598063   -0.0261770199    1.1186024718
 H   -4.7977189321   -0.8374492910   -1.6152682131
 H   -4.6990954050   -2.6082319662   -1.5843340419
 H   -4.5934813427   -1.6847111566   -0.0689473214
 H   -1.3006110745   -1.4656183470   -2.8455706881
 H   -2.6649607531   -2.5328848863   -3.2508633794
 H   -2.8754870480   -0.7715403040   -3.2889577676
 H   -2.2124191988   -3.7107855209   -0.6525575501
 H   -0.5182957763   -2.5732757192    1.0314108455