16

 C   -0.0260628317    1.4706163640    0.0791084500
 C    0.0134307911   -0.0099550025    0.0068154496
 C    0.0011430364   -0.8676526227   -1.0320182221
 C   -0.0604089617   -0.6297656052   -2.4170442361
 N   -0.1152082328   -0.4540416190   -3.5625457960
 C    0.0637644775   -2.2352799612   -0.3034103649
 C   -1.0171604114   -2.0388649627    0.7979436663
 C    0.0786743503   -1.0014561742    1.1894352916
 O    1.0747203037   -1.9630969831    0.7147340322
 H    0.8661115733    1.8577904547    0.5868793212
 H   -0.0819688238    1.9189265856   -0.9155505649
 H   -0.8901782109    1.8117785879    0.6630357553
 H    0.2132735481   -3.1455284776   -0.8798970215
 H   -2.0084170526   -1.6847088122    0.5087652002
 H   -1.0620336030   -2.8763335167    1.4968531777
 H    0.2433263277   -0.6260721251    2.1983590114