19

 C    0.0910048646    1.4713152339   -0.0194882251
 O   -0.2108325545    0.0954637291   -0.1240490032
 C    0.5533742262   -0.5799368001   -1.0963820628
 C    2.0047266900   -0.9010823244   -0.6718356533
 O    2.3260441960   -2.1155658094   -1.3319795153
 C    1.1664177201   -2.9361312095   -1.2550416948
 C   -0.0129184107   -1.9774170923   -1.3597306472
 C   -1.4073474840   -2.3372272204   -1.1101371813
 O   -0.9280699505   -2.1252937200   -2.4452148294
 H    1.1170308296    1.6477715347    0.3353491345
 H   -0.0352548906    1.9860099532   -0.9841449669
 H   -0.6063021527    1.8989790105    0.7045450748
 H    0.5450666703   -0.0200573110   -2.0438369053
 H    2.7411881845   -0.1541857339   -0.9752296371
 H    2.0333380743   -1.0118388995    0.4255014667
 H    1.1859232261   -3.6558495578   -2.0764675688
 H    1.1427969344   -3.4816010738   -0.2975747927
 H   -1.6611070376   -3.3682353449   -0.8636740497
 H   -2.0857682254   -1.5786382544   -0.7279234231