19

 C   -0.0881398198    1.5031272765    0.0211838449
 C    0.0630960395    0.0201310786    0.0680195927
 O    0.4549544684   -0.6733586206   -1.1228979840
 C    1.2715187679   -1.5964163815   -0.3445331642
 C    0.8139773308   -0.9652051782    0.9615120479
 C    1.5790067245   -0.8015871266    2.2460130313
 O    1.3340813797   -1.8553403627    3.1676084250
 C   -0.7034607721   -0.9417624414    0.9394341492
 O   -1.2329118065   -0.4626763964    2.1471534747
 H    0.8506114492    1.9926601319   -0.2549195819
 H   -0.8459862543    1.7834049366   -0.7199844542
 H   -0.4050242945    1.8796815185    0.9976735299
 H    1.0069320618   -2.6434437919   -0.5322266808
 H    2.3364944910   -1.4395948047   -0.5558321367
 H    2.6555010271   -0.8174846826    2.0433534890
 H    1.3449209798    0.1741452563    2.6933069151
 H    0.3998658096   -1.7959561245    3.3982230987
 H   -1.2564526267   -1.7576710148    0.4682923268
 H   -2.0749380054   -0.0329280125    1.9643532565