20

 C   -0.0697232464    1.4083514635   -0.1395838205
 N    0.0323572883   -0.0296658890    0.0568921989
 C   -1.2076862975   -0.7593865866    0.1180787283
 C   -1.5577687928   -1.8164964958   -0.9087743788
 C   -1.1945993242   -2.2063096991    0.5107081601
 C    0.1486677319   -2.8066641143    0.8675003504
 C    1.2998390418   -2.1433921269    0.1011917211
 C    1.2735072270   -0.6180223559    0.0664450605
 O    2.3079165257    0.0270883942    0.0043754478
 H    0.9392322649    1.8172193004   -0.1475216824
 H   -0.5663894819    1.6405240266   -1.0897999212
 H   -0.6453263557    1.8682536747    0.6724755870
 H   -2.0139053974   -0.1354015462    0.4898201662
 H   -2.5931621044   -1.9159145874   -1.2158873315
 H   -0.8384930483   -1.9974533972   -1.6997759655
 H   -2.0198426360   -2.5358307467    1.1350389283
 H    0.3082522327   -2.6693428559    1.9443484626
 H    0.1557910488   -3.8879211442    0.6877966350
 H    2.2694023414   -2.4261406958    0.5157066481
 H    1.3040948621   -2.4823775785   -0.9424510245