12

 N   -0.0767666389   -1.1833655197   -0.0069819075
 C   -0.0377946844   -0.0296808725    0.0009668056
 C   -0.0018115320    1.4401620429    0.0106122990
 N    1.3439070655    1.9806947347    0.0003663302
 C    2.1465687387    2.2674840197    1.0740941254
 N    3.3050895389    2.7174302427    0.6771770934
 N    3.2904326847    2.7275277543   -0.7070001941
 C    2.1236346075    2.2834231371   -1.0858211709
 H   -0.5457579093    1.8153109724   -0.8612993795
 H   -0.5278141270    1.8035899031    0.8983443915
 H    1.8301295696    2.1333298167    2.0972761008
 H    1.7855969568    2.1641262186   -2.1039284239