19

 C    0.0435231768    1.5921531295    0.1218395601
 C   -0.0022464605    0.0644525091    0.0286755881
 C    0.6243472563   -0.5016666819   -1.2612096328
 C    0.7297969572   -2.0455567335   -1.3119861599
 N    0.0847120467   -2.5309772126   -2.5405109519
 C   -0.4282832077   -1.5351263706   -3.1652189953
 N   -1.1672515669   -1.5730581454   -4.3036181133
 C   -0.1874518160   -0.1997258290   -2.5142910255
 O   -0.5673075925    0.8611135586   -2.9540475685
 H    1.0785913949    1.9522744539    0.1246101862
 H   -0.4664589257    2.0545976393   -0.7261796534
 H   -0.4321402190    1.9385075868    1.0445269877
 H    0.5283326101   -0.3753239007    0.8818905581
 H   -1.0396130020   -0.2869144526    0.1024391085
 H    1.6130372284   -0.0440993837   -1.3970014509
 H    1.7701928304   -2.3897994996   -1.2923848656
 H    0.2364566002   -2.5082516696   -0.4474530257
 H   -1.1518014775   -2.4095480531   -4.8629150380
 H   -1.2996560232   -0.6921512749   -4.7750260579