19

 O   -0.0893298107    0.0214210570    0.0165052628
 C    0.0373115808    1.2174834901    0.1190749936
 C    1.3312243934    1.9480525441    0.0454265316
 C    2.6787391928    1.2499446720   -0.2541227794
 C    3.0952444226    2.6467219819   -0.7342674687
 C    2.7181273823    3.7296658877    0.3736792248
 C    1.7658231977    4.3836549541   -0.6604359365
 C    1.6299442510    2.9495159166   -1.1834399336
 C    1.7227354208    2.8958892096    1.2087969594
 H   -0.8531064072    1.8751399766    0.2651746827
 H    3.2020061613    0.7777239794    0.5822984264
 H    2.6005313160    0.5464467702   -1.0866851255
 H    3.9570467877    2.8474839005   -1.3694863949
 H    3.4750327139    4.3051974275    0.9051260170
 H    0.8890927184    4.9235056583   -0.2881305974
 H    2.2984953477    5.0031452540   -1.3883843906
 H    1.2270863515    2.6728236998   -2.1569524139
 H    0.8949382955    3.4982742845    1.5953894516
 H    2.1723118546    2.3440364961    2.0383205906