19

 C   -0.0055805344    1.4736183276    0.1792499551
 C    1.5123836640    1.5810755280   -0.2190417521
 C    1.3359619995    0.2087321365   -0.8312960956
 O    2.2725546447   -0.8311155346   -1.1040064655
 C    1.3501397319   -1.3765324578   -2.0887716072
 C    0.1175293989   -2.1071274955   -1.4763856518
 C   -0.5926860979   -0.7393982233   -1.2250743056
 C    0.0513099732   -0.0833456220    0.0045548187
 C    0.5191914101   -0.0692861710   -2.1251852426
 H   -0.2566770998    1.8217827373    1.1816174784
 H   -0.6673130245    1.9663678340   -0.5374624717
 H    1.8341439181    2.4040553501   -0.8633522138
 H    2.1502468271    1.5487380489    0.6702335614
 H    1.8818051820   -1.8436999476   -2.9182216947
 H   -0.3938330278   -2.6725866214   -2.2618158114
 H    0.2949820021   -2.7611200631   -0.6176538115
 H   -1.6676564941   -0.6746195585   -1.4008268211
 H    0.0899871504   -0.6393406646    0.9441025867
 H    0.4058815064    0.6076180270   -2.9687879956