21

 C    0.3217887405    1.1460489774   -0.6846654502
 C   -0.2176173628    0.7326237648    0.6835802873
 N   -1.4023393376   -0.1113745772    0.5359059626
 C   -1.9482585398   -0.7678352570    1.7570016371
 C   -2.5776575759   -1.9091618739    0.9028775775
 N   -2.0174939741   -3.0455426817    1.6906960388
 C   -0.9376734762   -2.0003288053    1.7699733981
 C    0.3227693001   -2.2778244774    2.5399275804
 C   -1.2049830739   -1.5686863930    0.2690920447
 H    1.1689083629    1.8308348223   -0.5790039165
 H    0.6665007274    0.2755939038   -1.2533192374
 H   -0.4594900043    1.6405497805   -1.2685990707
 H    0.5884336790    0.2611846269    1.2695710807
 H   -0.5280662244    1.6256888472    1.2408522383
 H   -2.3797061952   -0.2156734225    2.5965392179
 H   -3.5488512335   -1.9194745371    0.4103062517
 H   -2.4982459654   -3.1183566303    2.5923345823
 H    0.7896273531   -3.1958132419    2.1680045732
 H    1.0453849786   -1.4631655793    2.4596054953
 H    0.0973110141   -2.4244203526    3.6028864417
 H   -0.7673112627   -1.9743439336   -0.6434554828