16

 C    0.1387528668    1.3821833908   -0.9086304530
 N    0.0089212893   -0.0153904055   -0.5337975181
 C   -1.0295707545   -0.5064545830   -0.0225449539
 O   -1.0805613074   -1.8496290451    0.3135308373
 C    0.0884299011   -2.5368899988    0.5362434036
 O    0.0783538066   -3.7149792428    0.7050275828
 C   -2.3619593701    0.1688425648    0.2860931464
 C   -3.4192497735   -0.6495769029    0.9865913016
 O   -2.5245593518    1.3226006051   -0.0391270564
 H    1.1745387469    1.5600931920   -1.2067887277
 H   -0.5179533360    1.6218095346   -1.7513463783
 H   -0.1311603714    2.0630524497   -0.0960857699
 H    0.9646219051   -1.8766392835    0.5505464468
 H   -3.6730314946   -1.5326511259    0.3920610161
 H   -3.0415004031   -1.0243623153    1.9434154817
 H   -4.3020516936   -0.0297686842    1.1441576908