17

 C    0.0186854748    1.5024039621   -0.1588458913
 C    1.5605815163    1.4546483781    0.0798980196
 N    2.1792218724    2.2466133425    1.1156915819
 C    2.1066458776    1.9914612466    2.3502746365
 O    1.4458905959    1.0404826969    3.0607334641
 C    0.2382216843    0.4551750610    2.5443145813
 C    0.4062052402   -0.3820233925    1.2933042786
 C    1.3810757555   -0.0605248623    0.2373691424
 N   -0.1109705589    0.0088096848   -0.0467475957
 H   -0.5737451817    2.0817797025    0.5540759608
 H   -0.2525192634    1.8084052636   -1.1704455281
 H    2.0824534470    1.6827357812   -0.8521873765
 H    2.6817999012    2.6004568627    3.0491278406
 H   -0.1148092209   -0.1767765817    3.3613030484
 H   -0.5033376173    1.2494467140    2.4040648860
 H    0.2436512103   -1.4458168282    1.4444918431
 H    2.0168634368   -0.8143308115   -0.2161349114