17

 O    0.0658127011    1.3965336306   -0.1101915599
 C    0.0331077861   -0.0094862072   -0.0924809145
 C    0.7510069317   -0.6481627915    1.1279770697
 C    0.0149997453   -1.9693057159    1.4332843371
 C   -1.4024859865   -1.7270972728    0.9451579725
 N   -1.9518181980   -0.4213180275    1.3487342781
 C   -1.3847650347   -0.5887227928   -0.0195665848
 C   -2.2573832118   -0.5310031389   -1.1560383870
 N   -2.9607280619   -0.4760764188   -2.0731829096
 H   -0.4102692624    1.6970015890    0.6740760593
 H    0.4948113769   -0.3280712482   -1.0326636385
 H    1.8166517022   -0.7886180751    0.9378069910
 H    0.6552872828    0.0395823211    1.9718832176
 H    0.4412347544   -2.8050844377    0.8673507198
 H    0.0502224347   -2.2364204071    2.4937021147
 H   -2.0887468582   -2.5557316793    0.8052229546
 H   -2.9677545918   -0.4459259979    1.2951124499