18

 C   -0.1702935115    1.3634556276    0.0277283003
 O    0.0574959290   -0.0234972237   -0.0401893604
 C    0.6152541201   -0.5462029357    1.1432196424
 C    0.8347258477   -2.0475112576    0.9417622582
 C    1.4075444880   -2.7047627254    2.1569735843
 N    2.7120266492   -2.6461742270    2.4499431471
 N    2.8010167156   -3.3128771452    3.5929282141
 N    1.6756681912   -3.8112659018    4.0825485007
 C    0.7696541220   -3.4317101186    3.1807025960
 H    0.7633539363    1.9237243398    0.1949950786
 H   -0.6006060429    1.6721711210   -0.9280771850
 H   -0.8737911946    1.6239873682    0.8347491490
 H    1.5749441330   -0.0562959169    1.3762611328
 H   -0.0562161475   -0.3703084220    2.0014950309
 H   -0.1232883642   -2.5100951296    0.6851130787
 H    1.5049555828   -2.1888487514    0.0888405326
 H    3.6844074578   -3.4483685615    4.0572775937
 H   -0.2705994420   -3.6923423901    3.2962629860