19

 C    0.1060355876    1.5640435610    0.1260864193
 C    0.3461789289    0.0678712491   -0.0434334998
 N    0.3805203013   -0.5962583242    1.2607107242
 C    0.6139675924   -2.0081371116    1.2257648027
 C    1.9889129982   -2.5855931163    0.8278907308
 C    1.5833159873   -2.5877024601    2.2605871242
 O    2.2439989843   -1.6888961985    3.0950230797
 C   -0.5438148351   -2.8083084967    0.8993978658
 N   -1.4569250535   -3.4675904881    0.6337090363
 H    0.9185817605    2.0326644870    0.6937251620
 H    0.0546988676    2.0585672832   -0.8480269307
 H   -0.8298514640    1.7472832299    0.6611638582
 H   -0.4711520114   -0.3776113004   -0.6226368034
 H    1.2704342561   -0.1024476628   -0.6235651509
 H    1.0755543100   -0.1723180566    1.8675438068
 H    2.0354746271   -3.5306538628    0.2997978866
 H    2.7258130506   -1.8466778396    0.5332765819
 H    1.3063055329   -3.5359757435    2.7152349630
 H    1.7125292692   -1.5709619690    3.8908831833