18

 O   -0.2736276961    0.0470936493    0.1224886807
 C   -0.1559425510    1.2416607737    0.0501478575
 N   -1.0524660965    2.2761645771   -0.0425032463
 C   -0.0516880972    3.3488103347   -0.0096177410
 C    1.0379772218    2.2291984196    0.0259624849
 C    2.0242392789    2.1878991744    1.2132967762
 C    3.4140134471    2.3635672718    0.5467032083
 O    3.1642299472    2.7891466988   -0.7860704054
 C    1.9762594476    2.1298474544   -1.1855557155
 H   -2.0608863750    2.2904824301   -0.0110455435
 H   -0.0455501105    3.9857385939   -0.8999709628
 H   -0.0973332540    3.9730627528    0.8887677757
 H    1.8119407968    2.9828434592    1.9320519451
 H    1.9524888167    1.2324798662    1.7394942250
 H    4.0392762663    3.1196092464    1.0279432819
 H    3.9622288132    1.4092116113    0.5467463716
 H    2.1669573621    1.0679861820   -1.4134731991
 H    1.5954906127    2.6194749943   -2.0851022332