19

 O    0.2187654006    1.3418736521    0.1697233547
 C    0.0286275977   -0.0586444165    0.1937021301
 C   -1.4093163284   -0.5022373297    0.0605257396
 C   -2.4451367200    0.3394808359    0.0598236305
 C   -3.8777462427   -0.1094405704   -0.0867918857
 C   -4.0206608304   -1.4247324685   -0.8785221910
 C   -2.9504675620   -2.4471155439   -0.5192531816
 O   -1.8109296197   -2.5057350604   -1.3884773075
 C   -1.6402607072   -1.9695773825   -0.0597572010
 H   -0.0630975320    1.6553933291   -0.6963544035
 H    0.6291666124   -0.5614340269   -0.5835851935
 H    0.4348241117   -0.3972157358    1.1565246187
 H   -2.2582948009    1.4011890400    0.1958974366
 H   -4.3206212719   -0.2224690472    0.9139869892
 H   -4.4653050633    0.6754221184   -0.5757027105
 H   -5.0162147224   -1.8511684543   -0.7199032349
 H   -3.9264352064   -1.2175966705   -1.9495876084
 H   -3.2929459375   -3.4256434202   -0.1843998383
 H   -1.0374693775   -2.6075434585    0.5886896467