21

 C    0.0113289893    1.5221283280   -0.0237837020
 C    0.0783605148   -0.0001194072    0.0306308678
 C    1.0894617997   -0.6439948191   -0.9475991856
 O    2.3402136179   -0.0089189518   -0.5471911960
 C    2.2314452897   -0.8400231062    0.6188216085
 C    3.4606098641   -0.9486609155    1.4678912077
 C    1.4794323877   -1.9530113287   -0.1559946569
 C    0.5148275534   -2.1390304072    1.0260417486
 C    0.7665711641   -0.6283302356    1.2681333599
 H    1.0081271288    1.9582651600    0.0662717902
 H   -0.4235366255    1.8626964734   -0.9704641623
 H   -0.6146960106    1.9107089754    0.7864137920
 H   -0.9245418633   -0.4224234365   -0.1010792903
 H    0.9091005996   -0.6141212093   -2.0218290337
 H    3.7070969104    0.0248730757    1.9055488819
 H    3.3045180545   -1.6570998826    2.2872245764
 H    4.3158151654   -1.2840240300    0.8736840758
 H    1.9779778885   -2.7569764125   -0.6962529965
 H   -0.5156254361   -2.4552548314    0.8410005844
 H    0.9614184085   -2.7800772923    1.7914565583
 H    0.6169374991   -0.1608170466    2.2411330318