17

 C    0.2153811084   -1.0885228878    0.0973996950
 C    0.0827778851    0.1029116536    0.0184554548
 C   -0.0711033754    1.5687556258   -0.0379533865
 C   -0.7299674770    2.1040684399    1.2664448009
 C    0.4848317926    2.2599222516    2.1846112226
 C    1.5558859882    2.7463478026    1.2031305095
 O    1.2264884473    2.1882019085   -0.0758335719
 C   -0.8241165145    1.9490415623   -1.2374464755
 C   -1.4645472630    2.2695294742   -2.2012539906
 H    0.3357843307   -2.1425972429    0.1486559238
 H   -1.1882290349    3.0727259070    1.0492026816
 H   -1.4971934334    1.4265437092    1.6418787480
 H    0.3146354419    2.9621441243    3.0038697128
 H    0.7634683821    1.2924596735    2.6122592534
 H    1.5554861553    3.8419727232    1.1211888423
 H    2.5661978544    2.4231342405    1.4734113765
 H   -2.0201319279    2.5470329945   -3.0628404166