17

 C   -0.4158232572    1.0371031886   -0.1064122458
 O    0.7276575595    0.1799197915   -0.1780566066
 C    0.9861080753   -0.5181096183    0.9613876041
 C    0.7092224415   -1.8308724020    1.2567864569
 O    0.0544798258   -2.7326226728    0.4660896887
 C    1.2460917495   -2.1101095500    2.5451162019
 C    1.8337032534   -0.9473661519    3.0013416824
 N    2.4900236743   -0.6047772659    4.2064114363
 N    1.6744626536    0.0169205622    2.0381702180
 H   -0.2714314570    1.8336788773    0.6342533743
 H   -0.5356022503    1.4847388202   -1.0956461887
 H   -1.3168820351    0.4706143905    0.1569385725
 H   -0.0612118259   -2.3223731048   -0.3985069975
 H    1.2168300149   -3.0587065089    3.0577012540
 H    3.4835240947   -0.8179003543    4.1727936265
 H    2.1006070210   -1.1248483183    4.9841802111
 H    1.9925474422    0.9660058871    2.1284332419