16

 C    0.0499158144    1.3457701832   -0.1983096419
 C    1.4618349310    1.8779547694    0.1713242003
 C    2.1265629363    0.6217765792    0.6692658031
 C    3.4129645865    0.3075364117    1.0537613308
 C    3.6570719804   -0.9945298428    1.5140757603
 C    2.6028596451   -1.8965821002    1.5692664001
 N    1.3409286238   -1.6128512921    1.1984933821
 C    1.1543095715   -0.3844233044    0.7656376851
 O   -0.0752658083    0.0220027963    0.3656538515
 H   -0.7615660348    1.9560597607    0.2033171801
 H   -0.0789638868    1.2628757083   -1.2830902289
 H    1.9636529353    2.3268064677   -0.6906947358
 H    1.4122259592    2.6449937993    0.9529358987
 H    4.2131919807    1.0397593359    1.0061057681
 H    4.6493819809   -1.2980834645    1.8255350577
 H    2.7689032248   -2.9090795478    1.9280546985