18

 C   -0.1136628994    1.5093568536    0.0087098365
 C    1.2131632800    0.7747222682    0.0047521910
 C   -0.0765558194    0.0136027143    0.0038828941
 C   -0.4671940932   -0.9963949631    1.0426891882
 C   -1.7428098181   -1.7369250970    0.7062174111
 C   -2.6799658148   -1.1611077708   -0.2974470540
 C   -1.9775985645   -0.8020410663   -1.3731402771
 C   -0.5145965880   -1.0172334581   -1.0651176526
 N   -0.4823333270   -2.1080389853    0.0225382779
 H   -0.4183611117    2.0129250499    0.9205353702
 H   -0.4166088385    2.0181558436   -0.9007666986
 H    1.8001015724    0.7857840334   -0.9086158234
 H    1.8071574593    0.7813042122    0.9134137663
 H    0.0093551431   -1.1117328135    2.0127111921
 H   -2.0927372568   -2.4538815878    1.4435092900
 H   -3.7438084564   -1.0496221965   -0.1349774643
 H   -2.3447128294   -0.2973535052   -2.2574244402
 H    0.1604251924   -1.1993322617   -1.9014742171