23

 C    0.1528547090    1.6121795445    0.0149889769
 C   -0.0412715645    0.0887993571   -0.0069009425
 O   -1.4491186365   -0.2025895883   -0.1042841108
 C    0.5913942926   -0.4927552189   -1.2884599438
 C    0.2210259846   -1.9432430461   -1.6252837005
 C    0.7121601084   -3.0197483931   -0.6482528469
 C    0.0814854798   -2.9580009397    0.7556720226
 C    0.5605194992   -1.8015057012    1.6005720393
 C    0.5385260955   -0.5104047541    1.2678340944
 H    1.2161972038    1.8758295893    0.0075811876
 H   -0.3282442333    2.0661768265   -0.8550071229
 H   -0.2915798627    2.0453211705    0.9186949480
 H   -1.8400857734   -0.0104943207    0.7543610128
 H    0.2729226421    0.1392160401   -2.1266493615
 H    1.6797778455   -0.3849478331   -1.2087425294
 H   -0.8683534742   -2.0105113097   -1.7154564187
 H    0.6293143045   -2.1680400427   -2.6184856468
 H    0.4864864368   -4.0021313284   -1.0812139907
 H    1.8048795196   -2.9673047826   -0.5530865967
 H   -1.0100372586   -2.9064633107    0.6491948088
 H    0.2979202153   -3.8929970875    1.2827853290
 H    0.9728387348   -2.0591016237    2.5745484034
 H    0.9398946817    0.2079106826    1.9804971683