12

 O   -0.0166428926    1.2653595145    0.0092269196
 C    1.2162814065    1.7591296259   -0.0000517133
 C    2.1145362142    0.7224288163   -0.0144854425
 C    3.5140524192    0.4996881345   -0.0293357561
 N    3.9882383118   -0.7173948723   -0.0405930007
 C    3.0784399517   -1.7569846584   -0.0373992694
 N    1.7737295558   -1.7089471742   -0.0244770261
 C    1.2740305247   -0.4420218046   -0.0126925712
 N   -0.0132689553   -0.1288879232    0.0015224126
 H    1.2987286053    2.8352204937    0.0050473981
 H    4.2267750760    1.3227583305   -0.0317392606
 H    3.5322162327   -2.7447026925   -0.0472999104