15

 N    0.1742558725    1.2089315941   -0.0639868805
 C   -0.3477171793   -0.0000992896    0.3542906171
 O   -0.6110556632   -0.2346985372    1.5179862829
 N   -0.4922277608   -0.9142542308   -0.6772895450
 C   -0.9512243826   -2.2321942992   -0.6083829653
 N   -0.8826824258   -2.9188922093   -1.6770001891
 C   -1.5090566281   -2.7420528875    0.7186748048
 O   -2.0491279971   -4.0417268524    0.5727644811
 H    0.1184394240    1.9314718696    0.6363638634
 H    0.0225598360    1.5169501680   -1.0114182352
 H   -0.1187265522   -0.6888753712   -1.5890428623
 H   -1.2322439246   -3.8570865289   -1.4781994061
 H   -0.7034905377   -2.8035939021    1.4541038106
 H   -2.2334887366   -2.0280846657    1.1231154130
 H   -2.9174838846   -3.9593576175    0.1656527906