14

 O    0.8818279509    0.8040978538    1.3777476384
 C    0.4058523368    1.3706490433    0.4145229259
 N    1.0708664443    1.5867276908   -0.7503167178
 C    2.4524593050    1.1565103032   -0.9268914706
 C    3.4487078377    2.0859618548   -0.2957985719
 N    4.2908939922    2.7899202440   -1.0036774530
 O    5.0292937810    3.5055759151   -0.1060168873
 N    4.6385851075    3.2444803273    1.1802320779
 C    3.6722335704    2.3765602493    1.0826280937
 H   -0.6295513220    1.7592959469    0.3877214688
 H    0.6420701836    2.1572212931   -1.4613577016
 H    2.5477252726    0.1640906144   -0.4776583154
 H    2.6641349064    1.0785432885   -1.9944817772
 H    3.1578995936    1.9834012254    1.9449626400