13

 O   -0.1882615303    0.0157954512    0.0017430553
 C   -0.0383775756    1.2047246654    0.0096950621
 N    1.1796850225    1.8806222830    0.0022194773
 C    1.2686448559    3.3382878740    0.0131461546
 C    2.7750370377    3.6045416737   -0.0007900802
 O    3.3274418426    4.6718536446    0.0019565442
 N    3.3611302264    2.3559588695   -0.0171658758
 C    2.4576879323    1.2824692136   -0.0162355632
 O    2.7410782903    0.1209541265   -0.0288068049
 H   -0.8764900296    1.9304650169    0.0244807819
 H    0.8041054009    3.7942392434   -0.8669602655
 H    0.8231133504    3.7797509343    0.9103035862
 H    4.3579342563    2.2005932539   -0.0291559622