16

 C   -0.2574973948    1.5796932229    0.0681268413
 C    0.0297544806    0.0816588753    0.0225939630
 C   -1.2255268616   -0.7371694314   -0.2953853151
 N    1.2321132585   -0.2720347889   -0.8076435153
 C    1.8919958515   -1.0077834785    0.3045165295
 C    0.7957740008   -0.4805079514    1.2409843246
 O    0.6084666680   -0.4803491069    2.4207111401
 H    0.6592227864    2.1432879898    0.2578161142
 H   -0.6721041205    1.9184534050   -0.8873952390
 H   -0.9792907454    1.8065171756    0.8590560303
 H   -1.6116331117   -0.4655903612   -1.2846529620
 H   -1.0182491719   -1.8124694356   -0.2914333937
 H   -2.0121306320   -0.5420641869    0.4396489920
 H    1.0069556110   -0.8622255775   -1.6009722036
 H    1.8888371644   -2.1040217263    0.2301486758
 H    2.9132597466   -0.6791050040    0.5259847479