21

 C   -0.1885155289    1.5040037445    0.1499328073
 C   -0.0020645561   -0.0045567590    0.0018630308
 C   -1.3485914716   -0.7411123822    0.0284859156
 O    0.6866429770   -0.1588667078   -1.2278098498
 C    0.7845077244   -1.4352579919   -1.8203309016
 C    1.3203849992   -2.5670187732   -0.9888133174
 C    1.4113962857   -2.6856223387    0.3342273660
 C    1.0072963373   -1.7255398702    1.4179287976
 O    0.8453773859   -0.3657029183    1.0795967914
 H    0.7912812966    1.9850821294    0.1255852460
 H   -0.7949389310    1.8929163870   -0.6709522616
 H   -0.6728903915    1.7340526396    1.1014143549
 H   -1.9793342049   -0.3801709960   -0.7880219634
 H   -1.2397494503   -1.8223677122   -0.0757927611
 H   -1.8582492844   -0.5379203426    0.9738779459
 H   -0.1886761124   -1.7496012949   -2.2396317411
 H    1.4441893771   -1.2887868196   -2.6841952868
 H    1.6319168968   -3.4181890747   -1.5937195986
 H    1.7918193386   -3.6265781507    0.7308816938
 H    0.0963532018   -2.1209599298    1.9032500891
 H    1.7799762307   -1.7262634985    2.1963000430