18

 O   -0.0792196138    0.0284938551   -0.2474439948
 C   -0.0742039302    1.2071260327   -0.0410282190
 C   -1.1404513231    2.2506051518    0.3341862782
 N   -0.0523217891    3.2573612994    0.4616495161
 C    0.9797630737    2.3182791022   -0.0394426297
 C    2.4101875013    2.2229242133    0.5683886534
 C    2.8061024887    1.4255132418   -0.7090428308
 C    1.9522399607    2.6215006334   -1.2214557961
 C    2.7421021106    3.5229750046   -0.2221206300
 H   -1.8638981576    2.4239490833   -0.4730090743
 H   -1.6879401155    2.0596287519    1.2631307232
 H   -0.1860717440    4.0717855895   -0.1264453575
 H    2.6545969044    1.9918494245    1.6050900282
 H    3.8652238916    1.4603550750   -0.9747662102
 H    2.3836926643    0.4274089145   -0.8240158782
 H    1.6698114761    2.8483121787   -2.2511387927
 H    2.2607458135    4.4423691057    0.1173548905
 H    3.7971785583    3.6876271125   -0.4584290061