21

 C    0.0667954973    1.5229823441    0.2095488220
 C    0.0158611783    0.0124088499   -0.0495864025
 C   -1.3913820433   -0.5249154931   -0.0708834222
 C   -1.7716121441   -2.0379318094    0.0528398445
 C   -3.0430753111   -1.3211671415    0.5848093687
 O   -2.1640900284   -0.3130829126    1.1745178051
 C   -3.5527833441   -0.5997649200   -0.6871677066
 C   -4.9508792027   -0.5887220288   -1.1950175587
 C   -2.4161339321   -0.0555773337   -1.1299653039
 H    1.1007320499    1.8776559445    0.2511114869
 H   -0.4495576728    2.0806455699   -0.5783695493
 H   -0.4191910383    1.7632551249    1.1588633467
 H    0.4914346215   -0.2290101964   -1.0089028699
 H    0.5817730387   -0.5169233752    0.7252299753
 H   -1.8434911802   -2.6380231038   -0.8570681074
 H   -1.2118010084   -2.5482630825    0.8415678049
 H   -3.7543926931   -1.7684706426    1.2794782584
 H   -5.6379013315   -0.1525123975   -0.4585774896
 H   -5.0364884574   -0.0136762225   -2.1212183107
 H   -5.3131268593   -1.6057302814   -1.3938464723
 H   -2.2211369590    0.5521560375   -2.0023570196