19

 C    0.4572157818    1.3659041910    0.0929208948
 C   -0.2181266857    0.0114052028   -0.0173184126
 O   -0.8381968296   -0.4681089802    0.9108631557
 C   -0.0790701618   -0.7164848005   -1.3125510730
 C   -1.1628836375   -1.7402517832   -1.6592611324
 C    0.1893153725   -2.2411642236   -1.2954000103
 C    1.1958138928   -2.5335120134   -2.4063239500
 C    1.3701045964   -1.1964648361   -3.0973972937
 C    0.7034641402   -0.2166134204   -2.4827326520
 H    1.5193764342    1.2897600540   -0.1639304442
 H    0.0096615446    2.0718132563   -0.6166563596
 H    0.3422133166    1.7497131681    1.1069727095
 H   -1.9396247236   -1.8549514171   -0.9115896468
 H   -1.4823913661   -1.7699697830   -2.6957185224
 H    0.2973772112   -2.7190127936   -0.3293864682
 H    2.1476397547   -2.9021974563   -2.0019953080
 H    0.8336285246   -3.3075373530   -3.0952691172
 H    1.9556148888   -1.0813488325   -4.0025397681
 H    0.6835704056    0.8188853907   -2.8026716415