19

 C   -0.1066250120    1.5060415049   -0.0456830517
 C    0.0626990355   -0.0001485301    0.0729349022
 O    0.8982235068   -0.5093760667   -1.0051062123
 C    1.8983870186   -1.2005192586   -0.3010599130
 C    1.1988699076   -2.0020036917    0.8695731377
 C    2.3595171674   -2.3727130226    1.7670673354
 C    3.1071410106   -1.2630712463    1.7952912785
 C    2.3538213650   -0.2926606188    0.9100110151
 C    0.8371973759   -0.5232353883    1.2805378572
 H    0.8490787041    2.0261252899    0.0617809949
 H   -0.5246786354    1.7605320648   -1.0238993409
 H   -0.7920333113    1.8741939850    0.7250801499
 H   -0.9198424808   -0.4862004585   -0.0021561435
 H    2.6136042961   -1.6659898383   -0.9804843797
 H    0.4171359598   -2.7305282834    0.6522686036
 H    2.5305184774   -3.3364307230    2.2249448659
 H    4.0533359457   -1.0765504707    2.2828523644
 H    2.7552471811    0.7055987774    0.7381379322
 H    0.4573146580   -0.2922345150    2.2770890240