18

 C    0.5789352557    1.3998615207    0.2129573920
 C   -0.2619889695    0.1631991416   -0.1288328250
 C    0.2238127255   -0.5100584340   -1.3909129233
 O    1.4533906690   -1.2479116122   -1.3171419078
 C    0.2588539477   -1.9611898104   -1.6336632640
 C   -0.2198313457   -3.0055017858   -0.6358662240
 C    0.4326090042   -4.2963785035   -0.8300414561
 C    0.9719173253   -5.3543748477   -1.0121992631
 H    1.6252264001    1.1205333878    0.3672588177
 H    0.5444369060    2.1378479793   -0.5958029807
 H    0.2152923343    1.8838550104    1.1239279848
 H   -0.2374079473   -0.5404733508    0.7083023210
 H   -1.3114530438    0.4518037187   -0.2729743269
 H    0.1586921365    0.1239094554   -2.2796176347
 H    0.2065035064   -2.2983663125   -2.6703598767
 H   -0.0392154124   -2.6506079376    0.3832199374
 H   -1.3065309399   -3.1247475727   -0.7446686344
 H    1.4527710278   -6.2890463466   -1.1617903061