19

 C   -0.0036555847    1.4041319720    0.0092370754
 O    0.0121605152   -0.0030730591    0.0012896761
 C   -1.2782598588   -0.5674315422    0.0111453563
 C   -1.1390105876   -2.0841163151    0.0014216362
 C   -2.5131193707   -2.7849853897    0.0113608109
 C   -2.4117696058   -4.2356826031    0.0023945946
 C   -2.3117504210   -5.4417975499   -0.0050322816
 C   -2.1982941994   -6.7978768227   -0.0135391901
 C   -2.0977112308   -8.0013260113   -0.0211522006
 H    1.0349839960    1.7430876797    0.0006204472
 H   -0.5184617990    1.8128536959   -0.8750298744
 H   -0.5004485191    1.8029850064    0.9081925988
 H   -1.8374588599   -0.2377632033    0.9053790672
 H   -1.8552553766   -0.2280206838   -0.8680104700
 H   -0.5749735151   -2.3882948818   -0.8855806750
 H   -0.5573124469   -2.3979406534    0.8735326981
 H   -3.0823639780   -2.4682696647    0.8961766242
 H   -3.0999603278   -2.4586775831   -0.8583418604
 H   -2.0079464600   -9.0589819507   -0.0277739229