19

 C   -0.0561441770    1.5787040813    0.0564871873
 C    1.4944613396    1.4404638125   -0.0171015075
 C    1.7671759342    0.8176377741    1.3667900624
 C    0.7684494019   -0.3801907189    1.2810435548
 O    1.3940247060   -1.6465441997    1.0415232268
 C    2.4103570374   -1.5930215181    0.0802616555
 O    2.0594055982   -0.8956348797   -1.1003567794
 C    1.1917913646    0.1948739156   -0.9312994746
 C   -0.0208390284    0.0296513388    0.0205982134
 H   -0.4673597520    2.0671873134    0.9432042145
 H   -0.5032627816    2.0023317016   -0.8459353796
 H    2.1353357917    2.2565660492   -0.3487689085
 H    2.7975149512    0.5046176646    1.5376798251
 H    1.4954729377    1.5030248703    2.1744452080
 H    0.1650737594   -0.5194766720    2.1790518992
 H    3.3269866191   -1.1514171262    0.5020526189
 H    2.6163753334   -2.6258617015   -0.2135961127
 H    0.9053937819    0.5077967546   -1.9369609070
 H   -0.8809487474   -0.5859549400   -0.2390170267