16

 O   -0.0193490541    0.0830412976   -0.5126987425
 C    0.0051293295    1.2149001216   -0.0810119834
 C   -1.2921625192    1.8608247420    0.3979197520
 O   -1.1539284474    3.0713193726    1.1475832689
 C    0.0235151318    3.7350241696    1.0686647931
 N    1.1194864513    3.3700934234    0.5563824376
 C    1.2184536153    2.0652807384   -0.0179011835
 C    2.5517970014    1.3393421273    0.1765731206
 C    2.2269520436    1.8979445387   -1.1592957352
 H   -1.9085392080    2.0651594522   -0.4882598896
 H   -1.8336036300    1.1442316108    1.0208031050
 H   -0.0690309724    4.7051755230    1.5502982640
 H    3.2660739206    1.8644542538    0.7985613313
 H    2.4840917084    0.2662300271    0.3112910749
 H    1.9393661336    1.2095379996   -1.9450466210
 H    2.7115340755    2.8155293223   -1.4695320821