19

 C   -0.0157831427    1.5918158223    0.1177488011
 C   -0.0303567615    0.0628516266    0.0027490849
 O    0.6418378413   -0.5345059157    1.1024607947
 C   -1.4721492399   -0.4690117953   -0.0365766050
 O   -2.0235150091   -0.2107232304    1.2547318473
 C    0.7193383158   -0.4408570718   -1.2599425333
 O    0.0288140906   -0.0726951820   -2.4537683280
 C    2.1161621165   -0.0090404040   -1.2919045927
 C    3.2499186452    0.3820558961   -1.3721138463
 H    1.0080362031    1.9454638523    0.2552069535
 H   -0.4390587026    2.0599217121   -0.7775156818
 H   -0.6175791936    1.9037100959    0.9748046638
 H    0.0046253547   -0.5273011521    1.8288023611
 H   -2.0468670060    0.0254581210   -0.8279279971
 H   -1.4520466932   -1.5489593530   -0.2412901101
 H   -2.8486176848   -0.6956513594    1.3386211431
 H    0.6912875006   -1.5364065357   -1.2216145111
 H    0.3602114874    0.7886562033   -2.7279691712
 H    4.2585792981    0.7101659999   -1.4278209829