15

 C   -0.0569978580    1.5098856386    0.0900278169
 C    0.0462498720   -0.0060969426   -0.0743249085
 C    0.7606050205   -0.4567483853   -1.3308496098
 N    1.2147319523    0.4333011605   -2.1431373031
 O    1.8423379667   -0.1136017402   -3.2443096756
 C    0.8957363308   -1.8552804526   -1.5520168849
 C    0.9832881557   -3.0549746488   -1.6917290936
 C    1.0869983719   -4.4039186116   -1.8581546932
 N    1.1739212857   -5.5545851128   -1.9974025097
 H    0.9319754091    1.9730905294    0.1267872937
 H   -0.6020188492    1.9627773110   -0.7417280828
 H   -0.5843236934    1.7446069039    1.0186304294
 H    0.5658350919   -0.4504674358    0.7844458429
 H   -0.9528782617   -0.4606911928   -0.0753394971
 H    2.1187082156    0.6653826091   -3.7412465546