20

 C    0.8928610436    1.3017154732   -0.3805874395
 C   -0.0547098252    0.2317935080    0.1698142113
 O   -0.5127400354   -0.7002741577   -0.7964436964
 C    0.4383782607   -1.5903783207   -1.3658597152
 C    0.5456956148   -2.8892937255   -0.5730126732
 N    1.1317409139   -2.6593240226    0.7411717405
 C    0.2838486729   -1.9065385575    1.6698966732
 C    0.4856505931   -0.4029250567    1.4661467347
 O    1.0123602451    0.2877618067    2.3063249543
 H    1.8469804257    0.8776631944   -0.7053009795
 H    0.4272804678    1.8102191657   -1.2283110680
 H    1.1061072967    2.0261961818    0.4073720671
 H   -0.9779922825    0.7357064149    0.4905220119
 H    0.0817737909   -1.8085329654   -2.3784865043
 H    1.4287333235   -1.1260806936   -1.4458865223
 H   -0.4614370930   -3.3430169015   -0.5198994989
 H    1.1955305325   -3.5807885622   -1.1219430047
 H    1.3864942069   -3.5411940453    1.1667894981
 H   -0.7888832780   -2.1508044099    1.5654164356
 H    0.5967201062   -2.1204545161    2.6939448753