16

 C   -0.7034337639    1.0851615904    0.3495999382
 C    0.1192458153   -0.1834960421    0.2658925038
 O    0.8177665467   -0.5847684447    1.1651776395
 C    0.0347422920   -0.9310468024   -1.0562634996
 C    0.4754702210   -2.3965773427   -1.1135659824
 N   -0.4597327981   -3.1216311290   -0.2527232269
 C   -0.8463063697   -2.8420150148   -1.6794268816
 C   -1.3451005372   -1.4158769446   -1.6359386303
 O   -2.3229379059   -0.8409165256   -2.0076854297
 H   -0.2930184684    1.8363835321   -0.3363895653
 H   -1.7327367532    0.8983954759    0.0261080870
 H   -0.6811386505    1.4766559773    1.3671813506
 H    0.4890098302   -0.3201361902   -1.8476421931
 H    1.4580753258   -2.7780112329   -1.3531322544
 H   -0.1755908648   -4.1009638465   -0.2235116510
 H   -1.1062380994   -3.6427216203   -2.3586892746