18

 N   -0.3796111758    1.4729580690   -0.2802619660
 C   -0.1921509080    0.0921582015   -0.0974413696
 C   -1.1410992464   -0.9234052046   -0.0912847677
 C   -2.6381449299   -0.9368309464   -0.1626819969
 C   -3.2470165244   -0.2927817641   -1.4110371286
 O   -3.1667618451    1.1238256345   -1.2667741764
 N   -0.4241710079   -2.0826463787    0.0378500544
 N    0.8983840373   -1.8971614271    0.1370306191
 C    1.0471135791   -0.5771712764    0.0459928349
 H    0.0685691693    2.0283867865    0.4374313917
 H   -1.3614040019    1.7112627865   -0.3595977529
 H   -2.9845382458   -1.9763460930   -0.1139557397
 H   -3.0752935499   -0.4279741435    0.7073563181
 H   -2.7101006241   -0.6312656437   -2.3069247038
 H   -4.2994218546   -0.6006028576   -1.5043476004
 H   -3.2542763969    1.5276453610   -2.1348951601
 H   -0.7911001668   -3.0182789448    0.0778592925
 H    2.0340582320   -0.1389110889    0.0856338014