19

 C   -0.1789827197    1.5526245790    0.0427505752
 C    0.0225582202    0.0330668961   -0.0098143132
 C    0.8189423700   -0.4747688925   -1.2155528820
 C    2.2645537966   -0.0785345794   -1.3554233260
 C    1.9071525462   -1.4061216520   -0.7057815173
 C    1.7911070674   -1.3624396067    0.7733744921
 C    0.8018883546   -0.5449651175    1.1792406903
 C    0.4688790201   -0.2256268241    2.5158769360
 C    0.1405657509    0.0729701287    3.6373648366
 H    0.7791711308    2.0805554673    0.0176928569
 H   -0.7750792172    1.8918213083   -0.8101471117
 H   -0.6994268123    1.8423123152    0.9602531842
 H   -0.9731460159   -0.4331069904   -0.0197739905
 H    0.2741854707   -0.7097471630   -2.1224581471
 H    2.6843189925   -0.1119861969   -2.3555328405
 H    2.6736157410    0.6981579833   -0.7180330673
 H    2.1785944826   -2.3284625140   -1.2066993653
 H    2.4525341354   -1.9026519426    1.4403361562
 H   -0.1339959141    0.3240038413    4.6316310833