18

 C    0.2034399763    1.0250164545    0.1599687557
 O   -0.0865818016   -0.3544380629    0.3661478535
 C   -1.3823003941   -0.7328101770    0.0185627792
 C   -1.7082087052   -1.0208998269   -1.4393883334
 C   -1.5269542041   -2.1584501248   -0.4680490191
 C   -0.2688998753   -3.0090112233   -0.5043010820
 O    0.1829590974   -3.3481295451    0.7906718520
 C   -2.4216926785   -0.1688706569    0.8555429392
 N   -3.2386738436    0.3019276588    1.5255899312
 H    1.2462633852    1.1682284765    0.4471339055
 H    0.0714111921    1.3033106921   -0.8933523970
 H   -0.4364546183    1.6618370619    0.7828216207
 H   -2.7008219751   -0.7810649912   -1.8013975562
 H   -0.9013282470   -0.8322964660   -2.1398658445
 H   -2.4212884200   -2.6717926965   -0.1304783189
 H   -0.4861846643   -3.9522415822   -1.0159429160
 H    0.5096688160   -2.4915302724   -1.0813028281
 H    0.4488908900   -2.5217261486    1.2107971183