13

 O   -0.0570100208   -0.0408824171    0.0052303557
 C   -0.0015511035    1.1646336478    0.0100715676
 C   -1.2092018835    2.1093266177    0.0310651313
 C   -0.7981190475    3.3886809273    0.0313253726
 C    0.6757043198    3.3663243347    0.0110174973
 C    1.1715859662    2.0755967892   -0.0017927939
 C    2.5700150823    2.2274565539   -0.0202824629
 N    2.9140521958    3.5178584516   -0.0189457266
 N    1.7279487120    4.1948594815    0.0004839571
 H   -2.2257791465    1.7417265696    0.0433392854
 H   -1.4158744443    4.2768430283    0.0439360257
 H    3.3447240624    1.4757508828   -0.0344269166
 H    1.7520290278    5.2013769625    0.0048616072