20

 C    0.2077491412    1.4243415571    0.1345533267
 C   -0.0683172781   -0.0846151674   -0.0008705250
 C   -1.5786117548   -0.3269008683   -0.0801987744
 C    0.6733748583   -0.6614708334   -1.2435653784
 C    2.1253698891   -0.8818430279   -0.7954787469
 C    2.0421149161   -1.1074303053    0.7207479105
 O    2.9550688236   -1.4320541650    1.4347344306
 C    0.5989296852   -0.8500128420    1.1630657882
 H    1.2787758523    1.6440151551    0.2010835740
 H   -0.1912448792    1.9727710939   -0.7255474278
 H   -0.2647501880    1.8262105916    1.0372693876
 H   -2.0109045941    0.1756306957   -0.9529925985
 H   -1.8045356110   -1.3955502968   -0.1632363944
 H   -2.0906170408    0.0565076181    0.8092171063
 H    0.2201357473   -1.6211379626   -1.5189539573
 H    0.5842745570   -0.0034523612   -2.1129435257
 H    2.6307137733   -1.7216715154   -1.2795062534
 H    2.7535351211    0.0001171720   -0.9678645368
 H    0.5657600915   -0.3413534573    2.1301696988
 H    0.1258572699   -1.8328545608    1.2999429957