19

 O    0.0071216732    0.3472352334    1.1001462024
 C   -0.0129533088    1.2402246868    0.2865908381
 C   -1.3135757392    1.8277376345   -0.2447120680
 C   -1.1323404353    3.1517435173   -0.9756517365
 C   -0.0648485417    3.2539449825   -2.1113263863
 C   -0.0802946520    4.7906625639   -1.8873723303
 C   -0.0562480211    4.1681097536   -0.4656048908
 C    1.0311638149    3.1771980603   -1.0010976637
 C    1.2606342395    1.8580243042   -0.2749884863
 H   -1.7643389511    1.0824020638   -0.9153595709
 H   -2.0054894356    1.9228756452    0.5997165096
 H   -2.0987678399    3.6024301921   -1.2245410143
 H   -0.0698309152    2.7230596592   -3.0660107803
 H    0.8139768056    5.3383947757   -2.1964245780
 H   -0.9942240798    5.3171205271   -2.1751575303
 H   -0.0512595354    4.6983071506    0.4889110253
 H    1.9806013593    3.6504256970   -1.2725202736
 H    1.9697848975    1.9696464299    0.5529615559
 H    1.7129103443    1.1233133732   -0.9562570326