23

 C    0.1323146420    1.3490946240   -0.3593646596
 C   -0.0459846821    0.0337232960    0.4108379279
 C   -1.4545354930   -0.5284686459    0.3182303527
 C   -2.5436070913    0.2676795722    1.0057490353
 O   -1.8085343617   -1.0188751841   -0.9972008438
 C   -1.6601597540   -1.9634610226    0.0499590463
 C   -0.6492453406   -3.1174827886    0.0419947115
 C   -1.6767583293   -3.9508436090    0.8645601314
 C   -2.7760071286   -2.8961243616    0.5392374199
 H    1.1760384000    1.6758340368   -0.3309642305
 H   -0.1552051819    1.2165525692   -1.4065514423
 H   -0.4764914814    2.1564854491    0.0593143604
 H    0.6552321301   -0.7071522765    0.0151498755
 H    0.2095909664    0.1790320381    1.4686801363
 H   -2.5983901907    1.2839345518    0.6031517218
 H   -3.5191450386   -0.2010352223    0.8626306683
 H   -2.3466345226    0.3441285687    2.0810784801
 H   -0.5036688106   -3.5073608103   -0.9698483876
 H    0.3305693269   -2.9401963143    0.4922169209
 H   -1.8629811061   -4.9697621834    0.5214466830
 H   -1.4308091895   -3.9810212780    1.9284866486
 H   -3.4015810211   -2.5490409811    1.3652718458
 H   -3.4245732722   -3.2037399881   -0.2863963119