21

 C   -0.2890747807    1.6784239592    0.1449048842
 C   -0.0021944280    0.1809403390    0.1059671226
 C   -1.3078469347   -0.6306995601   -0.0267029413
 O   -1.8992440743   -0.4361928293   -1.2916674694
 O    0.7617311083   -0.1129596678   -1.0943536436
 C    1.9871056906   -0.7580216976   -0.7597192953
 C    1.7425166270   -1.4007824682    0.6054030511
 C    0.8503055210   -0.3467760301    1.2827846253
 O    1.6158969117    0.7246688489    1.8175136419
 H    0.6374674868    2.2503308157    0.0918884122
 H   -0.9287307122    1.9386034454   -0.7015865691
 H   -0.8064824599    1.9480889033    1.0704300065
 H   -1.0955469893   -1.6983707695    0.1532958252
 H   -2.0334742327   -0.3045932787    0.7265208179
 H   -1.1711506605   -0.5215704204   -1.9221459065
 H    2.2281062770   -1.4760204901   -1.5491812288
 H    2.7987513323   -0.0196052319   -0.6993409568
 H    1.2030982966   -2.3473814342    0.4983352748
 H    2.6596410754   -1.5924200826    1.1697676545
 H    0.2059301214   -0.7836052489    2.0590994078
 H    2.1477846542    0.3757113277    2.5393564068