18

 O    0.0285310125   -0.0976086738    0.0294879102
 C    0.0574786740    1.1043819508    0.0962026545
 C    1.3014327830    1.9454865982    0.0224611268
 C    1.1670346917    3.2040050368   -0.9115096274
 C    1.3619487967    4.1429269711    0.3066921625
 C    1.4643637894    2.9232975533    1.2428851257
 C    2.8859178582    3.4005805189    1.5754032467
 C    3.7405394702    3.5974607323    0.3925546564
 N    2.7459415724    4.6434637690    0.6913784766
 H   -0.8834787250    1.6916725221    0.2306420245
 H    2.1555761536    1.2919501808   -0.1635097372
 H    1.8905678484    3.2775107333   -1.7260654841
 H    0.1650734648    3.3009555721   -1.3411734809
 H    0.6359621356    4.9432801969    0.4451689783
 H    0.8066783883    2.7813383025    2.0999848088
 H    3.2766884832    3.4715866530    2.5857585689
 H    4.7538767813    3.9437434198    0.5740490869
 H    3.6452514916    2.9734581929   -0.4898874573