21

 C   -0.2316325841    1.5977209362   -0.0334062761
 C   -0.0073404039    0.0934528763    0.0244474543
 C    1.1638265474   -0.6055090441   -0.7308045831
 C    2.1458978983   -0.0745405961    0.3676899872
 C    3.4744557790   -0.7977717173    0.5886875520
 C    3.3015750925   -2.2908462939    0.5836626427
 C    2.0794370657   -2.7840850583    0.3976407423
 C    0.9294262384   -1.8444651597    0.2016077532
 C    0.8702515034   -0.5778052974    1.1243312398
 H    0.6805157761    2.1847967082    0.0992241778
 H   -0.6674265024    1.8803616780   -0.9983082596
 H   -0.9382342792    1.9071609026    0.7449417539
 H   -0.9652464417   -0.4219102548   -0.1194127365
 H    1.3378909510   -0.6376348337   -1.8090678400
 H    2.2970456598    1.0064444505    0.3755074892
 H    4.1934451145   -0.4936424501   -0.1864809783
 H    3.9205315611   -0.4678473551    1.5386824471
 H    4.1702772432   -2.9258709197    0.7306417521
 H    1.8873261164   -3.8528966978    0.3832341196
 H   -0.0274801197   -2.3534394075    0.0577776209
 H    0.7027799842   -0.5776681363    2.2041191013