20

 C    0.0082199499   -1.1857547908   -0.2713637623
 C   -0.0094794212    0.0018629400   -0.0858296399
 C    0.0039188987    1.4429606087    0.1336392979
 C    1.4134375957    2.0589789428    0.0248320626
 C    1.4119770755    3.5742131150    0.2589743255
 C    2.7916546065    4.1900195869    0.1606635959
 C    3.3552906998    4.5897990074   -1.1805738620
 C    2.9595817965    5.6485281900   -0.1794604008
 H    0.0119014793   -2.2348744717   -0.4335511890
 H   -0.6630966138    1.9282670129   -0.5915019174
 H   -0.4160256708    1.6652453991    1.1237556452
 H    2.0716882864    1.5697289528    0.7524393251
 H    1.8280162766    1.8359279531   -0.9645445604
 H    0.7493977973    4.0567256865   -0.4729745750
 H    0.9813000380    3.7904628994    1.2469612753
 H    3.5099938135    3.7862457585    0.8706871939
 H    4.4104404531    4.4286939551   -1.3718079050
 H    2.7229154731    4.4588186878   -2.0531350425
 H    2.0637045278    6.2267177264   -0.3821158912
 H    3.7448828880    6.2089843200    0.3156982041