14

 O   -0.0129075139    1.4575186429   -0.0555336570
 C    0.0512443547    0.0443760053   -0.0452588045
 C    0.7284615191   -0.4737940592   -1.2488471780
 N    1.2948231000   -0.8299502743   -2.1903391224
 C    0.7224637951   -0.4839161868    1.2310206053
 C   -0.0103951344   -0.1844818579    2.5489057614
 O   -0.2061775697   -1.6188576784    2.7757301790
 C    0.4300277063   -1.9484865623    1.6070513453
 O    0.6113138727   -3.0254628170    1.1456560201
 H    0.8735119096    1.8063403933   -0.2078901198
 H   -0.9913869476   -0.2924976865   -0.0681542646
 H    1.7897285351   -0.2491145339    1.2293809533
 H    0.5881511574    0.2565075481    3.3469106238
 H   -0.9676876042    0.3310220866    2.4532942379