17

 C   -0.0443149137    1.3946730958    0.0395403504
 O   -0.0795306392   -0.0144884632   -0.0353681044
 C    0.5811561235   -0.5683943940   -1.0890151610
 C    0.6404213482   -1.9297318740   -1.3037704527
 N    1.3703502410   -2.1364381573   -2.4548689441
 C    1.7214988314   -3.4329913078   -2.9892734197
 C    1.7726292502   -0.9323134908   -2.9570168358
 C    1.2999969269    0.0726083834   -2.1369907756
 H    0.9840818542    1.7702781452    0.1329024854
 H   -0.5089310599    1.8594504937   -0.8411167669
 H   -0.6093578570    1.6741633693    0.9310215436
 H    0.2260098620   -2.7475297085   -0.7389346100
 H    0.8363435673   -4.0735347048   -3.0523229019
 H    2.1280951470   -3.3077050518   -3.9947766485
 H    2.4721139824   -3.9368767348   -2.3690355869
 H    2.3642257534   -0.8823125812   -3.8574865494
 H    1.4451983221    1.1298375808   -2.2860764724