15

 C    0.0642527660    1.4444886661   -0.3672903099
 C   -0.0807592506    0.0658405249    0.2984925629
 C   -1.4442293525   -0.5334395753    0.1213573914
 N   -2.2953771666   -0.5966991416    1.1454382969
 N   -3.4081316314   -1.1586180453    0.6317558671
 C   -3.2932323291   -1.4575571449   -0.6840168867
 C   -2.0272174920   -1.0647520914   -1.0570566168
 H    1.0722055608    1.8451509696   -0.2198609744
 H   -0.1207678876    1.3861622680   -1.4447570813
 H   -0.6514771787    2.1562182459    0.0552203141
 H    0.6743991419   -0.6153879642   -0.1126424735
 H    0.1159221229    0.1497562759    1.3715473302
 H   -4.1961029536   -1.3179681994    1.2353823127
 H   -4.0987231759   -1.9173306595   -1.2348657054
 H   -1.5834440433   -1.1507928689   -2.0359632374