18

 C   -0.2786375253    1.7172202955   -0.2670010838
 C    0.0175893555    0.2652316716    0.0294690039
 C    0.6814305244   -0.5926940614   -1.0735575553
 C    1.8390685392   -0.6582077132   -0.1050098106
 O    1.2222210441    0.1069483982    0.8636948449
 N    2.9721370935   -1.1910605629   -0.1096459770
 C    3.8387828140   -1.0049244199    1.0411043450
 C    5.2943870269   -0.9814617949    0.5996192382
 O    6.1906541840   -0.5284059892    1.2614506375
 H    0.5713333669    2.1952778988   -0.7633599649
 H   -1.1532775636    1.7956014667   -0.9212695521
 H   -0.4923638932    2.2634677842    0.6562403060
 H   -0.8237726046   -0.2229994434    0.5299710731
 H    0.2079493466   -1.5515458676   -1.2901943372
 H    0.8958943103   -0.0722298963   -2.0092556183
 H    3.6261492031   -0.1076787840    1.6354630600
 H    3.7379139546   -1.8656539303    1.7216400478
 H    5.4649331634   -1.4417477319   -0.3990463572