19

 C   -0.3831326252    1.6225759119   -0.0134113927
 C    0.0073401018    0.1534788706    0.0435790733
 C    1.0324457310   -0.5265838673   -0.8983431446
 C    2.3469737430    0.2535802126   -1.0850092350
 C    2.9715867669    0.5775435732    0.2667905559
 O    2.3365028344    1.5682040238    1.0857240779
 C    2.1960813923    0.1894953775    1.4530053570
 C    0.8929820617   -0.5334967621    1.1200570867
 O    1.2443794090   -1.5465810429    0.1230212976
 H    0.4741397915    2.2912037621   -0.0354318611
 H   -1.0026257204    1.8026472236   -0.8996968751
 H   -0.9887347472    1.8870514158    0.8606261089
 H   -0.9003694917   -0.4564692508   -0.0091088206
 H    0.6761568292   -0.9547755383   -1.8395901114
 H    3.0467880104   -0.3807473321   -1.6403394058
 H    2.1913177265    1.1619905024   -1.6789728063
 H    4.0584726784    0.6042372648    0.3142854651
 H    2.6978434381   -0.0855157824    2.3786909125
 H    0.4116983005   -0.9720283626    1.9976547979