23

 C    0.1579720792    1.6159617504   -0.2471034189
 C    0.0100473740    0.1261639836   -0.0235723771
 C    1.1823214484   -0.8105720450   -0.1531068668
 C    0.5438381214   -0.5865427555    1.2034645931
 C    1.2945116336    0.1375396477    2.2780746197
 O    0.4228683137    0.7447746255    3.2678082258
 C    1.2070523243    0.2119477076    4.3522466220
 C    2.0487079791   -0.6549990537    3.3904417615
 C    1.8198239329   -2.1585164904    3.4810766515
 H    1.1459662865    1.9802663947    0.0477492894
 H    0.0252408180    1.8592847051   -1.3070440059
 H   -0.5868824471    2.1790175013    0.3249582787
 H   -0.9377442221   -0.2712737073   -0.3779812504
 H    1.0485942285   -1.7722212119   -0.6360317503
 H    2.1579878971   -0.3634951738   -0.3218334824
 H   -0.0848535582   -1.3906655255    1.5732213941
 H    1.9434840410    0.9031361668    1.8294830749
 H    1.7655226848    0.9963332053    4.8811631798
 H    0.5880987354   -0.3315357349    5.0774938520
 H    3.1205534610   -0.4411355448    3.4158766000
 H    0.7534751547   -2.4029138494    3.5212725528
 H    2.2537482444   -2.6826662244    2.6235433656
 H    2.2839307595   -2.5602722015    4.3883552810