17

 O   -0.8814319322    1.4133750439    0.6162976458
 C   -0.1745746312    0.3052579195    0.1193274552
 C   -1.0827048871   -0.8675448072   -0.2251688885
 O   -1.8814192639   -0.5424784281   -1.3695605434
 C   -3.2646785079   -0.5708574991   -1.2476922404
 C   -3.8973415237    0.8222287105   -1.1323350053
 O   -3.2705898516    1.8312965060   -0.9447285887
 C   -3.8723889195   -1.2869910237   -2.4621971851
 O   -5.0553582064   -1.3923976893   -2.6418186971
 H   -1.5126565094    1.6933912966   -0.0634742190
 H    0.4233135896    0.5563657630   -0.7719838325
 H    0.5231262014   -0.0140183915    0.9029640759
 H   -0.4854993410   -1.7560325557   -0.4697396439
 H   -1.7254079565   -1.1002789877    0.6334695589
 H   -3.6116125457   -1.1332247250   -0.3623817843
 H   -4.9981294255    0.8224108264   -1.2534783075
 H   -3.1042894993   -1.6858724984   -3.1575343002