17

 O   -0.0987786553   -0.0538769584    0.0714468671
 C   -0.0880307631    1.1504961295    0.0693390725
 C   -1.3873505823    2.0168226919   -0.0505835287
 C   -1.2196166056    2.9257641267    1.1334860959
 C   -0.0725844755    3.6119460490    1.1949913811
 C    0.9628599730    3.4869963518    2.3013084897
 C    1.8619139747    2.8890120554    1.1841611752
 C    0.9902940387    3.4764780094    0.1037215422
 C    1.1804100066    1.9896811533    0.1009832601
 H   -1.3741919939    2.5344338521   -1.0153971416
 H   -2.2653067838    1.3730670551   -0.0025294881
 H   -1.7772129395    2.7016032331    2.0392315936
 H    1.4174661816    4.4307274800    2.6239359175
 H    0.7001857575    2.8811122562    3.1729101391
 H    2.9467038265    2.8852303099    1.2187581901
 H    1.2294483449    4.1604474986   -0.7002552098
 H    1.9403520555    1.5694761365   -0.5552913260