18

 N   -0.0547880888    1.4358866429    0.1184629981
 C    0.0115554210    0.0167784830    0.0021840966
 C    0.3245101549   -0.8359846982   -1.2737280226
 N   -0.4036106928   -1.9620379036   -0.5719574797
 C    0.5319582685   -2.1813874229    0.5806554735
 C    0.8604632130   -0.7272189461    1.0464295790
 C   -1.2897475910   -0.8627031479   -0.0034821604
 C   -2.0071790855   -1.1327490208    1.2322902828
 N   -2.5608075309   -1.3315034811    2.2277150472
 H    0.8547315296    1.8428158707    0.3050677587
 H   -0.4292147092    1.8726799768   -0.7167299343
 H   -0.2273997600   -0.5198333193   -2.1630242153
 H    1.3656388582   -1.0540885167   -1.5255919469
 H    0.0367074042   -2.7768324054    1.3491744129
 H    1.4040642632   -2.7317418679    0.2223578908
 H    1.9208090103   -0.4716867266    0.9575473917
 H    0.5354856570   -0.5139404704    2.0672938421
 H   -1.9982436018   -0.5446636366   -0.7727745842