23

 C   -0.0556456151    1.2250109975   -0.7593908651
 O    0.0518147887   -0.0201730195   -0.0969872963
 C   -1.1943296445   -0.6871226737    0.1451510923
 C   -1.0369820037   -2.1078998780   -0.4049968232
 O   -0.6117984040   -2.0956114772   -1.7516893202
 C   -1.5319076895   -0.6821010517    1.6389702828
 C   -1.6929042941    0.7000056750    2.2356413860
 C   -2.9992638044    1.4457378858    2.1036262082
 C   -2.5630868516    0.9119040372    3.4468063337
 H    0.9609764454    1.6065458067   -0.8892370893
 H   -0.5242592189    1.1189261082   -1.7484492386
 H   -0.6348181771    1.9541110313   -0.1772432853
 H   -1.9885410385   -0.1799661198   -0.4202237505
 H   -0.3306647842   -2.6635844947    0.2341072174
 H   -1.9982244406   -2.6311946192   -0.3730280527
 H    0.1749414312   -1.5365805476   -1.7564741825
 H   -2.4584479449   -1.2538208392    1.7849898452
 H   -0.7407156383   -1.2235385075    2.1737838971
 H   -0.7921773927    1.3048862923    2.1919861890
 H   -2.9747429680    2.5178575762    1.9419040260
 H   -3.8217054873    0.9430662526    1.6040912569
 H   -3.0937208683    0.0531146559    3.8456869427
 H   -2.2371653797    1.6193217193    4.2013555563