18

 C    0.1853497155    1.6127932648   -0.1580168191
 C   -0.0143510357    0.1128051099   -0.1820656741
 C   -1.4427504610   -0.3906133075   -0.3126910552
 C   -2.2955053975   -0.0820761886    0.9340549653
 C   -3.6313620719   -0.7851302977    0.8797914769
 O   -4.7034661130   -0.2424772203    0.9502047656
 C    1.0912839861   -0.7582423727   -0.6092341570
 O    0.7683052478   -0.6161767765    0.7774551533
 H    1.2442979150    1.8550327256   -0.0425337197
 H   -0.1782320451    2.0676091626   -1.0857630503
 H   -0.3578168959    2.0698322034    0.6749822343
 H   -1.9078262191    0.0527217263   -1.2016190468
 H   -1.4182337803   -1.4749594932   -0.4694620351
 H   -1.7544202064   -0.4560518156    1.8145820761
 H   -2.4736824207    0.9885874952    1.0619297093
 H   -3.5578092043   -1.8925117043    0.7590347216
 H    0.8778465645   -1.7350413837   -1.0421067358
 H    2.0395179020   -0.3170112478   -0.9144560893