18

 C   -0.0757109368    1.4336486558   -0.1911775687
 N   -0.1356517889    0.0003709113    0.0251928121
 C   -1.3294020446   -0.6424360395    0.0315852898
 N   -2.4991918949   -0.1142230209    0.0841389862
 C   -3.4223324542   -1.2194859965    0.0642080452
 C   -3.4147994221   -2.0993860462   -1.1874388504
 N   -2.8453726922   -1.6551855468   -2.4268393604
 C   -2.5755404475   -2.4752670657    0.0174504350
 O   -1.2328710113   -2.0075282917    0.0080378313
 H    0.9291815808    1.7872827673    0.0491192830
 H   -0.3186077602    1.7188115883   -1.2239369590
 H   -0.7919775662    1.9238692465    0.4705928137
 H    0.6562537666   -0.5601277213   -0.2418772705
 H   -4.3356209525   -1.1095937486    0.6367225795
 H   -4.3078522074   -2.7154763966   -1.2844423323
 H   -2.7016768298   -0.6502511157   -2.4050407165
 H   -1.9393061101   -2.0819450155   -2.5888558096
 H   -2.6962078986   -3.3942535841    0.5762253714