22

 C    0.2453728094    1.4559459522   -0.3574739850
 C   -0.1563607093    0.0258505248    0.0302537129
 C    0.5194016491   -0.4655880357    1.2884868328
 N    1.9635153170   -0.8628262577    1.2457001334
 C    0.9233214894   -1.8767702135    1.5392776993
 C    0.7550648693   -2.1710627537    3.0235214925
 C    0.2967813789   -0.8382620171    3.5988729759
 C    0.0935854810   -0.6530802124    5.0685956393
 C    0.1511463255    0.0777223279    2.6353543261
 H    1.3264595093    1.5333701561   -0.5114772487
 H   -0.2519159844    1.7659945219   -1.2815766918
 H   -0.0277715282    2.1726766904    0.4235929751
 H   -1.2444616796   -0.0265044252    0.1639505877
 H    0.0856610905   -0.6582020200   -0.7937007473
 H    2.2348946708   -0.9727046750    0.2680521603
 H    0.7429427241   -2.6575335897    0.8070498177
 H    0.0117809331   -2.9609637223    3.2001072202
 H    1.6933535092   -2.5086654559    3.4813924169
 H    1.0294379939   -0.8101215325    5.6200878975
 H   -0.2708708656    0.3509848864    5.3023621716
 H   -0.6261980370   -1.3807830979    5.4655020976
 H   -0.1593554966    1.1041772389    2.7970002060