22

 C   -0.2237282370    1.6726286934    0.0450716591
 C   -0.1514719974    0.1539380790   -0.1092246849
 N   -1.4510049988   -0.5125061175    0.0292513869
 C   -2.3311947606   -0.2558364447   -1.1052889695
 C   -1.3136350155   -1.9371749263    0.3129603245
 C   -1.1109470049   -2.1678263919    1.8368712571
 N   -2.1716298156   -1.6077328027    2.6780023784
 C   -0.9583136343   -3.6038396294    2.0990768365
 N   -0.8499314006   -4.7422661189    2.2636149626
 H    0.7847038779    2.0967788797    0.0267506784
 H   -0.7903907678    2.1455339855   -0.7617397568
 H   -0.6946153697    1.9409207394    0.9953780048
 H    0.3186747692   -0.1043251399   -1.0774891394
 H    0.5116053330   -0.2412263622    0.6670198951
 H   -1.9266136548   -0.6361528215   -2.0612570878
 H   -3.3023982124   -0.7281691116   -0.9340466288
 H   -2.5015933610    0.8175938343   -1.2159400256
 H   -2.2366123386   -2.4474294063    0.0201742140
 H   -0.4917665395   -2.4089237242   -0.2534592963
 H   -0.1693708867   -1.6897249085    2.1374298700
 H   -2.3593161685   -0.6778126408    2.3065845692
 H   -3.0247886767   -2.1460404749    2.5473688725