15

 O    0.0006973211    0.2005329719   -0.7337658489
 C    0.0092733372    1.2680508173   -0.2007996652
 C   -1.0924220734    2.2018838866    0.3428705725
 C    0.0043984361    3.2586342358    0.7021728118
 C    0.6564866296    3.0005861828    2.0812590272
 O    1.5519230492    2.0049979856    1.5355911594
 C    1.1249326947    2.2656071054    0.1848152226
 C   -0.1783819777    4.6083957958    0.2487529685
 C   -0.3339013518    5.7406705660   -0.1261091834
 H   -1.7633908450    2.5345736947   -0.4541391836
 H   -1.6924759918    1.8203050853    1.1732188190
 H    1.2122624698    3.8584645863    2.4740815569
 H   -0.0006833473    2.5946499034    2.8582575034
 H    1.9414977041    2.5002339204   -0.5017624839
 H   -0.4680532546    6.7407369127   -0.4577352262