15

 N   -0.2093582274    1.0692905179   -0.7694088863
 C   -0.0956961673   -0.0120420714   -0.1556547793
 O    1.0279874597   -0.6211115576    0.4123812605
 C    0.2706036549   -1.8058524196    0.7643635153
 C   -0.3734395127   -1.7309405078    2.1804333074
 N   -1.5175075589   -0.9639957678    1.6401639838
 C   -1.0277149255   -1.1442235156    0.2441868316
 C   -0.7287476439   -3.0956284808    2.7218728410
 O   -1.8455022558   -3.5481117132    2.7054859127
 H    0.6774405080    1.5732633254   -0.8228887770
 H    0.7505418407   -2.7195656174    0.4167523381
 H    0.2395939271   -1.1980911248    2.9190055881
 H   -2.3829296987   -1.4706904679    1.8081199667
 H   -1.7215910564   -1.5467093169   -0.4912155800
 H    0.1283195559   -3.6714769525    3.1351243175