14

 O    0.0101272127   -0.0585050067    0.0476861019
 C   -0.0326053216    1.1411294193    0.0129858439
 N   -1.1754526824    1.8976655861    0.0373676689
 C   -1.1354603276    3.3307255482   -0.0084641641
 C   -0.0951703572    3.9580612943   -0.9808228056
 O   -0.0198949369    5.1390830507   -0.1109317169
 C   -0.0191262248    4.0139436520    0.8331261488
 C    1.0006776009    3.2979213955   -0.0970046354
 O    1.1136206275    1.8889597884   -0.0583158169
 H   -2.0428701537    1.3912212894    0.0892597388
 H   -2.1249174821    3.7840796924    0.0190078919
 H   -0.1351595658    4.1056550786   -2.0587442088
 H    0.0307786389    4.2275950088    1.8995030996
 H    2.0009062721    3.7229383228   -0.1520610260