21

 C   -0.0796911073    1.1502245241    1.1144278394
 C   -0.0215949638   -0.0845297176    0.1987241769
 C   -1.4395745378   -0.6675579768    0.1878020477
 O   -2.2524916097    0.2322887330   -0.5740634697
 C    0.7721361652    0.0371585680   -1.1596699661
 C    2.0837963243    0.0655300298   -0.3140790628
 C    1.2116130526   -1.0657731636    0.3132936464
 C    1.0045835188   -1.5124571168   -1.1609181111
 O    0.0042455569   -2.4531931036   -1.4673648682
 H    0.7732246730    1.8247328920    1.0404787379
 H   -0.9765031055    1.7239139387    0.8665077613
 H   -0.1663556146    0.8375938384    2.1619850620
 H   -1.4722712143   -1.6689642154   -0.2351908335
 H   -1.7957951789   -0.7178853829    1.2305990430
 H   -3.1547987869   -0.0984928943   -0.5513003487
 H    0.5233191103    0.6727783993   -2.0108063854
 H    2.9954368285   -0.2574063117   -0.8230381125
 H    2.2772619236    0.9433133062    0.2934641214
 H    1.4752191503   -1.7036921512    1.1595820508
 H    1.9386961059   -1.8072666601   -1.6574940283
 H   -0.1095321507   -2.4585699455   -2.4229991106