13

 O    0.0895787547    1.3259534476    0.0907131979
 C    0.0661728101   -0.0072909638   -0.0197636881
 C   -0.4395492473   -0.5855980035   -1.2018130727
 N   -0.4787333963   -1.8962340922   -1.3474070849
 C   -0.0194087738   -2.6458124656   -0.3281981935
 C   -0.0660480443   -4.1167281537   -0.4977217633
 O    0.3125579681   -4.9070227345    0.3352782138
 C    0.4778059923   -2.0585280958    0.8347784138
 N    0.5223363620   -0.7348290282    0.9931648549
 H    0.4656818764    1.5288523664    0.9601193554
 H   -0.8037355545    0.0433062713   -2.0084338355
 H   -0.4871664000   -4.4327346615   -1.4747752325
 H    0.8438638727   -2.6795357564    1.6460158048