17

 C   -0.4576983321    1.5450455120   -0.0104317166
 C    0.0603320048    0.1159991524   -0.0624079122
 N    1.1718702522    0.0481486584   -1.0863951791
 C    1.9525551430   -0.7833787323   -0.5265631986
 C    1.5099494911   -1.6913475168    0.6476879536
 C    2.8762383146   -1.3325072483    1.2732052445
 C    2.3485007642    0.0517510575    1.4244695194
 C    0.8440474287   -0.4009062791    1.2074720568
 N    3.1806665139   -0.3928860182    0.1690024326
 H    0.3673534535    2.2473068483    0.1388832711
 H   -0.9591937910    1.8070458786   -0.9455406835
 H   -1.1728807974    1.6582484742    0.8125123324
 H   -0.7766192530   -0.5747125053   -0.2519916167
 H    1.0058292535   -2.6485465722    0.5623078180
 H    3.6282288068   -1.8893674324    1.8138695364
 H    2.7371346864    0.9074665648    1.9604952261
 H    0.2963181507   -0.4553270617    2.1529555555