18

 C    0.3500264850    1.6355978388   -0.3916365636
 C    0.1952255900    0.2053305163   -0.1694799241
 C    0.0697505237   -0.9791949099    0.0095782409
 C   -0.0945886322   -2.3988812017    0.2350843288
 C   -0.0200801915   -2.9066281592    1.7199405272
 N   -1.3331371475   -3.5215085486    1.5243380447
 C   -1.5526029076   -2.9796593483    0.1858442289
 C   -2.1933237090   -4.1558219668    2.3497735745
 O   -3.3213100984   -4.4857842609    2.0442575532
 H    1.0607819292    1.8379468855   -1.2002773682
 H   -0.6039489746    2.1003358837   -0.6637123538
 H    0.7189365841    2.1395370715    0.5084382584
 H    0.5789211974   -2.9716124671   -0.4078088214
 H    0.7901261024   -3.6109168625    1.9338785933
 H   -0.0088293974   -2.0994261651    2.4594968088
 H   -2.3397925405   -2.2210327946    0.1459217130
 H   -1.7386449038   -3.7361358085   -0.5814954379
 H   -1.7425981592   -4.3543018426    3.3446615974