22

 C   -0.1378995746    1.5356275914    0.0317803928
 C    0.1143097782    0.0229263107    0.0205445869
 C    0.7811265987   -0.4845160186   -1.2473625122
 C   -0.0349870226   -0.4597859022   -2.5703254381
 N    0.2961504970   -1.8926601781   -2.8759036769
 C    1.7652691786   -2.0719638015   -2.6622580331
 C    2.6889930073   -0.8606600201   -2.7142527434
 C    2.2045585330    0.0277252893   -1.5376305524
 C    0.8733923861   -2.0192043618   -1.4901704298
 H    0.7976274513    2.1014999707   -0.0175444209
 H   -0.7558829130    1.8413572501   -0.8196622915
 H   -0.6597469972    1.8376703963    0.9447283920
 H    0.7345804130   -0.2514039583    0.8850207751
 H   -0.8404639691   -0.5026743149    0.1521872416
 H   -1.1143424322   -0.3888936042   -2.4085892006
 H    0.2553736686    0.2613814381   -3.3438199009
 H    2.1074504207   -3.0247713544   -3.0525198222
 H    3.7314871801   -1.1698669453   -2.5939460476
 H    2.6227859495   -0.3459039423   -3.6791489238
 H    2.2209130238    1.0940398798   -1.7849368816
 H    2.8403133509   -0.1200183473   -0.6559864450
 H    0.6165604619   -2.8266739974   -0.8130586483