20

 C   -0.1053319807    1.3958048422   -0.0082906306
 N    0.0298037106   -0.0550807134    0.0535875810
 C    1.3914700495   -0.5443262467   -0.2004486487
 C    0.8418885415   -0.5382130343    1.1780528377
 C    0.7401881882   -2.0758257275    1.4135602692
 C    0.0372916885   -2.6086043156    2.6286253804
 C    2.1497557920   -2.5326305687    0.9141364821
 C    1.4722979226   -2.0799052891   -0.4077571242
 O    0.2114745039   -2.5457544664    0.1361013252
 H    0.7827237358    1.9495472236    0.3441457778
 H   -0.3026797015    1.6915588919   -1.0434749982
 H   -0.9610830212    1.7006589590    0.6023108896
 H    2.1655878928    0.1307411043   -0.5487826442
 H    1.1638899764    0.1424680319    1.9591472071
 H   -1.0059238160   -2.2772773944    2.6351092298
 H    0.0537469463   -3.7017217276    2.6432272266
 H    0.5188771703   -2.2406154839    3.5407649197
 H    3.0372796014   -1.9983855863    1.2671230621
 H    2.2764067661   -3.6152600468    0.9702995885
 H    1.7154952336   -2.4847410823   -1.3893075109