25

 C   -0.2595157353    1.3649752594    0.1381761921
 O    0.3030585946    0.1011833618   -0.1277228795
 C    0.7915979337   -0.5438464644    1.0186973375
 C   -0.2070219228   -1.1687218768    2.0285091217
 C    0.7489247958   -2.3894501273    2.1296994502
 C    0.1581152437   -3.7822526890    2.2934563521
 C    1.4121950424   -1.9501806492    0.7711038644
 C    0.8048212418   -2.6327498678   -0.4583204888
 C    2.9364856805   -2.0090397001    0.7189853885
 H    0.4733152759    2.0471610948    0.5984109348
 H   -0.5824534855    1.7868350553   -0.8168933282
 H   -1.1307144269    1.2971957834    0.8070645464
 H    1.5094634740    0.1114092170    1.5399139899
 H   -0.4339348154   -0.6186770836    2.9450183498
 H   -1.1453166993   -1.4323009745    1.5299873344
 H    1.4716514337   -2.2136215049    2.9356045694
 H   -0.5851156168   -4.0017277293    1.5208176172
 H    0.9329485864   -4.5556635002    2.2416614495
 H   -0.3379350385   -3.8791128094    3.2657995546
 H   -0.2877917188   -2.6017499151   -0.4572358007
 H    1.1393944894   -2.1331578537   -1.3717615391
 H    1.1158027622   -3.6818025907   -0.5092492966
 H    3.2918841897   -3.0463418980    0.7117156488
 H    3.3194722804   -1.5228125707   -0.1856694107
 H    3.3846546752   -1.5091492468    1.5846727822