18

 O   -0.0366810916    0.2162428079   -0.8973556332
 C   -0.0876195302    1.2780273310   -0.3388911191
 C   -1.2104643234    2.2121339358    0.1262614782
 C   -1.5081630445    2.1281879385    1.6608304534
 C   -0.5106207710    3.2938255263    1.9310754898
 C   -0.1100604429    3.3110514810    0.4338311368
 C    0.9693486322    2.2892292375    0.0467930900
 C    2.3175213252    1.9848172242    0.5986963639
 N    2.1768782471    2.5507631750   -0.7421647858
 H   -2.0581163596    2.3463616015   -0.5455514264
 H   -2.5455128395    2.3620508934    1.9063278888
 H   -1.2601227283    1.1692304307    2.1223357046
 H   -1.0133260429    4.2112774474    2.2453363485
 H    0.3002533473    3.0895277486    2.6354663944
 H   -0.0584605706    4.2633889216   -0.0919503647
 H    2.7448977189    2.6592939538    1.3360432111
 H    2.5890823281    0.9377141772    0.7079205781
 H    2.2686008356    1.8154982386   -1.4431090382