15

 C    0.0034266119    1.6407408262   -0.0920849093
 C    0.0325519064    0.1209615469   -0.0123477952
 C    0.6963006927   -0.6694126676   -1.1533358169
 O    2.0622929067   -0.2880893754   -1.1735317667
 C    1.6757149401   -1.3514057859   -0.2528281977
 C    2.3258820208   -2.6092108671   -0.3044528768
 C    2.8637766863   -3.6841680757   -0.2825887980
 C    1.0632204639   -0.5762373591    0.9323956853
 O    1.2253135392   -0.5950324347    2.1117751253
 H    0.9727567781    2.0240846702   -0.4197264109
 H   -0.7637601834    1.9857933799   -0.7922538491
 H   -0.2204412787    2.0655370348    0.8908234825
 H   -0.9552838805   -0.2881133338    0.2371383367
 H    0.2623539938   -1.0655692859   -2.0637087830
 H    3.3428489428   -4.6322959026   -0.2722249261