18

 C   -0.3343882913    1.6980212928   -0.1212852320
 C   -0.4242195504    0.1894797263   -0.3317962793
 C    0.8244975369   -0.4107945539   -0.9609018110
 O    1.7510867237    0.2640328241   -1.3482423625
 C    0.8263043350   -1.9157921746   -1.0523124805
 O    1.7169398655   -2.5249564407   -1.9814339765
 C    1.9900109235   -2.7296739978   -0.6036280951
 C    3.2656071174   -2.1543049427   -0.0489860927
 H    0.4911719801    1.9503658333    0.5494532613
 H   -0.1499521353    2.2102966151   -1.0684936183
 H   -1.2615615138    2.0845666302    0.3103390147
 H   -0.6181034294   -0.3398183609    0.6122900910
 H   -1.2746272024   -0.0709568147   -0.9787692468
 H   -0.1591837765   -2.3810075017   -0.9938871886
 H    1.7403302053   -3.7342088838   -0.2531255803
 H    3.4290514686   -1.1423516131   -0.4201662939
 H    3.2324713680   -2.1426032213    1.0457672683
 H    4.1112746952   -2.7812923667   -0.3503683277