18

 O   -0.9616499142    1.0908070041   -0.7814911470
 C   -0.1488759796    0.1260323703   -0.0880595863
 C   -1.0589040323   -1.0503018023    0.2936065288
 C   -0.9784047387   -2.0117562046   -0.9167975603
 N   -2.0195633920   -1.7435743176   -1.9057036870
 C   -2.8341457554   -2.7006272574   -2.4181509229
 O   -2.7945399115   -3.8819252019   -2.1400695123
 C    0.3919111220   -1.6866015603   -1.4874208976
 C    0.8504945932   -0.5240460612   -1.0261980484
 H   -0.3754281269    1.7309136992   -1.1988956936
 H    0.3168747497    0.5987413959    0.7866584578
 H   -0.6546175546   -1.5478806524    1.1795055800
 H   -2.0776113909   -0.7245455904    0.5116240662
 H   -1.0964039576   -3.0607033255   -0.6402078863
 H   -2.1298386455   -0.7824291897   -2.1947181062
 H   -3.5607900493   -2.2751283198   -3.1390090832
 H    0.8697670079   -2.3175644661   -2.2282055546
 H    1.7790946357   -0.0451578204   -1.3190049970