13

 O    0.1623034426    0.2937183552   -0.7123691701
 C   -0.0165227215    1.3026089846   -0.1153399079
 C   -1.1970777387    2.1618747909    0.3342475646
 C   -0.0954742811    3.0465367168    0.9726916491
 O    0.9326910415    2.1222311903    0.4495861521
 C    0.0559754288    4.3957999106    0.4841239361
 C    0.1668430862    5.5354917003    0.0931391393
 C    0.2911862783    6.8145136447   -0.3506604289
 C    0.4012912542    7.9503843323   -0.7442281038
 H   -1.7557143370    2.6230337442   -0.4802560447
 H   -1.8792267509    1.6733124131    1.0307285839
 H   -0.0752188166    3.0167578453    2.0656406178
 H    0.5001957943    8.9494125517   -1.0910517074