19

 C   -0.3252152945    1.5366981864    0.1671251112
 C    0.0507189869    0.0723765764    0.0367931384
 C    1.0945978723   -0.3881743707   -1.0227250496
 C    1.8775700913   -0.9773567898    0.1514294368
 C    2.4713213073   -2.3675169759    0.1885422827
 C    3.7012187119   -2.4638300954   -0.6003695957
 N    4.6661805661   -2.5218291519   -1.2331416850
 C    2.2007492412    0.0706969940    1.1351585607
 N    0.8516533094   -0.5382852145    1.1732902484
 H    0.5478868195    2.1943150841    0.2100657492
 H   -0.9283470517    1.8463777246   -0.6929413889
 H   -0.9180725280    1.6980963612    1.0732193008
 H   -0.8618102381   -0.5246204001   -0.0425091089
 H    0.7032682719   -1.1355253197   -1.7159769702
 H    1.6112771157    0.3854209620   -1.5975025905
 H    2.6873257230   -2.6470244270    1.2252774216
 H    1.7516829250   -3.1005317331   -0.1957002158
 H    2.8017688454   -0.2064159844    1.9958991615
 H    2.3302147854    1.0995344838    0.8118695434