17

 C   -0.0120202939    1.5353796883    0.0812503339
 O    1.4462237391    1.4655181469   -0.0480147647
 C    1.2900157752    0.1623837224   -0.6983792567
 C    2.1350624662   -1.0688996181   -0.5678701899
 C    1.4187507123   -2.1501105006   -0.2274609243
 C   -0.0107818615   -1.9543158354    0.2861826847
 C    0.0774838065   -0.8200509505    1.3263144892
 C   -0.0214327481    0.0022398400    0.0367276749
 O   -0.8198266117   -1.0496973712   -0.5662388731
 H   -0.3201695108    2.0274876152    1.0073328644
 H   -0.4687877710    2.0244592699   -0.7895744062
 H    1.1061145516    0.3492185576   -1.7694914792
 H    3.1699886309   -1.1120721606   -0.8917340338
 H    1.8424527817   -3.1494348755   -0.2183950070
 H   -0.5443389879   -2.8810461638    0.4952934190
 H   -0.8434028218   -0.7182949045    1.9047931754
 H    0.9652487232   -0.7421644903    1.9526035933