21

 O   -0.3111156693    0.3301952526    0.6062235930
 C   -0.0143392239    1.2243911272   -0.1402097819
 C    1.3639290912    1.8606970595   -0.1888324302
 O    1.3517705268    2.8609547166   -1.1709093740
 C    2.5897022223    3.5350453550   -1.3132264707
 C    2.4476231095    4.5914119808   -2.3861735787
 C    1.5661754907    5.8395229903   -2.1011499370
 C    2.6366851333    6.7103420191   -2.8132769157
 C    3.6494553729    5.5458957527   -2.6343832331
 H   -0.7322143300    1.6661362892   -0.8661393823
 H    1.6036302171    2.2611210340    0.8115494580
 H    2.1088667321    1.0748661713   -0.4035807702
 H    2.8787060912    4.0007606565   -0.3547294506
 H    3.3853610731    2.8166603834   -1.5775443950
 H    2.1368671924    4.1098267115   -3.3192964057
 H    0.5502673856    5.8449276260   -2.5010590823
 H    1.5166538488    6.0527086539   -1.0281298487
 H    2.3918882724    6.8742236149   -3.8665012313
 H    2.8897265515    7.6734545969   -2.3644809584
 H    4.2525407759    5.6722400399   -1.7286842872
 H    4.3196412864    5.3138907485   -3.4654528277