18

 C   -0.0807534208    1.5869445234   -0.1018418278
 C    0.0354346778    0.0886299111    0.0834975815
 N    1.1924555099   -0.7341491799   -0.2597327367
 C    2.4365823766    0.0378496498    0.1169537625
 C    2.0583876282    0.0682782687    1.6105188604
 O    2.0630050000    1.3457660288    2.2034844576
 C    0.7324696195   -0.5878264681    1.2213132692
 C    0.1278277142   -1.7071989575    1.9621918842
 O    0.3811706672   -1.9480979196    3.1201355657
 H    0.7137993862    2.1414858073    0.3936814530
 H   -0.0875288614    1.8317289988   -1.1697480628
 H   -1.0325419107    1.9239320063    0.3206874909
 H   -0.8679879043   -0.4434901109   -0.2163425899
 H    3.3196409029   -0.5593634008   -0.1114427302
 H    2.5212347317    1.0134365364   -0.3665262554
 H    2.6561723144   -0.6396157874    2.1954720909
 H    1.8106478889    1.2470289940    3.1278603539
 H   -0.5910312804   -2.3238610103    1.3777702431