21

 C   -0.1535062948    1.4504315484    0.0808540651
 C    0.0668540300   -0.0347578146    0.0530025512
 C    0.9209635729   -0.7811944483   -1.0050796564
 C    0.8420690113   -1.9164756665    0.0217830416
 C    0.8027528239   -0.8741786901    1.1921630371
 C   -0.2818662251   -1.6918934003    1.9024285049
 C   -0.6902323361   -2.0396871634    0.4469260318
 C   -1.6052680824   -3.1663667828    0.0616689947
 O   -1.1741363232   -0.7648967837   -0.0215237314
 H    0.8024694273    1.9815805356    0.1058459983
 H   -0.7027349825    1.7720046993   -0.8103254861
 H   -0.7357934237    1.7395046752    0.9612452775
 H    0.4767720208   -0.9042928796   -1.9967377666
 H    1.9391971298   -0.3878166482   -1.0808601431
 H    1.4608084136   -2.8124535174    0.0206289090
 H    1.6876676037   -0.4529958916    1.6666599756
 H    0.1516229830   -2.5436729319    2.4352010888
 H   -1.0346879680   -1.1908264454    2.5172757353
 H   -2.6097678717   -2.9973363119    0.4637537891
 H   -1.6843613877   -3.2466128426   -1.0269149775
 H   -1.2330289412   -4.1169074703    0.4547896210