16

 C   -0.1222165365    1.5836775971    0.0163063239
 C    0.0196275833    0.0552791279    0.0312871615
 C    0.8053553099   -0.4724066634   -1.1871821407
 O    0.5756963516   -0.1887148659   -2.3312047893
 C    1.9355023345   -1.3911153303   -0.6933440807
 C    1.8334544096   -1.2946642994    0.7982573961
 C    0.8075405811   -0.5231011400    1.1920440673
 C    0.4593083170   -0.2564778378    2.5445568899
 N    0.1445099382   -0.0173584598    3.6335387087
 H    0.8563083773    2.0697423687    0.0758174531
 H   -0.6044826431    1.8938980904   -0.9136774222
 H   -0.7260040996    1.9264347560    0.8605823706
 H   -0.9859427536   -0.3872257482   -0.0034709451
 H    1.7826835943   -2.4116859843   -1.0689504482
 H    2.9030942884   -1.0632554667   -1.0926299610
 H    2.5118948577   -1.7983066642    1.4757266762