15

 C   -0.0223633201    1.5608562908    0.0214803989
 C    1.4971944875    1.9006776994    0.0096353343
 C    2.1139951364    0.4620422101   -0.0164519610
 O    1.1692042771   -0.2300575464   -0.8422473388
 C    0.0320711190   -0.0035449481   -0.0001124264
 C    0.5516631681   -0.4453947269    1.3639454203
 C    1.8525919342   -0.1545668887    1.3536938251
 H   -0.5525743653    1.9520140733    0.8924012992
 H   -0.5174282212    1.9304345409   -0.8794132040
 H    1.7742249344    2.4429728991   -0.8972577491
 H    1.8231771790    2.4832711734    0.8738998817
 H    3.1192720445    0.3804252760   -0.4277169274
 H   -0.8487069119   -0.5069801957   -0.3965533766
 H   -0.0579210254   -0.8064732473    2.1811302938
 H    2.5700859038   -0.2189460200    2.1604274201