21

 O   -0.1090448871    1.4707925023    0.0571547823
 C    0.0035349884    0.0512487262    0.1086126966
 C   -1.3861353891   -0.5178617096    0.1053170010
 C   -2.3383164623   -0.4408371975    1.3087034486
 C   -3.1212163391   -1.5370490631    0.5412130709
 C   -3.6454380237   -0.7296171271   -0.6668172527
 C   -2.2448426956   -0.4326014021   -1.2421616521
 C   -1.7574755080   -1.8665917984   -1.5883309904
 C   -1.7338170327   -2.0373593653   -0.0631829237
 H    0.7778514752    1.8420618907    0.0797827140
 H    0.5762847153   -0.3297658666   -0.7528071426
 H    0.5335034835   -0.2699849455    1.0204320133
 H   -1.8452698319   -0.8236824183    2.2086121528
 H   -2.8535055290    0.4966902860    1.5394618904
 H   -3.8057719933   -2.2166174951    1.0479504168
 H   -4.2658369153   -1.3042087697   -1.3611859373
 H   -4.2023404451    0.1595454138   -0.3578405583
 H   -2.1271923188    0.4009069689   -1.9327428354
 H   -2.4157578174   -2.4962807561   -2.1959511926
 H   -0.7472820686   -1.8882882450   -2.0065294935
 H   -1.2077666154   -2.8341293185    0.4635005118