21

 C   -0.0841630743    1.3085473136   -0.1124815359
 O   -0.0016827015   -0.0932099690   -0.0160745140
 C    0.6854918346   -0.5197313700    1.1404879909
 C    0.7077948777   -2.0410728461    1.1309338814
 C    1.4262131192   -2.6283119353    2.3357053442
 O    1.9187405289   -1.9437743677    3.1982167846
 C    1.4786631423   -4.1543769951    2.3739080109
 O    2.1544399514   -4.5898797576    3.5122204716
 C    2.2320900829   -5.9936286865    3.5991257408
 H    0.9127659095    1.7747569531   -0.1606112438
 H   -0.6279962048    1.5424653788   -1.0309980279
 H   -0.6240698002    1.7464146231    0.7420983451
 H    1.7127170558   -0.1238211215    1.1576832104
 H    0.1898896378   -0.1517726595    2.0521826994
 H   -0.3186219167   -2.4289709479    1.0966810664
 H    1.1875714025   -2.4014041461    0.2116351757
 H    0.4415686069   -4.5381021293    2.3372726486
 H    1.9642368485   -4.5080907816    1.4447914155
 H    2.7727245677   -6.4279969426    2.7431075502
 H    2.7744797326   -6.2303531317    4.5170680395
 H    1.2337590292   -6.4572737311    3.6448871365