20

 C   -0.3018063110    1.4620889295    0.1320023936
 C    0.1178893371    0.0222708173   -0.0431521084
 C   -0.6981959782   -1.0819067605    0.5894428519
 C    0.7055485571   -0.8070730048    1.0827007499
 C    1.8315476604   -1.6601941170    0.5202776679
 C    1.6268412916   -1.6613623111   -1.0156674389
 O    0.8092631737   -2.7450622734   -1.4626170256
 C    0.8731371560   -0.3516554908   -1.3169185389
 H    0.5533881193    2.1430260275    0.0401449468
 H   -1.0401350435    1.7572495615   -0.6234546229
 H   -0.7555068748    1.6261507018    1.1148084490
 H   -1.5115143488   -0.7732796161    1.2390268705
 H   -0.8827296117   -1.9868779991    0.0230718885
 H    0.8269694383   -0.3853838227    2.0754327282
 H    2.7994518978   -1.2041047513    0.7631183586
 H    1.8526896946   -2.6838557378    0.9158055276
 H    2.5907005826   -1.6959996919   -1.5425663173
 H    1.2255333160   -3.5637421652   -1.1744355265
 H    0.2275683625   -0.4820064895   -2.1914840914
 H    1.5933914910    0.4411155736   -1.5541094224