17

 C   -0.2710689509    1.3262984399    0.0599754736
 N    0.0756974941   -0.0915852598   -0.0220737570
 C    0.8402240936   -0.4570920538   -1.2137210690
 C    1.3038584602   -1.9123750613   -1.1068158662
 C    0.1870524229   -2.7038851826   -1.7669918324
 O   -0.0628075463   -3.8653690039   -1.7100532518
 O   -0.5524950439   -1.8353819167   -2.5538968215
 C   -0.1181722478   -0.5305608431   -2.3960592967
 N   -0.4917616802    0.4300877648   -3.1147869241
 H    0.6054658301    1.9960908243    0.0350722319
 H   -0.9165257075    1.5954815413   -0.7787191635
 H   -0.8191055086    1.5037875558    0.9891235096
 H    0.6127640890   -0.3558939330    0.7969002650
 H    1.6557461329    0.2445051947   -1.4455886279
 H    2.2222457791   -2.0867942678   -1.6774307495
 H    1.4702615218   -2.2628719891   -0.0870372166
 H   -1.1624226185    0.1226413903   -3.8219028841