23

 C    0.0379213859    1.5894232281   -0.0248432110
 C    0.0483366468    0.0604784899    0.0305263244
 O    0.5978874002   -0.4963199894   -1.1642505580
 C    0.8430045479   -0.5319452582    1.2102025533
 C    0.5677248228   -2.0394896580    1.3217166923
 C    2.3519301508   -0.2233524021    1.1056122708
 C    3.1290052056   -0.6099358183    2.3406227533
 C    4.2019093183    0.2315745262    2.8845471471
 O    2.9156610386    0.2003551794    3.5048506532
 H    1.0384571610    1.9922773469   -0.2032191120
 H   -0.6102409226    1.9361585682   -0.8385160979
 H   -0.3486098309    2.0132446877    0.9077148754
 H   -0.9951106179   -0.2789960159    0.1477386870
 H    0.1074670414   -0.1422935988   -1.9121560655
 H    0.4684894247   -0.0416772909    2.1181060005
 H    1.0628671671   -2.4808958143    2.1909039676
 H   -0.5056545006   -2.2301820382    1.4269091387
 H    0.9128566278   -2.5606642963    0.4239597304
 H    2.7692210552   -0.7429751503    0.2355621729
 H    2.5004920020    0.8484223823    0.9393705474
 H    3.1815010287   -1.6765889933    2.5624150280
 H    5.0107317730   -0.2181989567    3.4594737843
 H    4.4561365041    1.1646114021    2.3822842576