22

 C    0.1554322999    1.4432675246    0.2341914389
 C    0.0109040952   -0.0606316715   -0.0666370406
 C   -1.4020043136   -0.5564421198   -0.0820060785
 C   -2.2272040356   -0.8193879691   -1.1551993317
 C   -3.4945424568   -1.2439059939   -0.6606589442
 C   -4.6942279794   -1.6466693112   -1.4643113515
 C   -3.3948516102   -1.2243907271    0.7106498272
 N   -2.1285589677   -0.8124896585    1.0646550309
 C   -1.6811920959   -0.6347287866    2.4286920703
 H    1.2055249702    1.7508441451    0.1910253727
 H   -0.4065826548    2.0358445369   -0.4936711072
 H   -0.2245461864    1.6948962293    1.2294403267
 H    0.4429509951   -0.2691866017   -1.0509169283
 H    0.6144819808   -0.6321680157    0.6513843394
 H   -1.9412716215   -0.7290621664   -2.1937646148
 H   -4.4806348298   -2.5022262556   -2.1164140011
 H   -5.5282114504   -1.9294169419   -0.8146568357
 H   -5.0434092750   -0.8335026510   -2.1121083021
 H   -4.1191625913   -1.4765773708    1.4703578466
 H   -0.6503590350   -0.9798038830    2.5456369603
 H   -1.7328209126    0.4130163212    2.7490206983
 H   -2.3138741452   -1.2287723633    3.0917310343