17

 O    0.2220986297    1.1850547940   -0.3499446343
 C    0.0845770254   -0.1483484948    0.0646452234
 C    0.0000757608   -0.3183115300    1.5882959972
 O   -1.2357779778   -1.0667252110    1.4668056971
 C   -1.3259989060   -0.7764640155    0.0670271793
 C   -2.5949416072    0.0067180779   -0.4088171088
 C   -2.8619848051   -1.1355249866   -1.3963493726
 O   -1.6738812099   -1.2848510077   -2.1936379754
 C   -1.7147818492   -1.9085780749   -0.8990052350
 H    0.2063401824    1.1944007784   -1.3130768075
 H    0.8277633484   -0.8020235527   -0.4098241907
 H    0.7856388040   -0.9010199319    2.0789068789
 H   -0.1443204842    0.6333114964    2.1125963480
 H   -3.3217173610    0.0426357944    0.4068286635
 H   -2.4477465033    1.0025834215   -0.8318870145
 H   -3.7943325882   -1.4654929658   -1.8386494678
 H   -1.5269096888   -2.9740974817   -0.8348888506