21

 O   -0.6765008126    1.2402978219    0.4216954762
 C    0.0381035099    0.0676467221    0.0433108222
 C    0.7246834421   -0.6094939170    1.2585373788
 C   -0.2719244352   -1.6574464585    1.6803992220
 C   -1.2323861148   -1.8514486682    0.7702475067
 C   -1.0170563533   -0.9516619816   -0.4320210219
 C   -2.3368141082   -2.8233292305    0.8747292262
 C   -3.7396418814   -2.4928897016    0.3934397389
 C   -2.9202901028   -3.5067942506   -0.3497586547
 H   -0.0481377662    1.8533945363    0.8161084541
 H    0.7595454040    0.3077319826   -0.7503416309
 H    1.6889183673   -1.0564749096    0.9753392335
 H    0.9440252301    0.1261688473    2.0439460594
 H   -0.1915696113   -2.2017770080    2.6154484795
 H   -1.9168291512   -0.4198927937   -0.7581711861
 H   -0.6527940891   -1.5280285557   -1.2927155357
 H   -2.2935376753   -3.4378982646    1.7692088463
 H   -4.5685465406   -2.8380306674    1.0012005477
 H   -3.9017326317   -1.5271890644   -0.0713739806
 H   -2.5273491896   -3.2290799861   -1.3213953799
 H   -3.1827860803   -4.5551444525   -0.2611022815