21

 C    0.0407861591    1.3221460678   -0.1899372766
 O   -0.1062710604   -0.0579805507    0.0452595270
 C    0.6501976644   -0.5420387703    1.1451045499
 C    0.1302247366   -1.9350498623    1.5481621295
 C    1.3738501052   -2.7701671517    1.9077194522
 O    1.2050820929   -4.0956272788    1.4272053341
 C    2.1027584070   -5.0266953746    1.9830660028
 C    2.5020319222   -2.0024405884    1.2497453927
 C    2.1112359368   -0.7991851214    0.8379042538
 H    1.0681499294    1.5967179761   -0.4739200148
 H   -0.6261649133    1.5824645504   -1.0156929732
 H   -0.2397259676    1.9178567703    0.6936462653
 H    0.5548645735    0.1770677366    1.9777531853
 H   -0.6148596314   -1.9042899416    2.3450488148
 H   -0.3283209750   -2.3864663687    0.6643834258
 H    1.5256038387   -2.8118544524    3.0007600308
 H    1.8393685993   -6.0088743630    1.5825512073
 H    3.1503720949   -4.8144378597    1.7204554215
 H    2.0264316805   -5.0598055339    3.0818637618
 H    3.5057670689   -2.4038719943    1.1634935794
 H    2.7441863484   -0.0589748391    0.3609001805