20

 C   -0.0070224235    1.5502845547    0.0676649947
 C    0.1164576881    0.0406290599    0.0716526536
 C    1.3912749551   -0.7078725586   -0.2152220404
 N    2.5596058116    0.0142680664    0.3349871664
 C    3.1754213402   -0.9468425864    1.2737871876
 C    1.9774302577   -0.2012226341    1.7384494692
 C    2.0298372942    0.8205447852    2.8390949957
 C    0.7334891670   -0.8305722717    1.1532075297
 O    0.0659393981   -1.9056407905    1.7215562464
 H    0.9345171218    2.0238206555    0.3510979528
 H   -0.2644093094    1.9049157104   -0.9363259815
 H   -0.7923438518    1.8939437367    0.7502853984
 H   -0.7366370558   -0.4798091695   -0.3649198508
 H    1.5137093090   -1.4301685477   -1.0141125736
 H    3.1059358715   -2.0094309751    1.0534514702
 H    4.1401682232   -0.6175045001    1.6496522205
 H    3.0062034078    1.3126403903    2.8700014602
 H    1.2632223052    1.5911359958    2.7170587762
 H    1.8688899475    0.3356847256    3.8091737757
 H   -0.7485810875   -1.5829429866    2.1214083289