15

 N   -0.2083560553    1.3107698598   -0.3065257305
 C   -0.0133154572    0.0769705815    0.2647203175
 N    1.0782274000   -0.4500279285    0.6642248988
 C    2.2999815271    0.3048884125    0.4791799940
 C    3.4760375291   -0.5065566243    1.0510937666
 C    4.7516572908    0.1860662304    0.8932415331
 N    5.7475768412    0.7552957758    0.7546383754
 C   -1.2393825176   -0.6774136440    0.4582836651
 N   -2.2321560000   -1.2535636125    0.5898761788
 H    0.5859127786    1.8071984174   -0.6749476617
 H   -1.0964335729    1.5130539032   -0.7353042960
 H    2.4922367730    0.5102822935   -0.5865819721
 H    2.2511203786    1.2811708031    0.9859379284
 H    3.2971403152   -0.7052954869    2.1125271322
 H    3.5239640095   -1.4786249710    0.5501112702