20

 C   -0.2661658335    1.4598862466   -0.0558134667
 C   -0.0249387101   -0.0436051008   -0.0773474358
 C    1.2054052309   -0.5228583191   -0.8206857831
 N    1.6271975294   -0.3991173667   -1.9954824995
 O    1.7580357176   -1.1536293377    0.2729410281
 C    0.6481631841   -0.7470176607    1.1344259136
 C    0.9766173375   -0.0127140355    2.4484886640
 C   -0.1411474690   -0.8477668261    3.1350637034
 C   -0.0827051353   -1.8380602324    1.9375299236
 H    0.6289294534    2.0050264922    0.2570131192
 H   -0.5310155508    1.8053546609   -1.0588762300
 H   -1.0845094917    1.7211364163    0.6228987590
 H   -0.9265675143   -0.5712312214   -0.4041919060
 H    2.5304006767   -0.8612468979   -2.1160890012
 H    1.9726469856   -0.2992081238    2.7969860005
 H    0.8965808126    1.0761339948    2.4631501683
 H    0.0764190144   -1.2510912854    4.1251115462
 H   -1.0904522348   -0.3081389284    3.1787766582
 H   -1.0208606129   -2.2226861839    1.5295993889
 H    0.5897580503   -2.6772550910    2.1356526295