18

 O   -0.0275093871    0.0349863300   -0.3934581974
 C   -0.0447538195    1.1912074039   -0.0503739909
 N   -1.1762941121    1.8507205983    0.3502124831
 C   -1.3815296164    3.2258323411    0.5639072298
 C   -0.8049282588    4.2923208528    0.0013994765
 C    0.2282355030    4.4874126025   -1.0823606076
 C    0.6477355528    3.2980606534   -1.9637111253
 C    1.6008424147    2.3414439468   -1.2522312515
 O    1.0601762211    1.9887540975    0.0260164826
 H   -1.9739531766    1.2433008259    0.4635590098
 H   -2.1546938734    3.4016591728    1.3066730288
 H   -1.1616182669    5.2360989776    0.4095584747
 H   -0.1632693151    5.2765832366   -1.7380677151
 H    1.1293495579    4.9266466014   -0.6263736041
 H   -0.2379784321    2.7542898166   -2.3132262810
 H    1.1493965087    3.6764265210   -2.8622114379
 H    1.7920899072    1.4364742556   -1.8400396521
 H    2.5554297428    2.8277616762   -1.0341499923