20

 C    0.5429836521    1.3063445708    0.2585983524
 C   -0.0633244512   -0.0746992896   -0.0098999113
 O   -1.4855562895    0.0204967500   -0.0850636091
 C    0.5411502054   -0.7512085736   -1.2666411690
 C    1.7983467433   -1.5093034316   -0.7828015962
 C    1.6712088943   -1.6258242795    0.7671284779
 O    2.6237035770   -0.8079773889    1.4506931526
 C    0.2746493029   -1.0888231447    1.0977344957
 H    1.6224444267    1.2400916949    0.4124008371
 H    0.3525105021    1.9829794030   -0.5844127381
 H    0.0965182044    1.7422753883    1.1574538643
 H   -1.7013887253    0.7439565379   -0.6826309449
 H   -0.2084291463   -1.4525704012   -1.6464080091
 H    0.7567157377   -0.0369494198   -2.0678019614
 H    1.8827121515   -2.4914132602   -1.2570102752
 H    2.7160794283   -0.9609342450   -1.0185692088
 H    1.7844186235   -2.6664112925    1.1003594142
 H    3.5030325388   -1.1060442942    1.1971172036
 H    0.2375475997   -0.6653149751    2.1040108689
 H   -0.4606002855   -1.8980760390    1.0406213764