18

 C   -0.0241738785    1.5595239296    0.0300061538
 C    0.0499224650    0.0569414786    0.0669036545
 C   -1.2301725230   -0.8189601823    0.1810474977
 C   -0.3306227543   -1.8842235721    0.8052091570
 C    1.0211602030   -1.8365793202    0.0762828652
 C    0.7045317426   -0.8578468931    1.1875866581
 C    0.9381846199   -0.7252900678   -0.9575488059
 O    0.4777552041   -0.9653606901   -2.2652880763
 H    0.9738585201    2.0089393789    0.0797380067
 H   -0.4923345138    1.8939631886   -0.9032544986
 H   -0.6141031881    1.9577322208    0.8626932281
 H   -1.9244757933   -0.4053109119    0.9183004397
 H   -1.7831955324   -1.0411719955   -0.7418781678
 H   -0.6241650569   -2.7645803164    1.3623101817
 H    1.7079553523   -2.6728787461    0.1108746393
 H    1.2207583956   -0.6471602407    2.1121061465
 H    1.9039004091   -0.2214452465   -1.0664015625
 H   -0.2682437514   -1.5708444440   -2.2117863471