16

 O   -0.0940026518    1.3275070471   -0.0371337090
 C    0.0468938866   -0.0333180031   -0.0411289919
 C    0.9444111121   -0.9017303513   -0.9187707273
 C    0.0433836184   -2.0828357540   -0.4495710596
 C    0.3790141338   -2.2540788682    1.0563084289
 C   -0.2722892598   -0.8828326263    1.2404893341
 C   -0.6525486806   -0.2271744078    2.4420158235
 N   -0.9308284085    0.3134264598    3.4281067437
 C   -1.0683236361   -1.0242147121   -0.0630581270
 H    0.5304955759    1.7145257352    0.5879130730
 H    0.7839466562   -0.6638973498   -1.9735117662
 H    2.0163734187   -0.9629311239   -0.7028778850
 H   -0.1121872003   -2.9462952742   -1.0894354935
 H   -0.2182662870   -3.0383908734    1.5274156924
 H    1.4323232602   -2.3705341802    1.3313711701
 H   -2.1293683377   -0.9337613579   -0.2416579763