17

 C    0.0045286562    1.5817679987   -0.0085171824
 C    0.0183007079    0.0414268561   -0.0010629377
 C    0.7258196129   -0.4877103589    1.2836061242
 O    2.0586316110   -0.0577516501    1.3869687592
 C   -1.4200014757   -0.5497035194   -0.0352347818
 C   -2.2180493092   -0.0847516511   -1.1663115769
 N   -2.8471427463    0.2951128666   -2.0574745813
 C    0.7905549553   -0.4595618973   -1.1486803387
 N    1.4510138934   -0.8750788850   -2.0016899124
 H    1.0204010337    1.9589147265    0.1168245741
 H   -0.4124657348    1.9706242200   -0.9396051330
 H   -0.6053033080    1.9443426987    0.8251772495
 H    0.1989694274   -0.0788810974    2.1523650050
 H    0.6418417843   -1.5840803731    1.3178811297
 H    2.5760751819   -0.5017266383    0.7044666856
 H   -1.3775792817   -1.6436977340   -0.0594990175
 H   -1.9313951381   -0.2646645419    0.8914276244