16

 C   -0.0468833476    1.5249190924   -0.0100201763
 C   -0.0144682164    0.0295816769    0.0000171986
 C   -0.0135949431   -0.8230022466   -1.0626346865
 O    0.0044921567   -2.1154267806   -0.6784357306
 C    0.0252974705   -2.1166253001    0.7029747240
 C    0.0539706368   -3.3306267255    1.3969380126
 C    0.0896916884   -4.3511483864    2.0414848634
 C    0.0077757152   -0.8175311025    1.1593759592
 N   -0.0605116698   -0.3899037648    2.4795725270
 H    0.8498301959    1.9566939784    0.4528546583
 H   -0.1034955095    1.9105761545   -1.0312925632
 H   -0.9116279095    1.9091451662    0.5433058220
 H   -0.0272652800   -0.6489681782   -2.1271863666
 H    0.1063241283   -5.2551378332    2.5976173888
 H    0.1782632838   -1.1120888787    3.1467619700
 H    0.4567598103    0.4585070082    2.6657641294