18

 C    0.1791056699   -1.2480645365    0.2540217243
 C    0.0887603564   -0.0606072178    0.0975993816
 C   -0.0732354645    1.3909567088   -0.0602232126
 C   -0.8858749450    1.9493113766    1.1292465706
 C   -1.2910708630    3.4096332027    0.9460984337
 C   -0.1181301639    4.3728972066    1.0435244794
 O    0.8099340524    4.3387791285   -0.0457533692
 C    1.5096704061    3.2136415194   -0.3519369867
 N    1.2296487187    1.9853276643   -0.3377857247
 H    0.2755988296   -2.2982411636    0.3773417833
 H   -0.6841999774    1.5550818772   -0.9635890489
 H   -1.7771887234    1.3236053721    1.2398517877
 H   -0.2986659312    1.8288128780    2.0477556654
 H   -1.8035951493    3.5512947352   -0.0140956430
 H   -2.0049471541    3.6906915799    1.7299744211
 H   -0.4696771693    5.4076092168    1.0577592755
 H    0.4350982692    4.1889724839    1.9752408915
 H    2.4922693288    3.5111397479   -0.7223008491