16

 C    0.1744281275    1.4419637409   -0.2956877059
 N    0.0584826349    0.0216789374   -0.0257886568
 C    0.4785869769   -0.5265647334    1.0470931048
 N    0.3018890495   -1.9075783707    1.1762374115
 C    0.6919290972   -2.6506143537    2.2566344769
 C    1.2970273453   -2.0355637540    3.2960959442
 N    1.5231095213   -0.6739272255    3.2768820739
 C    1.1509732331    0.0144869063    2.2534588757
 O    1.3759840240    1.3436375553    2.2437477551
 H    1.2146973355    1.7893654871   -0.3159635848
 H   -0.2635193386    1.6370422593   -1.2791174812
 H   -0.3569125357    2.0608509550    0.4377461890
 H   -0.1526646933   -2.3368144999    0.3835859909
 H    0.4882711915   -3.7122447934    2.2145633889
 H    1.6245346423   -2.5760391976    4.1732266551
 H    1.8136669387    1.5379817469    3.0858768528