10

 N   -0.0127521781    1.3076268182   -0.0478800250
 C   -0.0199252111    0.0523928256    0.0421559363
 O    1.1538375064   -0.6852561847    0.1656861957
 N    1.1508904310   -2.1035108166   -0.0326538440
 N    0.0716553868   -2.6827690515   -0.1330826658
 C   -1.1352461642   -1.9296578993   -0.0182069923
 N   -1.2186889967   -0.6601613326    0.0550504749
 C   -2.3194881429   -2.7447994088    0.0012649360
 N   -3.2618661349   -3.4131798127    0.0188338490
 H    0.9403363438    1.6720506525   -0.0663689948