13

 O   -0.0697009146    0.1181245411    0.5220120209
 C    0.0255638295    1.2210229220    0.1098062905
 O   -1.0038884749    2.0546301780   -0.3236555913
 C   -0.0847362672    3.1248012770   -0.6787663624
 C    0.1984858338    4.1123919401    0.4813340990
 N    1.2063079528    3.1728335563    1.0473300898
 C    1.1106000655    2.2852615395   -0.1325325770
 C   -0.2674134502    3.6088919471   -2.0258285629
 N   -0.3770730025    4.0272255306   -3.0975889652
 H    0.6173432555    5.0549603633    0.1156538947
 H   -0.6555455967    4.3117452489    1.1335184754
 H    2.1239466270    3.5808283581    1.1702273635
 H    2.0167373420    2.0157308579   -0.6723611850