15

 C    0.0086026798   -1.2168124086   -0.0354578153
 C    0.0097791041   -0.0182386944    0.0343477021
 C    0.0087064404    1.4366158928    0.0533228164
 O   -0.5930637596    1.9347358791    1.2677724581
 C    0.1688463453    3.0417395599    1.6848934454
 C    1.6518697947    2.8281437032    1.9330816945
 O    2.0657670360    1.6222395653    1.2915008663
 C    1.4089475013    2.0696379557    0.0704213114
 C    1.1709328905    3.4790796608    0.6555064895
 H    0.0127975844   -2.2780177141   -0.0778422375
 H   -0.5580989751    1.8165374191   -0.8129790339
 H   -0.3865312855    3.7544432517    2.2821837704
 H    2.2290656332    3.1884124819    2.7766008630
 H    2.0177217437    1.9192557132   -0.8206486514
 H    1.3066266067    4.4462871942    0.1922934411