19

 C   -0.4239686489    1.5234637181    0.0981081936
 C   -0.0145583009    0.0554120120    0.0162378486
 C   -1.1880061183   -0.8421400279   -0.3857653799
 C    1.2826654522   -0.2364158441   -0.8212521654
 C    1.8727980613   -0.9873205068    0.3897299499
 O    2.8263793862   -1.6871517421    0.5672868503
 C    0.7210764607   -0.5098225499    1.2602847390
 C    0.8014345688   -0.0013868897    2.6400610617
 O    0.1314920236   -1.2211634257    2.3299677303
 H    0.4156135366    2.1578127074    0.4007564060
 H   -0.7826398489    1.8816856534   -0.8730240253
 H   -1.2347812337    1.6678349592    0.8209406757
 H   -1.5950135891   -0.5348749728   -1.3548511731
 H   -0.8829189371   -1.8908000312   -0.4629744316
 H   -1.9887076606   -0.7876026087    0.3579774149
 H    1.1544983467   -0.8435202214   -1.7210264593
 H    1.8635244186    0.6550913009   -1.0782460627
 H    1.7334372163   -0.1068188064    3.1929240320
 H    0.1589153965    0.8265490760    2.9354741852