24

 C    0.0455816069    1.5738867292    0.0641089508
 C    0.0056233857    0.0448233714    0.0049259777
 C    0.7055372981   -0.5242440815   -1.2327401755
 C    0.7190726662   -2.0536168886   -1.2830570264
 C    1.3194216047   -2.5807530348   -2.5898083411
 O    1.4604213750   -2.4964753786   -0.1503659601
 C    1.2148039190   -3.8269479817    0.2558788816
 C    1.9892893075   -4.0850827017    1.5385587449
 H    1.0775570120    1.9418205009    0.0880330433
 H   -0.4419427111    2.0206234610   -0.8101236781
 H   -0.4621336058    1.9529453500    0.9567644279
 H    0.4781056822   -0.3781749161    0.8972290974
 H   -1.0388250987   -0.2956021945    0.0173365499
 H    0.2195769864   -0.1495828912   -2.1428874447
 H    1.7452653068   -0.1719285668   -1.2646870026
 H   -0.3190076273   -2.4203559280   -1.1929984918
 H    1.3343348474   -3.6741128519   -2.6152087087
 H    0.7332152065   -2.2375845463   -3.4483549230
 H    2.3470669302   -2.2217496618   -2.7062318942
 H    0.1344634353   -3.9791183078    0.4203280185
 H    1.5248945649   -4.5444365511   -0.5205044122
 H    1.8224458051   -5.1089896558    1.8866679668
 H    3.0613571980   -3.9451690289    1.3728635914
 H    1.6724411350   -3.3935295355    2.3245049583