22

 C    0.3147953666    0.7177162997   -0.5387529222
 O   -0.2280860562   -0.5629164681   -0.3199862180
 C   -1.2357253667   -0.5760570069    0.6648932487
 C   -1.7682077203   -2.0053158725    0.8163882967
 O   -2.6105189736   -2.0719346350    1.9654360058
 C   -2.4629996603   -2.4668442500   -0.4751429219
 N   -2.8120781225   -3.8700221902   -0.6715966555
 C   -1.8622332353   -4.9164082415   -0.3269685309
 C   -3.1185394696   -4.7428405501    0.4588644167
 H    1.0811738994    0.6209386613   -1.3114390773
 H   -0.4502310622    1.4314593989   -0.8830474183
 H    0.7775264225    1.1250820072    0.3736699150
 H   -0.8471948693   -0.2399331105    1.6389827674
 H   -2.0617769629    0.1056490983    0.3876916664
 H   -0.9130276372   -2.6504291684    1.0446230429
 H   -3.4649447571   -1.6955987460    1.7260902722
 H   -3.3942847350   -1.8860737316   -0.5734906789
 H   -1.8232134223   -2.1708444156   -1.3131817928
 H   -1.7694398309   -5.7191094864   -1.0543201452
 H   -0.9286775911   -4.6483512075    0.1635530206
 H   -3.0254572570   -4.3429797780    1.4634870823
 H   -3.9548404990   -5.4203355572    0.3032564161