14

 C    0.0860123473    1.5658268664   -0.0959888310
 C    0.1455041028    0.0627946865    0.0502624251
 O    0.6466591980   -0.5337353729   -1.1362091568
 C    1.3957829130   -1.6842756522   -0.7590330930
 C    1.4018306176   -1.6405702901    0.7857962014
 O    1.0386814630   -0.3019404259    1.0777355952
 H    1.0871313061    1.9543917034   -0.2970101871
 H   -0.5754224864    1.8316275409   -0.9241529412
 H   -0.2995412430    2.0167191363    0.8219857947
 H   -0.8564731139   -0.3563446599    0.2687270550
 H    0.9262576462   -2.5984559508   -1.1429232856
 H    2.4027717902   -1.6037598756   -1.1836184856
 H    0.6684935793   -2.3461811505    1.2046314630
 H    2.3789910198   -1.8419319055    1.2298586760