19

 C    0.0099309772    1.6451169930   -0.0953446129
 C   -0.0395623296    0.1147708075    0.0651163606
 C   -1.4545836599   -0.4097734384    0.0477455735
 N   -2.1152448170   -0.6718101125   -1.0252697664
 O   -1.3716027706   -0.4185936220   -2.1780386079
 C   -2.1891523421   -0.6284108978    1.3095827230
 C   -3.6039591407   -1.1389725721    1.3154714792
 N   -1.5365347395   -0.3425521388    2.3812776288
 O   -2.3027636508   -0.5661185131    3.5243100695
 H    1.0466408175    1.9948750428   -0.0856718866
 H   -0.4454618180    1.9520714994   -1.0404014109
 H   -0.5219525011    2.1387084867    0.7231090410
 H    0.5093369014   -0.3556968129   -0.7545064865
 H    0.4288444141   -0.1712123274    1.0074480489
 H   -1.9819100024   -0.6804740565   -2.8757506084
 H   -3.9591884960   -1.3093460383    0.3019316535
 H   -3.6599313130   -2.0690022000    1.8897248897
 H   -4.2565377081   -0.4208805376    1.8217476719
 H   -1.6961285713   -0.3169636320    4.2300046200