19

 C    0.1694301287    1.4056978149    0.1048363298
 O    0.1443804026   -0.0038430957    0.0452067193
 C    0.5798932994   -0.5243548696   -1.1966689991
 C    0.5715464532   -2.0581531323   -1.0456261312
 O    1.2616489227   -2.4297799616    0.1387542334
 C   -0.8874547236   -2.5872654368   -0.9748662244
 O   -1.6186572427   -2.3398662467   -2.1576634435
 C    1.2372227397   -2.6641027441   -2.2028597421
 C    1.7153288897   -3.1636566321   -3.1864853277
 H    1.1843270677    1.7986134002   -0.0573378186
 H   -0.5001252529    1.8512099767   -0.6450408271
 H   -0.1703857268    1.6951976005    1.1017495584
 H   -0.0949699020   -0.2305133614   -2.0113728174
 H    1.5974880559   -0.1756566407   -1.4250586619
 H    1.0486957800   -1.7356307027    0.7779883631
 H   -0.8417724466   -3.6545445451   -0.7209097068
 H   -1.4018459849   -2.0570546050   -0.1692531951
 H   -1.1668303735   -2.8039987264   -2.8727812850
 H    2.1696631733   -3.6051520222   -4.0394764441