14

 O    0.1671300260    1.4047011417   -0.2328796734
 C    0.0318620073    0.0675329877    0.0133206381
 C   -1.3477560806   -0.7397895608   -0.0799093835
 C   -1.7785939371   -1.3801026651   -1.4080133009
 C   -1.1837415180   -0.9742513564   -2.7614569746
 N    0.1266924634   -0.4245040955   -2.3227209162
 C    0.2867098394   -0.8898870927   -1.1432790343
 N   -0.6480590676   -1.9342991962   -0.6509050252
 H    0.0721955602    1.5049691346   -1.1944591987
 H    0.4610602029   -0.1680003410    0.9901089156
 H   -1.9757330819   -0.8640971946    0.8011297897
 H   -2.7123484051   -1.9372447341   -1.3693685263
 H   -1.1180033298   -1.8513277450   -3.4199930132
 H   -1.7209693690   -0.1858593226   -3.2967700071