9

 C    0.0017544687   -1.1812810121   -0.0036403591
 C   -0.0145709400    0.0204791520    0.0030757928
 C    0.0119069029    1.4330986172    0.0103988593
 N   -1.0714421664    2.1809982134    0.0281151269
 O   -0.6303751067    3.4656881932    0.0295483299
 N    0.7364647260    3.5363864356    0.0126949080
 C    1.1468718605    2.3021288805    0.0008142771
 H    0.0038646437   -2.2438205907   -0.0094199840
 H    2.1960028711    2.0536908509   -0.0137507308