21

 C    0.2593472026    1.3779011522   -0.3384762596
 C   -0.0252720149    0.0785694828    0.4341318749
 C   -1.3816212660   -0.5018311411    0.1535990285
 C   -2.4422633177   -0.5611414648    1.0278181653
 N   -3.5064284853   -1.1431627018    0.3763176477
 C   -3.1444199607   -1.4623510104   -0.9099765175
 N   -4.0701010317   -2.1054666011   -1.7537111679
 C   -5.0244612749   -1.2225672297   -2.4373989053
 C   -1.8348248406   -1.0686570030   -1.0801109503
 H    1.2603604041    1.7611138165   -0.1132586705
 H    0.1962695583    1.2148103665   -1.4191917516
 H   -0.4700813419    2.1518148597   -0.0792095672
 H    0.7519656337   -0.6571824211    0.1879225721
 H    0.0687612591    0.2701338099    1.5097123595
 H   -2.5251315331   -0.2364820689    2.0530459585
 H   -4.3806822732   -1.4142532594    0.7914887314
 H   -3.5741994615   -2.6701813494   -2.4318762803
 H   -4.5453800456   -0.4652587452   -3.0769760909
 H   -5.6976932134   -1.8289937839   -3.0505205379
 H   -5.6307698798   -0.6967899077   -1.6942815830
 H   -1.2636881475   -1.1676777802   -1.9919840260