20

 C   -0.0906735848    1.4801111358    0.1323935501
 C   -0.0633291646   -0.0069955772    0.0046090889
 C   -0.2030100832   -0.8260758269   -1.1005177638
 C   -0.1043703886   -2.1855705397   -0.6768277429
 C    0.0901958843   -2.1583850728    0.6835946585
 C    0.3465452811   -3.0463628821    1.8643894602
 C    0.1107964254   -2.0790220340    3.0592056880
 C    0.3836595651   -0.6626239614    2.4961438976
 N    0.1049889588   -0.8430127818    1.0823292232
 H    0.8497503710    1.8851466352    0.5283074257
 H   -0.2543722104    1.9309449041   -0.8492991836
 H   -0.8946222797    1.8292232514    0.7935061587
 H   -0.3749408498   -0.4785091646   -2.1091949402
 H   -0.1750786957   -3.0638350666   -1.3001321366
 H   -0.3123256934   -3.9183416526    1.9082001201
 H    1.3771979998   -3.4266615522    1.8669121704
 H   -0.9334412481   -2.1420669703    3.3791696786
 H    0.7378280855   -2.3054716824    3.9243158457
 H   -0.2613531564    0.1010140847    2.9412749094
 H    1.4261986336   -0.3539321266    2.6543224522