21

 C   -0.1475095083    1.5094745659   -0.0097388351
 N   -0.0233681352    0.0734979742    0.0956757249
 C   -1.2383172050   -0.7261369153    0.3579725437
 C   -0.4054344521   -1.5707254455    1.2917082071
 N   -0.5026987164   -2.6722205293    1.9005298273
 O   -1.7550051846   -3.2735256865    1.6644896133
 C    0.7380387210   -0.5675460693    1.2270679332
 C    2.0978683106   -1.1074241292    0.7914228590
 C    0.8482624214    0.2665143114    2.5120609593
 H    0.8435689797    1.9651386322   -0.1037141304
 H   -0.7079759321    1.7557303999   -0.9183912955
 H   -0.6656243470    1.9870128792    0.8418670559
 H   -2.0453438751   -0.1863527628    0.8830363272
 H   -1.6694688091   -1.2235879471   -0.5179541900
 H   -1.6829163442   -4.0942427864    2.1634143954
 H    1.9995354976   -1.6961784305   -0.1231276128
 H    2.7913595194   -0.2817413596    0.5964692842
 H    2.5302793859   -1.7396880031    1.5732295625
 H    1.2538514014   -0.3516271103    3.3179893481
 H    1.5194502107    1.1197701289    2.3676441059
 H   -0.1244953686    0.6453441832    2.8385687065