14

 N   -0.5756523009    1.4575830822   -0.7483051569
 C   -0.3914156288    0.2161519783   -0.9082586486
 N   -1.0391420494   -0.7333327266   -0.0859867635
 C   -1.9521430897   -0.3269251737    0.8898362112
 O   -2.6321799460   -1.1045179946    1.5172630916
 C   -0.8821365284   -2.1122678081   -0.3642820147
 N   -0.5492047900   -2.4956601458   -1.5254194499
 C   -1.0053909446   -3.0867021364    0.8023295755
 O   -1.1543142780   -4.2607768973    0.5866763524
 H   -0.0124779656    1.9885484068   -1.4091559888
 H    0.2473505277   -0.2706149412   -1.6452912148
 H   -1.9769907248    0.7635107920    1.0007402681
 H   -0.4489596718   -3.5144504293   -1.5114333957
 H   -0.8679560796   -2.6774090763    1.8147781240