18

 C    0.0938580227    1.4971858755    0.0405096563
 C    0.0317460993   -0.0194569893   -0.0345611424
 O    1.0650066347   -0.6934659743   -0.0884622223
 C   -1.2576157958   -0.6540276204   -0.0508658819
 C   -1.2902299676   -2.1417478676   -0.1457141264
 N   -2.6466277553   -2.4707610536    0.4948222056
 H   -3.0094593833   -3.3833041250    0.2130280799
 H   -2.5229948943   -2.4692266557    1.5071094587
 C   -3.5450498504   -1.3191522998    0.1186777239
 C   -2.5539982835   -0.1063325318    0.0552953346
 O   -3.0002440874    1.0356866012    0.1197792868
 H    1.0281951013    1.7919066718    0.5236385079
 H    0.0990551538    1.9024219088   -0.9788810272
 H   -0.7745474405    1.9224415267    0.5464636739
 H   -1.3412591981   -2.5757190520   -1.1571935708
 H   -0.4889032188   -2.6445494433    0.4002571475
 H   -3.9866899895   -1.5448390883   -0.8566231981
 H   -4.3323608672   -1.1879306729    0.8612667639