17

 C    0.0669733649    1.3043469599    0.1653599645
 O   -0.1501622061   -0.0655379215   -0.0986734437
 C    0.5504941162   -0.5505738881   -1.2160682887
 C    2.0828882586   -0.7127725633   -1.0330551867
 C    2.4445200715   -1.9349319807   -1.8863476275
 O    3.4824553888   -2.1383178724   -2.4592450236
 C    1.2066192116   -2.7951674429   -1.9635762638
 O    0.6006300965   -2.9441203243   -0.6665110294
 C    0.0680359028   -1.9564586174   -1.5385994602
 H    1.1119408480    1.5143359883    0.4349873910
 H   -0.2005772312    1.9304677971   -0.7002076618
 H   -0.5733205848    1.5733896215    1.0080988368
 H    0.3534800950    0.0909518964   -2.0929174296
 H    2.6741751318    0.1515146267   -1.3363888554
 H    2.2945710739   -0.9362762133    0.0177266294
 H    1.1379892010   -3.6382681460   -2.6430121439
 H   -0.9462098985   -2.1259197900   -1.8887802775