17

 N    0.0964594176   -1.1412017860   -0.0777497575
 C    0.0597776755    0.0149381423   -0.0249275938
 C    0.0061860766    1.4360809662    0.0555450711
 C    0.2839179562    2.3298838376   -1.1313606159
 C    1.1901290505    2.4382537019    0.0601254688
 C    0.5030671102    3.2050170057    1.1691536287
 C    1.1535053709    3.8622443629    2.3184216115
 N    0.4063834010    4.6519779660    1.3144683152
 C   -0.6963476523    2.2359111150    1.1740956916
 H    0.7081231141    1.8302807401   -1.9952390712
 H   -0.4215280166    3.1235037461   -1.3618385730
 H    2.2469080850    2.2067856102    0.0012218237
 H    0.6932133885    3.8211558333    3.3020127027
 H    2.2394857817    3.9197117403    2.3280802032
 H    1.0507894882    5.1186837530    0.6798574005
 H   -1.6678365284    2.6600615376    0.9079325108
 H   -0.7833269789    1.6736773079    2.1055577836