12

 N   -0.2456497788    1.1086006513   -0.1232269257
 C   -0.3756250138   -0.1196652781    0.1112422631
 O   -0.4498751313   -0.9902201060   -0.9295249236
 C   -0.6616728000   -2.3546669043   -0.5910876219
 C   -2.0452302297   -2.6429717671   -0.2213833903
 C   -3.1897095473   -2.8716251196    0.0874559476
 C   -4.4825526234   -3.1359939550    0.4398607976
 N   -5.5802382388   -3.3633243973    0.7430034441
 H   -0.1847956408    1.6316854054    0.7476575477
 H   -0.4304966074   -0.6056854203    1.0945227639
 H   -0.3894974687   -2.9269683199   -1.4827730542
 H    0.0094894100   -2.6698939491    0.2203975916