13

 O   -0.0026965640   -0.0133838904    0.1388514494
 C   -0.0234664445    1.1830106598   -0.0338520395
 N   -1.1527590479    1.9970138641   -0.1176949680
 C   -0.8043977522    3.3826197497   -0.0030191022
 C   -0.0144697993    3.8374834303    1.2117546278
 C    0.7028053863    3.4013153737   -0.0539508505
 N    1.0770997948    2.0247719191   -0.1933916442
 H   -2.0074669785    1.6267079255    0.2659786678
 H   -1.4092321593    4.0880217388   -0.5605484722
 H   -0.0202249864    4.9007726751    1.4265052101
 H    0.0227652668    3.1864070360    2.0786513109
 H    1.2507078745    4.1213735252   -0.6502456052
 H    1.9644021796    1.6760188030    0.1320578658