17

 C   -0.0519984220    1.3917209473   -0.1210897564
 N   -0.0353219120   -0.0295784321    0.1169702338
 C   -1.0963225149   -1.0348289988    0.0692576862
 C   -1.5464036277   -1.4463674846   -1.3633987002
 C   -0.4121665509   -2.5147846235   -1.4110264527
 C    0.0278172349   -2.1215004736    0.0349710131
 C    1.0074504703   -0.9324907513    0.0458825804
 O    2.1984390588   -0.7741127546   -0.0357853502
 H    0.9856426433    1.7313302496   -0.1676495192
 H   -0.5456707581    1.6391925820   -1.0701543724
 H   -0.5642908961    1.9277253849    0.6859361177
 H   -1.8494310022   -0.9489106550    0.8549452955
 H   -2.5478480699   -1.8827214454   -1.3866905873
 H   -1.5004206537   -0.6483821024   -2.1086305503
 H   -0.7902161728   -3.5366245561   -1.4766069242
 H    0.3561217987   -2.3833952464   -2.1756778841
 H    0.1556924342   -2.9020186898    0.7819808005