23

 C   -0.0427727698    1.5446936097    0.0365054593
 C   -0.0483081843    0.0423941963    0.1097440265
 C   -1.2281716748   -0.7551272621   -0.4222545530
 C   -1.0492141780   -2.2169048710    0.1004127136
 C   -2.3977463811   -2.8371318828    0.4916844268
 C   -0.3781832492   -3.0940790384   -0.9718264784
 C   -0.1153780211   -2.0660186979    1.3456069658
 C    0.6122394649   -0.7543041304    1.1536602685
 O    1.2164876422   -0.6046645936   -0.1420821548
 H    0.8620944720    1.9488954097    0.4973175626
 H   -0.0726225036    1.8828665380   -1.0053229290
 H   -0.9157851139    1.9637895787    0.5482901240
 H   -2.1526447246   -0.3113671823   -0.0312699309
 H   -1.2915617792   -0.7164079336   -1.5154890314
 H   -3.0624727308   -2.9160726969   -0.3760505794
 H   -2.2637670019   -3.8465589228    0.8968193519
 H   -2.9092242675   -2.2365145652    1.2520187372
 H    0.5854523011   -2.6763922882   -1.2685777022
 H   -0.2141632681   -4.1100263930   -0.5941109496
 H   -1.0126878097   -3.1698476726   -1.8625792440
 H   -0.7008500540   -2.0092017288    2.2721633804
 H    0.5691984029   -2.9149105204    1.4483514679
 H    1.1665962588   -0.3026271323    1.9742748082