18

 C    0.2444652667    1.3259417393   -0.1597630623
 O   -0.1720850561    0.0086657085    0.1671971055
 C    0.5257725020   -0.5440173611    1.2494233270
 C    0.0897962139   -1.9980481204    1.4909477571
 C    1.4513583520   -2.5645415831    1.0624897563
 N    0.9378184554   -2.6759074108    2.4216785242
 C    1.5730723029   -2.0341523104    3.5718298856
 C    1.8975793552   -1.1494616447    0.7716891312
 O    2.8152849489   -0.6746533160    0.1631225717
 H    1.2948228247    1.3486637845   -0.4705909440
 H   -0.3887529311    1.6600526699   -0.9843420380
 H    0.1093469041    2.0060999072    0.6951281345
 H    0.5194389016    0.1292717559    2.1188366175
 H   -0.8898571130   -2.3938502885    1.2495497782
 H    1.7133775818   -3.4668753898    0.5206519646
 H    1.9775899807   -1.0296871008    3.3942774651
 H    0.8372780889   -1.9740215976    4.3790872023
 H    2.3926160314   -2.6759743022    3.9061199235