20

 C   -0.0442436364    1.4773378722   -0.1266073278
 C   -0.0241338403    0.0235772003   -0.0609023914
 C   -0.0222378557   -1.1801501317   -0.0108140146
 C    0.0281774641   -2.6140450851    0.0667399326
 C   -0.3325241536   -3.4641041415   -1.1112328999
 N   -1.2518749853   -3.3826259305    0.0250966335
 C   -1.1092849658   -4.4942719634    0.9829011864
 C    0.3917074396   -4.6607034540    1.3183875760
 C    0.9678187851   -3.2484186015    1.0963580486
 H    0.8029160457    1.9111871673    0.4163053908
 H    0.0095017270    1.8322526542   -1.1619237183
 H   -0.9617127338    1.8821602683    0.3151645225
 H   -0.6911396656   -2.9815962792   -2.0149913525
 H    0.2328087677   -4.3787219688   -1.2775430534
 H   -1.6774157026   -4.2202156710    1.8783743723
 H   -1.5597461961   -5.4024517191    0.5695786434
 H    0.5489542138   -5.0209388099    2.3378788569
 H    0.8667991802   -5.3846989290    0.6501974710
 H    2.0080991074   -3.2582273101    0.7590819511
 H    0.9268174246   -2.6550041977    2.0152751929