16

 C    0.0789488415    1.5297992598    0.0214898543
 C    0.0097334024    0.0399166580    0.0091404691
 C    0.9251152498   -1.0163804424   -0.5593618577
 C    0.6808302880   -0.9970187449    0.9278553406
 C   -0.5012762599   -1.9637774539    0.6876512005
 C   -1.1100401105   -3.1008068996    1.3947756960
 O   -2.0441734288   -3.7328170966    0.9626545933
 C   -1.1481813743   -0.9692991541   -0.2371920077
 N   -0.2345369063   -1.9824304566   -0.8184856933
 H    1.1056963821    1.8639383245    0.2050817163
 H   -0.2425217850    1.9524300395   -0.9371378468
 H   -0.5547078989    1.9550837720    0.8077755257
 H    1.8272831482   -0.9729473139   -1.1560014860
 H    1.3561963667   -0.8423294426    1.7575168912
 H   -0.6550777653   -3.3320843135    2.3842099146
 H   -2.1912482896   -0.8912402556   -0.5214203602