16

 C   -0.0190181126    1.5432253862   -0.0169084158
 O    1.3526713624    1.9321749917    0.0447596256
 C    2.0513572998    1.0028851047    0.8723322681
 C    1.3880176629   -0.3582962678    0.6150582782
 C    0.6497732466   -1.0692310086    1.7728394010
 O   -0.1897732266   -0.0949862248    2.4036626994
 C   -0.6637766032   -0.7265254617    1.2085142187
 C   -0.0139704399    0.0076072939    0.0128280451
 H   -0.5771170083    1.9450060783    0.8399986512
 H   -0.4311209924    1.9634857792   -0.9381138761
 H    3.1041380012    1.0408032668    0.5803010291
 H    1.9641472737    1.2817992225    1.9314782174
 H    1.9785270266   -1.0332527992   -0.0057630111
 H    0.9678172224   -1.9123343502    2.3749233772
 H   -1.6177327664   -1.2377534503    1.2641246228
 H   -0.2217503861   -0.4589615206   -0.9509274211