18

 C   -0.0134447759    1.5773588208   -0.2099306472
 C    1.4510683901    1.9487802609   -0.0590463111
 C    2.1786344993    0.9735657159    0.4900898409
 C    1.3227936973   -0.1981093489    0.7831452428
 N    1.7929705311   -1.5489423490    1.0538766935
 C    1.0250906177   -0.8411604558    2.1102410616
 C   -0.4591755365   -1.0084462557    2.1401590552
 C   -1.0364950409   -0.5375083028    1.0270296817
 C   -0.0214910374    0.0431354989    0.0715265235
 H   -0.6242608445    2.1186983187    0.5238102767
 H   -0.4148258988    1.8292232148   -1.1977675437
 H    1.8284101603    2.9248386887   -0.3421936829
 H    3.2340618697    1.0095187192    0.7288794440
 H    1.2008305895   -2.2362582674    0.5888825942
 H    1.5840903161   -0.6456889783    3.0196247945
 H   -0.9809005480   -1.4708600419    2.9709511010
 H   -2.0940313547   -0.6074860805    0.7951759724
 H   -0.0499754445   -0.4836674476   -0.8919810173