16

 C    0.0321622664    1.5719096716    0.1343747472
 O    1.2239728289    0.7723645210    0.1113772744
 C   -0.0204039346    0.1109255321    0.0184015713
 C   -0.4815018361   -0.8303218080    1.1771155506
 N   -1.6930406236   -1.5285076052    0.6595646595
 C   -1.5495138350   -1.4369314610   -0.5911351006
 O   -2.3919833869   -1.4575368605   -1.6670928660
 C   -1.5192907755   -0.4352030798   -2.3024023031
 C   -0.4275551409   -0.6832936218   -1.2187478246
 H   -0.1964229649    2.0437887556    1.0886608981
 H   -0.1259222100    2.1949779710   -0.7447853416
 H    0.3197739720   -1.5345273899    1.4365452078
 H   -0.7410389414   -0.2752535847    2.0824527355
 H   -1.2644974245   -0.7234699353   -3.3226052135
 H   -2.0157327725    0.5373348348   -2.2713902450
 H    0.3998636086   -1.2884565599   -1.5976602701