15

 C   -0.1685685985    1.5094698814   -0.0231053948
 C    0.0749821796    0.0198626350   -0.0482135268
 O    0.8875784114   -0.3494307109   -1.1620341716
 C    1.9429843626   -1.1781119742   -0.7171910303
 C    1.8564399956   -1.1600591451    0.8008199957
 O    2.5724267666   -1.6709929664    1.6038993677
 O    0.7615801655   -0.4135586970    1.1267346410
 C   -1.2133756185   -0.8202147159   -0.1471693823
 O   -2.3111799251   -0.3618924568   -0.2922289846
 H    0.7852461054    2.0359922666    0.0485966931
 H   -0.6820755785    1.8069019993   -0.9392669584
 H   -0.7989849223    1.7736339427    0.8281722572
 H    1.8446932258   -2.2054306187   -1.0895446997
 H    2.9089801334   -0.7805941897   -1.0461325404
 H   -1.0192807829   -1.9149581202   -0.0970534458