17

 C    0.1321144463    1.5025974975    0.3686640371
 N    1.4927505738    1.5308711979   -0.2502886459
 C    1.3087109306    0.1642030802   -0.8127629605
 C    2.0443106003   -0.3100092569   -2.0608287183
 C    3.1490564034   -1.2440367825   -1.4189085196
 N    2.5993858211   -1.7486946038   -0.1227556955
 C    1.6779820996   -0.9275131664    0.1267508782
 O    0.5596738190   -0.9003982897    0.9171602551
 C   -0.0731229689    0.0391054145   -0.0383078034
 H    0.1292244637    1.6842743771    1.4466488191
 H   -0.5885463081    2.1715952225   -0.1153944253
 H    1.5450082106    2.2205657111   -0.9918489879
 H    1.3931975033   -0.9026387079   -2.7097782237
 H    2.4603111256    0.5083968754   -2.6549823496
 H    3.3733958263   -2.1012771346   -2.0587854520
 H    4.0873771313   -0.7020231811   -1.2528596129
 H   -1.0359731180   -0.3450057733   -0.3716120951