17

 C    0.2714743735    1.5226268050    0.2854556260
 O    1.2495159675    2.0289138324   -0.6232826528
 C    2.0664822962    0.9529412158   -1.1001943229
 C    3.2178976605    0.6447415827   -0.1593574199
 C    3.0571065372   -0.5068593931    0.4930602755
 C    1.7788476129   -1.1946014411    0.0917643810
 O    0.6595337378   -0.8655193633    0.9764529103
 C    0.0916576397    0.0226961465   -0.0178328456
 C    1.1956792785   -0.3181193636   -1.0347693668
 H    0.5874834516    1.6372533306    1.3306569492
 H   -0.6438274148    2.1017492950    0.1266890216
 H    2.3945965181    1.2421086775   -2.1027982666
 H    4.0284636599    1.3495040785   -0.0096905729
 H    3.7125475400   -0.8953786311    1.2645728575
 H    1.8527978006   -2.2761655810   -0.0507529512
 H   -0.9405760016   -0.2586287644   -0.2434544706
 H    0.9274176225   -0.7701608663   -1.9862954718