19

 C   -0.0176937795    1.6005141995    0.1956147616
 C    1.5394933063    1.6248964649    0.1251085249
 C    1.5543171273    0.0768015721   -0.0309217857
 C   -0.0106697995    0.0613348072   -0.0453180660
 C   -0.2708879156   -0.5602621878   -1.4411295737
 C    0.1418622235    0.3788704625   -2.5852293821
 O    1.5757748420    0.3908126715   -2.4525162117
 C    1.8438554934   -0.5498076104   -1.4127513749
 O    0.8120609902   -1.5149975568   -1.5265047601
 H   -0.4070436941    1.8598460141    1.1827263355
 H   -0.5482717967    2.2118088184   -0.5379383861
 H    1.9509924264    2.1515489527   -0.7365920535
 H    2.0251494447    1.9928502473    1.0310143701
 H    2.0477000529   -0.4822185496    0.7662324810
 H   -0.5061728052   -0.5325975007    0.7243034360
 H   -1.2248416486   -1.0682663834   -1.5753005248
 H   -0.1354545119   -0.0384002092   -3.5601162598
 H   -0.2510874087    1.3955527858   -2.5059613814
 H    2.8213237530   -1.0035780480   -1.5750965992