13

 O    0.1104181409    1.3827641330   -0.0299098079
 C    0.0305312869    0.0035065147    0.0342029134
 C   -0.4013476922   -0.7220350216    1.2644261102
 C   -1.3224951912   -0.7241723250    0.0300530093
 C   -2.5020312256    0.0671276758    0.0557670311
 C   -3.4758590517    0.7887192071    0.0694998191
 C   -4.5846155753    1.5823098022    0.0944639897
 N   -5.5272177712    2.2621076275    0.1173868864
 H   -0.7534537156    1.7645977934    0.1681990025
 H    0.8033729188   -0.4519806359   -0.5764715017
 H    0.0706778417   -1.6636564246    1.5211613197
 H   -0.7308792319   -0.1253234468    2.1074377627
 H   -1.3883706936   -1.6447844896   -0.5409840944