20

 C    0.5868700402    1.4448841806   -0.4218584678
 N    0.1585845551    0.1083782702   -0.0182855560
 C    1.1850662324   -0.8446035323    0.3937286576
 C    0.2290104361   -0.2779449682    1.3864997907
 C    0.6887209451    0.6443798696    2.5033051555
 C    0.7638393409   -0.0909221893    3.8669964558
 O    1.9391610979    0.4261658078    4.4684684916
 C    2.8059908089    0.6563533778    3.3918056872
 O    2.0144087285    1.1608980752    2.3324581071
 H    1.4571459979    1.8277514668    0.1261918175
 H    0.8272049136    1.4203088569   -1.4894297398
 H   -0.2468110291    2.1419493990   -0.2850038065
 H    1.0695156990   -1.8615353728    0.0270813306
 H    2.2101386053   -0.4857576962    0.4575341012
 H   -0.6186061026   -0.8909949493    1.6989028127
 H    0.0141613940    1.5077820837    2.5688756560
 H   -0.0824808399    0.1174505875    4.5240239388
 H    0.8444658945   -1.1784687405    3.7153596910
 H    3.5485621669    1.4056490589    3.6796474008
 H    3.3050803052   -0.2799256054    3.0819033161