15

 N    0.1508754690    1.4013758806    0.0088359136
 C   -0.0164052788   -0.0014082219    0.0114425109
 C   -1.0985229232   -0.8697637657   -0.0143909440
 N   -2.4876343361   -0.8726876669   -0.0534574547
 C   -2.7958198132   -2.1409297152   -0.0554556904
 N   -1.7118527405   -3.0030315283   -0.0204893576
 C   -0.5863101256   -2.1982383294    0.0071059596
 C    0.7900745286   -2.1594110963    0.0456340226
 N    1.0984163775   -0.8100082479    0.0472786419
 H   -0.2636717733    1.8174453588   -0.8198186955
 H   -0.3139661814    1.8262524330    0.8056996953
 H   -3.8038690429   -2.5326538833   -0.0817655698
 H   -1.7580861908   -4.0063758191   -0.0157025058
 H    1.5571787570   -2.9135698955    0.0711645743
 H    2.0278576535   -0.4254393630    0.0716564396