23

 C   -0.0503214647    1.3259002955   -0.0583941185
 C    0.4368648199   -0.1176083950   -0.2349267755
 C    1.1057192827   -0.6485443034    1.0086459273
 O    0.2411709773   -0.9730183046    2.1149046913
 C    0.9559909890   -2.0260292839    1.4897104997
 C    0.3144186394   -3.2367805564    0.8055176968
 C    1.5566155126   -4.0786550370    1.2475021852
 C    2.5500411977   -4.3691974493    0.1276670588
 C    1.9794144947   -2.9137405535    2.2012824744
 H    0.7827622315    2.0010319932    0.1660286924
 H   -0.5418335307    1.6910804440   -0.9649443317
 H   -0.7646231839    1.3893819564    0.7677206279
 H   -0.4069627165   -0.7670690890   -0.4912853108
 H    1.1502049287   -0.1745874529   -1.0681012756
 H    2.0085267641   -0.1107994260    1.3117725160
 H   -0.6091047090   -3.5395258411    1.3072484911
 H    0.1246215290   -3.1680307711   -0.2696701257
 H    1.3009433220   -5.0056750108    1.7666701477
 H    2.8200953070   -3.4523429972   -0.4095044049
 H    3.4737354661   -4.8070157372    0.5214921412
 H    2.1306242089   -5.0697974782   -0.6026246339
 H    3.0269401664   -2.6002560753    2.1668188891
 H    1.6979635680   -3.0920895174    3.2431610579