16

 C   -0.0577510092    1.5231898096   -0.0034329328
 C   -0.0449998010    0.0215433869    0.0862404613
 N   -1.3169933114   -0.6516692989   -0.1198526591
 C   -1.3073751218   -1.6667404032    0.6454711322
 O   -0.2117779977   -1.8891188337    1.4193177407
 C    0.6790423821   -0.8366745483    1.0887436801
 C    1.2056961440   -0.7768481338   -0.3414946703
 C    1.1835550768   -1.9114670184   -1.2947364722
 O    2.1074461597   -2.1645181213   -2.0314946104
 H    0.9226104493    1.9389877588    0.2442641776
 H   -0.3207193079    1.8405498741   -1.0166932410
 H   -0.7976207222    1.9402992482    0.6865318876
 H   -2.0962408051   -2.4013106257    0.7491575924
 H    1.2986103484   -0.5277567389    1.9204734546
 H    2.1035863049   -0.1732075514   -0.4314826862
 H    0.2591806211   -2.5216920538   -1.3111738745