16

 C    0.1486037157    1.3067372584   -0.3215376446
 N   -0.0909680467   -0.0509211504    0.1614324742
 C   -1.4890269825   -0.4518360184    0.2035138165
 C   -2.1574702685   -0.4049107986   -1.1211694613
 N   -2.6383875336   -0.3331499334   -2.1700336175
 C   -1.5771179479   -1.8347963291    0.8315883124
 C   -2.5140025639   -2.8756379412    0.3983648130
 O   -1.1322591123   -2.9155875277    0.0192736030
 H    1.2254416121    1.4931615904   -0.3281889119
 H   -0.2469312747    1.5029139896   -1.3302002025
 H   -0.3103141644    2.0228532531    0.3691243239
 H    0.4225126430   -0.7250814308   -0.3977496385
 H   -2.0229898790    0.2529270522    0.8562097312
 H   -1.1987257783   -1.8472613035    1.8533820005
 H   -2.8214326263   -3.6375365688    1.1120999523
 H   -3.2093326426   -2.6767449419   -0.4136560306