18

 O    0.1245490081    1.4228257415   -0.1861676414
 C   -0.0032521596    0.0485317487   -0.0103237571
 C    0.2186968969   -0.6311412348    1.3928577313
 C   -0.3790706860    0.3003379890    2.4084744119
 C   -1.6835341347    0.5479615952    2.2355282515
 C   -2.3472525098   -0.3190971677    1.1954284887
 C   -2.0280223752   -1.7812051384    1.6507602358
 N   -0.7397300494   -1.7416982569    0.9065922774
 C   -1.3569144129   -0.6581925123    0.0121672697
 H   -0.3626991293    1.8450659072    0.5331720916
 H    0.6338257480   -0.4380093347   -0.7524339641
 H    1.2114329103   -1.0036184196    1.6443406718
 H    0.2360813304    0.7669493480    3.1699640453
 H   -2.2678183249    1.2097459310    2.8661163086
 H   -3.3727013947   -0.0378720213    0.9529002639
 H   -1.9761733374   -1.9780684472    2.7248191274
 H   -2.6653772847   -2.5241696666    1.1610275415
 H   -1.8375687949   -0.9732760412   -0.9175975038