19

 C    0.1114912909    1.5539640467    0.1120316084
 C   -0.0917394366    0.0515490195    0.2706778751
 O   -0.1033539135   -0.2298539141    1.6601945527
 C   -1.3924938265   -0.4284196508   -0.4009110669
 C   -1.4736214258   -1.9381228824   -0.4615968908
 N   -1.5202524638   -2.6507238919    0.8257312611
 C   -2.6934574074   -2.7170554342   -0.0698815524
 C   -3.8996760824   -2.0674918090    0.3835045586
 N   -4.8790182311   -1.5505009156    0.7146586740
 H    1.0025299911    1.8661273290    0.6630930774
 H    0.2387354138    1.8260321430   -0.9404485417
 H   -0.7466435788    2.0996559799    0.5170358508
 H    0.7568586365   -0.4680594806   -0.2132014241
 H   -0.5565781983   -1.0744885535    1.7885774248
 H   -2.2396839455   -0.0236322819    0.1631802117
 H   -1.4576334315   -0.0348602728   -1.4216236558
 H   -0.8817007367   -2.4032530024   -1.2482047676
 H   -1.0116162113   -3.5295910839    0.7885564170
 H   -2.8748994930   -3.6503443851   -0.5954837825