18

 O   -0.6847788869    0.9404232253    0.9875349107
 C   -0.0402111391    1.0259897741   -0.0280107185
 C    1.3057989624    1.7279625155   -0.1040521538
 C    1.3885177935    2.7756722618   -1.2257319272
 C    2.6360449420    3.6773909594   -1.1825130090
 C    2.8602345714    4.0765206589   -2.6566671705
 N    2.3054125335    2.9363464800   -3.3667695306
 C    1.4414017554    2.1694447563   -2.6388295529
 O    0.8331495963    1.1990892782   -3.0425092236
 H   -0.3902058227    0.5916913662   -0.9847134768
 H    1.4988404545    2.1874688945    0.8701828473
 H    2.0735057551    0.9604327099   -0.2757972537
 H    0.4869514388    3.4044965146   -1.1973235599
 H    2.5227737503    4.5436909780   -0.5279845906
 H    3.4943142916    3.0968257849   -0.8273144807
 H    2.3313993897    5.0072803276   -2.9072072423
 H    3.9185784567    4.2191279233   -2.8949554351
 H    2.3992048876    2.7938722617   -4.3599359327