18

 N    0.1152248694    0.4088669778    0.8296842859
 C   -0.4049925981   -0.5394480258   -0.0055233215
 N    0.5344209817   -1.4239288702   -0.5815710556
 C    1.8592670417   -1.5715051010   -0.3017590639
 O    2.5034381660   -0.9238200830    0.5024869834
 N   -1.6185540132   -0.7090712794   -0.3716702786
 C   -2.5903116729    0.2082036730    0.1331039626
 C   -4.0377393435   -0.0806517051   -0.1422995199
 C   -3.5099401820   -0.2255734213    1.2644787161
 H    1.0765557375    0.2752890282    1.1201808589
 H   -0.5270358855    0.8147108639    1.4896197678
 H    0.1097790602   -2.0420191585   -1.2579194645
 H    2.3118862041   -2.3754954492   -0.9096556839
 H   -2.3023158134    1.2611823277    0.1294325125
 H   -4.6985944190    0.7495822179   -0.3650625926
 H   -4.2446652879   -0.9916576348   -0.6921388976
 H   -3.3698551244   -1.2308932956    1.6446871100
 H   -3.8011686505    0.5071999153    2.0097072009