17

 C    0.2902786639    1.4708127677    0.2524208455
 N    1.3015209426    0.4115347044    0.0675568311
 C   -0.1253146532    0.0592897676    0.0789976546
 C   -0.5895761001   -0.7914017811    1.2451357272
 C   -0.0112217418   -2.2333072924    1.2171201020
 O    0.4338082892   -2.4555297886    2.5464842384
 C    0.8099719070   -1.1836669136    3.0092598092
 O   -0.1452733298   -0.2738549044    2.4974035138
 H    0.2738688312    1.9005001940    1.2478333628
 H    0.1065601958    2.1657303413   -0.5625992254
 H    1.6542698256    0.4266249631   -0.8852340667
 H   -0.5924521220   -0.2075567360   -0.8689854509
 H   -1.6868524695   -0.8017361461    1.2627146431
 H   -0.7538962415   -2.9952068698    0.9707080815
 H    0.8261859293   -2.2947313445    0.5079213524
 H    0.7654370180   -1.1742120751    4.1021218108
 H    1.8168223253   -0.9140485264    2.6525020608