19

 C    0.0556109800    1.3736640354   -0.6251509904
 C   -0.2244977151   -0.1268201331   -0.5110342978
 C   -1.2648705963   -0.4635220803    0.5654798964
 O   -2.5117916332    0.1781872608    0.3308174711
 C   -1.4111341884   -1.9697217217    0.7335496243
 O   -2.2852000264   -2.4569953973    1.7429232647
 C   -2.6299467333   -2.7379650399    0.3865107742
 C   -3.8951371212   -2.0998672826   -0.1169450334
 O   -4.2952873362   -2.2574004261   -1.2445315837
 H    0.7719954217    1.5779945328   -1.4256884572
 H   -0.8599412951    1.9331027993   -0.8357348566
 H    0.4725159148    1.7651643324    0.3087582167
 H   -0.5754108302   -0.5239212913   -1.4750709670
 H    0.7047371710   -0.6630863579   -0.2839071179
 H   -0.9210849432   -0.0674509462    1.5310025615
 H   -2.6904703202    0.1521680515   -0.6167848850
 H   -0.4649215126   -2.5141231658    0.6791340904
 H   -2.4973628057   -3.7714184648    0.0624440989
 H   -4.4421765704   -1.5116271653    0.6437111907