17

 C   -0.0036864440    1.5004673892   -0.0376655939
 C    0.0297573704   -0.0021294192   -0.0081509444
 N    0.0100544480   -0.6452431975   -1.1752121011
 C    0.0531685397   -1.9846202222   -1.1445460791
 N    0.1043065465   -2.6337611566   -2.3587372413
 N    0.0876437339   -2.7452888143   -0.0439399119
 C    0.0956089356   -2.0874731554    1.1128440487
 C    0.0781934448   -0.6983552628    1.2127876833
 N    0.1691662113   -0.0275373904    2.4465868249
 H    0.8297758006    1.9202107898    0.5372742442
 H    0.0523026777    1.8499496086   -1.0689055341
 H   -0.9287209123    1.8902604297    0.4088422234
 H   -0.2311636732   -2.0995025615   -3.1439668484
 H   -0.1673153010   -3.6035525812   -2.3352122033
 H    0.1185059003   -2.6974923276    2.0165322003
 H   -0.0280707487   -0.6304033739    3.2353343145
 H   -0.4093352295    0.8007600951    2.5030852982