17

 O   -0.0191723628    1.4528056106   -0.0206092061
 C   -0.0051858529    0.0411303501    0.0118841686
 C   -1.4206563200   -0.5062791401   -0.1467484709
 C   -2.3560048121    0.2393826642   -1.0205034620
 N   -1.6488746685   -0.9351284782   -1.5502676885
 C   -0.4213515455   -0.6128395100   -2.3071956624
 C    0.7028135658   -0.5774390498   -1.2386466751
 C    1.9025604015    0.1526689911   -1.6219503625
 N    2.8399287014    0.7764334811   -1.8864995384
 H    0.8927794050    1.7685005221   -0.0220944713
 H    0.4589531913   -0.3250075690    0.9364799806
 H   -1.7909559990   -1.1744190249    0.6244384077
 H   -3.4268124097    0.1073129132   -0.8954142257
 H   -2.0444262346    1.2252950156   -1.3512996193
 H   -0.2370337463   -1.3881883524   -3.0539747946
 H   -0.4943882805    0.3491154548   -2.8251639195
 H    0.9811913772   -1.6086008484   -0.9938902405