14

 O   -0.1185677296    1.3660185211    0.0924396522
 C    0.0711059037    0.0282372190   -0.0259362911
 C    1.2177490683   -0.6502642258    0.1427649643
 N    1.1970242641   -2.0481009038   -0.0285251806
 C    0.0985833879   -2.7887523848   -0.3558765951
 O    0.1181475303   -3.9988379197   -0.4957952620
 C   -1.1844891055   -2.0014691084   -0.5411612561
 N   -2.2940269068   -2.5428481740   -0.8470748389
 N   -1.0892890849   -0.6308523691   -0.3571893974
 H    0.7154892019    1.7870287058    0.3235611389
 H    2.1598662414   -0.1948196665    0.4024121023
 H    2.0496470358   -2.5739682337    0.0942669808
 H   -2.1327727453   -3.5483338649   -0.9318346022
 H   -1.9353449813   -0.0919943655   -0.4771581851