18

 C    0.0497286427    1.6018157209   -0.0021571162
 C    0.0739862617    0.0812966861   -0.0156266738
 C    0.7811645433   -0.6837997467   -1.1394776680
 C    2.2434288517   -0.8097202606   -0.6636396472
 O    2.3704929686   -0.1065277015    0.5724823121
 C    1.0712520615   -0.6640201752    0.9200556743
 C    1.2292058631   -1.7894119741   -0.1820698599
 C    1.1009683408   -3.2766102819   -0.1918797427
 H    1.0664420071    1.9982146870   -0.0547588626
 H   -0.5193397044    1.9921318962   -0.8529194158
 H   -0.4200757228    1.9806207443    0.9127875215
 H   -0.9271287431   -0.3398129494    0.1301008163
 H    0.4982416307   -0.7763151065   -2.1814850919
 H    3.1066224516   -0.9007061505   -1.3104758399
 H    0.9201102840   -0.7706399208    1.9932462520
 H    0.0777297553   -3.5960720363    0.0371782994
 H    1.3555361927   -3.6764241702   -1.1794587816
 H    1.7707230055   -3.7428629606    0.5394374641