15

 O    0.1254836053    1.4033168503    0.0081803805
 C    0.0540544381    0.0003737677   -0.0351341763
 C   -1.4035833097   -0.5244821631   -0.0119630920
 C   -1.4494187123   -2.0717978523   -0.1076580106
 C   -2.8002436153   -2.6009989194   -0.2252875679
 C   -3.9234905778   -3.0136842185   -0.3270258135
 C   -2.0620439034   -0.0339915988    1.2012644779
 N   -2.5145502455    0.3919213074    2.1761947797
 H   -0.1996119397    1.6967606563    0.8674624834
 H    0.5134624854   -0.3055665596   -0.9801707800
 H    0.6193644331   -0.4715955239    0.7830795721
 H   -1.9310785820   -0.0976497018   -0.8718005202
 H   -0.8556106757   -2.3691114866   -0.9808549470
 H   -0.9521741399   -2.5018594662    0.7700169161
 H   -4.9150246007   -3.3854890515   -0.4083731021