13

 O   -0.0233254041   -0.0503168305    0.0031103058
 C   -0.0128926420    1.1399838063    0.0090727957
 O   -1.1105154902    1.9403857016    0.0290279470
 C   -0.7567304335    3.3477561719    0.0312135189
 C    0.7385979563    3.3259038294    0.0094338689
 C    1.9044130492    4.0312647493   -0.0039477494
 N    2.9784250639    3.1490301314   -0.0239922206
 C    2.4737637690    1.9418299821   -0.0227944735
 N    1.1021555887    1.9992376128   -0.0025611920
 H   -1.2105409389    3.8120993694   -0.8495146698
 H   -1.1847448800    3.8028422070    0.9295172750
 H    2.0590718984    5.0984753465   -0.0008041047
 H    3.0141868532    1.0088605328   -0.0353650113