19

 C    0.0859748423    1.5333521913    0.0564623040
 C    0.0547148304    0.0072244405    0.0221443232
 C   -1.3715661654   -0.5207776165    0.1775557268
 C    0.7908138058   -0.7130817654   -1.1290108638
 C    1.3158568632   -1.7747170556   -0.2258506907
 C    2.2938964396   -0.7270703279   -0.8095538265
 C    2.4386380426   -0.1864763916    0.5786725438
 O    3.3491218824    0.2783515815    1.2062656377
 C    1.0585865707   -0.7561198126    0.9580627421
 H    1.0970962030    1.9260674705   -0.0842420025
 H   -0.5504607465    1.9500284357   -0.7322443970
 H   -0.2881418074    1.9096420450    1.0151662661
 H   -2.0074250055   -0.1691553168   -0.6433416896
 H   -1.3965440126   -1.6148711168    0.1788106182
 H   -1.8159457975   -0.1685944257    1.1147494861
 H    0.4695331337   -0.8136970052   -2.1598232845
 H    1.3943239407   -2.8492610125   -0.2725657098
 H    3.0456590595   -0.8703695047   -1.5734948376
 H    0.8122109412   -0.9892998330    1.9911061941