15

 O    0.0743082373    1.2862351082   -0.2538184500
 C    0.0798881315   -0.1031529287   -0.0606375409
 C    0.1176657304   -0.6009485414    1.3782080082
 N    0.9261721216   -0.4522366513    2.3235518926
 O   -1.0962907581   -1.2491122496    1.2983420825
 C   -1.2984854742   -0.7550077867   -0.0555529149
 C   -2.6031511242   -0.2189593823   -0.5111007716
 C   -2.0511880680   -1.5256179246   -1.0763921421
 H    0.8312679389    1.6466309708    0.2222542097
 H    0.8069644149   -0.6103192594   -0.7102097367
 H    0.5973709856   -0.8967897183    3.1822395779
 H   -3.4368841000   -0.2891981389    0.1785802162
 H   -2.5884471388    0.6713634936   -1.1297373550
 H   -1.6729292389   -1.5400043329   -2.0933079087
 H   -2.5247796681   -2.4458700185   -0.7525308472