17

 N   -0.0546295088   -1.1016238865   -0.2168159857
 C   -0.0384139506    0.0512833414   -0.1117671623
 C   -0.0249423098    1.4784068448    0.0295361366
 C    0.4555337323    2.3104977480   -1.1502016214
 C    1.3052101253    2.2515252640    0.0825638913
 C    1.1287026350    3.3445168151    1.1129539509
 N    0.1110582184    4.3566975893    0.7577415461
 C   -0.2416954550    3.2675030941    1.6875126011
 C   -0.9965001301    2.1059075603    1.0488256387
 H    0.7931365832    1.7590059417   -2.0197845921
 H   -0.0735650035    3.2346596260   -1.3466904617
 H    2.2455449565    1.7153553607    0.0588174320
 H    1.9869200358    3.6422911933    1.7043482420
 H    0.2803853891    5.2127364015    1.2795790987
 H   -0.4468445280    3.5151973136    2.7241375684
 H   -1.9320593720    2.4272091254    0.5817398822
 H   -1.2426271476    1.3643264374    1.8142697252