20

 C    0.0960174983    1.2516354075   -0.3355041597
 O   -0.0931173560   -0.0004292132    0.3013254238
 C   -1.3764331234   -0.5374870630    0.1688516949
 C   -2.4433953044    0.1530046736    0.9892966317
 C   -1.7166409708   -1.1695441392   -1.1539640963
 C   -1.3633146320   -2.0632473403    0.0399480015
 C   -0.0415128382   -2.8172191113    0.0386170562
 C   -2.4521771758   -2.7847765684    0.6511578965
 N   -3.3173802158   -3.3753738642    1.1432966243
 H    1.1580056752    1.4896909063   -0.2458940331
 H   -0.1747147378    1.2094689870   -1.3996300073
 H   -0.4848284686    2.0511857343    0.1425466038
 H   -2.6165528109    1.1712027461    0.6268552608
 H   -3.3919158335   -0.3852675037    0.9404887717
 H   -2.1327240520    0.2079883770    2.0369483785
 H   -2.7456860624   -1.1536344024   -1.4941760000
 H   -0.9698486280   -1.1305571410   -1.9393562557
 H    0.7483106156   -2.1836039899   -0.3644368722
 H    0.2399967127   -3.1063031385    1.0550860180
 H   -0.1198249024   -3.7252939968   -0.5661129573