16

 O    0.0668849517    1.3539638731    0.2850235815
 C    0.1058442927   -0.0392161841    0.0460180481
 C   -1.2978388494   -0.6139273222   -0.0604813416
 C   -1.5929238481   -2.1166101134   -0.0266181014
 C   -2.7687920264   -1.8470967443    0.8293860547
 C   -1.5696711548   -2.5244983186    1.4786129124
 C   -1.3461688524   -1.2377012446    2.1878858875
 O   -0.8460903450   -0.8541886722    3.1975035804
 N   -2.1694016067   -0.4793526299    1.1984179850
 H   -0.4109381470    1.4894184707    1.1118259419
 H    0.6237947190   -0.1805371610   -0.9091391482
 H    0.6887656415   -0.5691222189    0.8143613407
 H   -1.8357706004   -0.1272932883   -0.8787789318
 H   -1.4699709966   -2.8750906907   -0.7909473741
 H   -3.8173949915   -2.0994024117    0.8421158496
 H   -1.4384955866   -3.5496791339    1.7958935653