19

 O    0.1110203486    1.4031504571   -0.0476233863
 C    0.0291092553   -0.0034996547    0.0120165412
 C   -1.4325922833   -0.5218530779    0.0229032052
 C   -1.4880132767   -2.0827683783    0.1075217105
 C   -2.6225764096   -2.4168054554    1.1070222253
 C   -2.8087808390   -1.1220870345    1.8601615274
 C   -2.1818963966   -0.1020534082    1.2819604867
 C   -2.1043706458    0.0014030461   -1.1721390101
 C   -2.6122075378    0.4722535929   -2.1571460147
 H   -0.3566847532    1.6786274886   -0.8459644961
 H    0.5702924015   -0.4806887073   -0.8205194782
 H    0.5106253783   -0.3031216014    0.9482239142
 H   -1.6264777814   -2.5413223052   -0.8727865626
 H   -0.5304844962   -2.4371102341    0.5047298123
 H   -3.5501275127   -2.7026409305    0.5928342902
 H   -2.3627380390   -3.2567725505    1.7606855783
 H   -3.4153616578   -1.0496598500    2.7564543488
 H   -2.1845127169    0.9311210625    1.6052680405
 H   -3.0896122077    0.8642365207   -3.0212411726