20

 C   -0.0751646100    1.4781805327    0.0762474520
 C    0.0657561309   -0.0132958596   -0.0089886409
 C   -0.0393779100   -0.8901668675   -1.2488115344
 N   -0.2465807622   -2.0983072831   -0.3607036791
 C    1.1129982144   -2.2037947191    0.3024786425
 C    0.8396060055   -0.8889999501    1.0161641500
 C    1.5269579703   -0.3501783798    2.2276094160
 O    1.5195388136   -1.3641222196    3.2281564223
 C   -0.6298172956   -1.1041439200    0.7597705121
 H    0.8014850259    1.9881544268   -0.3405296041
 H   -0.9529232489    1.8145573311   -0.4872624523
 H   -0.1990377432    1.8220074116    1.1077894300
 H   -0.9554378004   -0.6909055210   -1.8136972223
 H    0.8083348735   -0.9698568716   -1.9405345650
 H    1.1196708104   -3.0466480913    0.9966456564
 H    1.9554002056   -2.2870760788   -0.3952939086
 H    2.5602328191   -0.0640166598    1.9694969762
 H    1.0200039997    0.5598564028    2.5846289105
 H    2.0608281619   -1.0602479092    3.9629635111
 H   -1.5051355406   -1.1604819945    1.3916421578