15

 O   -0.0650993877    1.4520801220   -0.0301134153
 C    0.0299944760    0.0368370478    0.0305656027
 C   -1.3872201178   -0.5195177132   -0.0283054712
 C   -1.4142284255   -2.0567055017    0.0263229885
 O   -0.7702423363   -2.5638459992    1.1955490279
 C   -2.7828186445   -2.5668695387   -0.0966927435
 C   -3.9156874026   -2.9650327486   -0.1534710784
 H    0.8197922223    1.8152966604    0.0672615796
 H    0.6182349465   -0.3610719930   -0.8135703183
 H    0.5173632940   -0.3001513830    0.9554338230
 H   -1.9719678495   -0.1151182537    0.8064000664
 H   -1.8737945352   -0.1822601761   -0.9498245978
 H   -0.8147091575   -2.4493329653   -0.8052419669
 H   -1.3603583634   -2.4035088623    1.9407359823
 H   -4.9109332987   -3.3304959954   -0.2176770189