15

 N    0.0623221174    1.3779789598    0.3430221434
 C   -0.0249921256    0.0148520036    0.0928499026
 C   -1.2265672433   -0.6295839288    0.1446347145
 C   -1.4806686460   -2.0242431430   -0.2237701316
 O   -2.4609744417   -2.3431769330   -0.8662726682
 N   -0.6387303789   -3.0264345812    0.2926574960
 C    0.6412203772   -3.0023805459    0.2530119056
 C    1.5286598501   -1.9469455106   -0.1896238320
 C    1.2366490976   -0.6281207960   -0.2246605831
 H    0.8444380006    1.8646041468   -0.0665898782
 H   -0.7994349616    1.8980419089    0.2812053300
 H   -2.1270523672   -0.0422122889    0.3061719293
 H    1.1480833146   -3.8934588655    0.6359577644
 H    2.5534733994   -2.2439728499   -0.3953410140
 H    2.0545232073    0.0509648539   -0.4592555387