18

 C   -0.2272569722    1.3453522845   -0.0298584662
 O    0.1234321005   -0.0292691877    0.1097189026
 C    0.7370877503   -0.5410958327   -0.9987243460
 C   -0.0367679173   -1.0603903797   -2.2281288955
 C    0.1961122304   -0.6605537450   -3.6674379926
 C    0.8463994642   -1.9886797187   -1.4296606844
 N    2.2721830425   -1.7833637468   -1.7147524044
 C    2.2182703452   -0.4171590030   -1.3738658862
 O    3.0422612653    0.4524652806   -1.4054589877
 H    0.6577534781    1.9608180623   -0.2280687826
 H   -0.9539052419    1.4880828971   -0.8413767070
 H   -0.6785791636    1.6498881125    0.9161799565
 H   -1.0861623612   -1.1767055009   -1.9562031181
 H    1.2603830826   -0.5604602947   -3.8968836036
 H   -0.2263741851   -1.4064169862   -4.3496295038
 H   -0.2792204146    0.3003979534   -3.8875594060
 H    0.5144169317   -2.8708060754   -0.8983373736
 H    2.7321505150   -2.1167640695   -2.5546271814