15

 O   -0.2633446957    1.3135629307    0.0473851280
 C    0.0224502657   -0.0709505262    0.0006695690
 C    0.6950364517   -0.4421523505   -1.2627719922
 N    1.2570396236   -0.7140024409   -2.2352204601
 C    0.8426075314   -0.5459080760    1.2038388164
 C    0.0688996244   -0.4878996885    2.5368554030
 O   -0.0612355818   -1.9245826358    2.5666254838
 C    0.8316346717   -2.0717540027    1.4441316285
 H    0.5652332440    1.7996879635   -0.0386493165
 H   -0.9540682026   -0.5689658429    0.0204118268
 H    1.8267467062   -0.0707079110    1.1932133683
 H    0.6523672795   -0.1107085675    3.3860187418
 H   -0.9000723351    0.0225206057    2.5116649982
 H    0.4029114089   -2.6917258598    0.6475592477
 H    1.8011050282   -2.4921797479    1.7380818373