21

 C   -0.3057921660    1.5922465217    0.1138900439
 C   -0.1033394506    0.0828476898    0.1070721110
 C    0.4206610705   -0.5530031314   -1.1905737720
 O    1.7413166531   -0.0326998863   -1.4174966066
 C    1.5875696106   -1.1442599569   -0.5139265587
 C    2.3883498730   -2.3790109272   -0.7744458828
 C    1.1518438034   -0.5491828820    0.8407930157
 C    2.1439204480    0.3508331251    1.5510974368
 O    1.5119013622    0.8525030582    2.7247595969
 H    0.5391544050    2.0972491687   -0.3622127888
 H   -1.2128455706    1.8646306307   -0.4367775393
 H   -0.3969381040    1.9644542185    1.1376207487
 H   -1.0106702643   -0.4266753320    0.4462621638
 H   -0.1284534501   -0.8853808283   -2.0656857059
 H    2.3809171453   -2.6194732344   -1.8409447312
 H    3.4311170285   -2.2450166966   -0.4645446542
 H    1.9807348416   -3.2297536537   -0.2186058162
 H    0.8271068726   -1.3338777784    1.5316713802
 H    3.0449886023   -0.2310008455    1.8087197581
 H    2.4566712367    1.1630997593    0.8822003035
 H    2.0984628527    1.4996554806    3.1271464471