17

 C   -0.0959278890    1.4747544618   -0.1109303566
 C    0.0411020170   -0.0473020360    0.0589459018
 C    0.7509559013   -0.4019635466    1.3655290611
 O   -1.2475753054   -0.6482104992    0.1126627753
 C    0.8079683900   -0.6177274997   -1.1335542648
 C    0.5835718841   -1.9821392425   -1.6169048775
 O    0.0068312300   -0.8536749592   -2.2984534778
 H    0.8813984123    1.9692696780   -0.1073025352
 H   -0.5909847247    1.7095818197   -1.0589199641
 H   -0.6976750268    1.8856838992    0.7039688956
 H    0.1963093126    0.0081932052    2.2141564308
 H    0.8095404783   -1.4869490891    1.4858899215
 H    1.7649428521    0.0093271784    1.3859810974
 H   -1.5872163110   -0.6223687217   -0.7927003811
 H    1.7688214865   -0.1453896616   -1.3422250833
 H    1.3687815699   -2.4970457081   -2.1668809828
 H   -0.1311047072   -2.6138779985   -1.0961795503