15

 N   -0.0720083933    1.3149940608   -0.1975274260
 C   -0.0113944018    0.0757455912    0.0494909319
 C   -1.2700881558   -0.7719498010    0.1125175940
 N   -1.2082134026   -1.9293475289    1.0051930355
 C    0.0325720227   -2.6658292195    0.7779097220
 C    1.2592751601   -1.7785930557    0.9481864952
 O    1.1853623955   -0.5764818630    0.1635562962
 H    0.8712059935    1.7076914026   -0.2511987957
 H   -2.1057233500   -0.1248769083    0.3819612678
 H   -1.4638077119   -1.1420235784   -0.9043695686
 H   -1.2405786812   -1.6133692599    1.9710587157
 H    0.0937984454   -3.5133848658    1.4687583500
 H    0.0043786354   -3.0718200120   -0.2413685657
 H    1.3730608646   -1.4960388673    2.0054129649
 H    2.1776631694   -2.2813222246    0.6306089430