16

 N   -0.2007683756    1.5369125935    0.1060483805
 C    0.0358518844    0.0831305087    0.0212146404
 C    0.7505937918   -0.3605152449    1.2271026158
 C    1.3632128323   -0.7277993216    2.1921936332
 C   -1.2941644925   -0.5758381507   -0.0078905141
 N   -2.3268729732   -1.0873976034   -0.0769731604
 C    0.7943448868   -0.3303516515   -1.2613673477
 C    2.2749221910   -0.2927180526   -1.3086621738
 N    1.5503459165   -1.5753756461   -1.3691527963
 H    0.7013222726    2.0054387790    0.0885275318
 H   -0.7116862523    1.8372407123   -0.7206072256
 H    1.8842630931   -1.0461324800    3.0624277411
 H    0.2268353846   -0.0749489227   -2.1543406918
 H    2.7742515930   -0.0012899741   -2.2278450862
 H    2.8069865095   -0.0465305654   -0.3941217098
 H    1.5967090077   -2.0305821406   -0.4587926969