17

 C   -0.0241409593    1.5491283728   -0.0152892044
 C    0.0489359914    0.0225546462   -0.0070455679
 C    0.7032407659   -0.5644547762   -1.2638154076
 N    0.9481807742   -2.0007385988   -1.1766255018
 C    0.9814200386   -2.5362425506   -0.0375549030
 O    0.8483035610   -1.9603443652    1.1978018824
 C    0.7998004224   -0.5306576038    1.2195610866
 C    2.1717421448    0.0042346052    1.3226274793
 N    3.2387073890    0.4406453704    1.3983623088
 H    0.9737702762    1.9953394672   -0.0678737633
 H   -0.5944344222    1.8952071796   -0.8822566533
 H   -0.5193095558    1.9315853588    0.8835069957
 H   -0.9652789815   -0.3880824788    0.0732452209
 H    0.0652504084   -0.3821712406   -2.1350892946
 H    1.6566256847   -0.0590881748   -1.4693737796
 H    1.1253775431   -3.6071400674    0.0851830350
 H    0.2713452990   -0.2708060138    2.1420598469