15

 C   -0.0155091851    1.4829963943    0.0577671218
 C   -0.0019862157   -0.0049067066   -0.0455809837
 C   -0.0458536124   -0.8232010666   -1.1471746804
 C   -0.0043226171   -2.1690974455   -0.6549120074
 C    0.0627858509   -2.0930446933    0.7283367134
 N    0.0998489296   -3.3671429593    1.1597685707
 N    0.0566843035   -4.2122049887    0.0609635307
 N   -0.0053966870   -3.4867545755   -1.0130269110
 N    0.0653088151   -0.7910791329    1.1232985049
 H    0.8893851295    1.8717426690    0.5419343938
 H   -0.0712484457    1.9215056330   -0.9406492742
 H   -0.8767507410    1.8494669049    0.6307587068
 H   -0.1005619016   -0.4860092477   -2.1700229509
 H    0.1506790858   -3.7686212161    2.0796259457
 H    0.1072572410   -0.4285523889    2.0588471698