20

 C    0.0572637370    1.6118597407   -0.0094611438
 C   -0.0019288057    0.0803677423    0.0129923925
 C    0.8340827995   -0.4946591775    1.1782422542
 C   -1.4580150464   -0.4547192472    0.0465878045
 C   -2.2626604289   -0.0611529946    1.3038851651
 C   -3.6216853727   -0.5967475890    1.2624709215
 N   -4.6920853782   -1.0293199605    1.2142343869
 C    0.6083285354   -0.4836662936   -1.2705846657
 O    1.0819753643    0.1689616070   -2.1620553619
 H    1.0822722231    1.9507082893   -0.1779038081
 H   -0.5559583560    2.0192878712   -0.8180876567
 H   -0.2874612049    2.0376538608    0.9374859212
 H    0.4590220401   -0.1446707455    2.1441305313
 H    0.8155273450   -1.5899460781    1.1854558161
 H    1.8775212459   -0.1744476589    1.0991246194
 H   -1.9946166967   -0.0864765953   -0.8348662559
 H   -1.4467041102   -1.5483380184   -0.0289287325
 H   -1.7786931390   -0.4328169507    2.2129383043
 H   -2.3254364428    1.0276945932    1.3990247534
 H    0.5899030112   -1.5984426651   -1.3235250356