17

 C   -0.0156595260    1.4599507779    0.0034971279
 N   -0.0251512006    0.0154917744   -0.0044576873
 C   -0.0107413164   -0.7960400069   -1.1424263494
 C    0.0761768227   -2.1071626510   -0.7357599301
 N    0.1750153269   -3.2820244970   -1.5073057966
 C    0.1377989558   -2.0952405006    0.6904278573
 O    0.1515908464   -3.1789532651    1.5514753440
 C    0.0734084406   -0.7829904972    1.0935663997
 O    0.0752165594   -0.2433131405    2.3390940839
 H    0.9807488854    1.8667691775   -0.2110347657
 H   -0.7158047140    1.8394107940   -0.7466128436
 H   -0.3301472665    1.8135614923    0.9865020094
 H   -0.0585818646   -0.3576347603   -2.1251820602
 H   -0.1503156331   -3.1446100421   -2.4561835694
 H   -0.3611899295   -4.0347430653   -1.0891878966
 H    1.0036363300   -3.6223824681    1.4662684828
 H    0.0585316334   -0.9862805618    2.9542686241