19

 C   -0.0284111730    1.5254738630   -0.0011091796
 C    0.0827510989    0.0116303549    0.0742842977
 O    0.9471285144   -0.5019920008   -0.9847328153
 C    1.9204507423   -1.2594029820   -0.2525400823
 C    1.0650173197   -2.0343346914    0.7871718931
 C    0.7992650733   -0.5807424487    1.3072241564
 C    2.2694487824   -0.3347614294    0.9160067010
 C    3.4693018975   -0.1993019501    1.7285273367
 O    2.9850819313    0.8727175898    0.8888552354
 H    0.9404108439    2.0039435691    0.1532483615
 H   -0.4116578945    1.8201423216   -0.9825729526
 H   -0.7276607197    1.8910441231    0.7590643361
 H   -0.9109649518   -0.4398125173   -0.0477234834
 H    2.6426831869   -1.7097365353   -0.9303105459
 H    0.2115899918   -2.5852859337    0.3886894556
 H    1.6487553958   -2.6438391673    1.4783794316
 H    0.3943346883   -0.3599245436    2.2932790960
 H    3.3858317094   -0.0219115391    2.7998789917
 H    4.4067859233   -0.6483567727    1.4037327565