17

 N    0.0765912124   -1.1708706713    0.1378900984
 C    0.0593673603   -0.0186149081    0.0588617394
 C    0.0107953041    1.4487494422    0.0001986088
 C   -0.8087961618    2.0114350544    1.1926547460
 C   -0.5707262096    3.4997907545    1.3772051533
 O    0.6736292484    3.8625344820    1.9927145292
 C    0.4780394095    4.2045888370    0.6199637711
 C    1.3383423858    3.4321895596   -0.3623698697
 N    1.3666800151    1.9912697603   -0.1151399570
 H   -0.5081074077    1.7152908425   -0.9306329120
 H   -1.8743418224    1.8186702202    1.0307656430
 H   -0.5263343050    1.4942577026    2.1158672095
 H   -1.4212953939    4.0724851213    1.7451489971
 H    0.3629752560    5.2714861778    0.4236960222
 H    0.9667594932    3.6115222149   -1.3805138986
 H    2.3675507555    3.8046403264   -0.3276358223
 H    1.8702993502    1.8128645736    0.7493370818