16

 C   -0.0432151519    1.5595868996   -0.0368773355
 C   -0.0671414838    0.0262414416   -0.0575722482
 C   -1.4518327966   -0.5300601654    0.0152707491
 O   -2.4277311686   -0.2071956625   -1.0286091272
 C   -3.1939442257   -1.0628592419   -0.1398695855
 C   -1.9927419392   -1.9893009720    0.2171061784
 O   -2.1581010898   -1.8508688371    1.6564661970
 C   -2.5264344059   -0.5321098951    1.1636229281
 H    0.9805693655    1.9329498341   -0.1268222256
 H   -0.6319178644    1.9662718141   -0.8634593125
 H   -0.4623918848    1.9472226221    0.8971742752
 H    0.4095053420   -0.3485662913   -0.9714823065
 H    0.4973523394   -0.3845056858    0.7883350382
 H   -4.2322496971   -1.2861544857   -0.3811901528
 H   -1.6663015819   -2.9448084173   -0.1931313993
 H   -2.8344303471    0.2351680226    1.8735077673