19

 O   -0.5744947569    0.5563861777   -0.3320401772
 C   -0.1516288774    1.6422737882   -0.0226233147
 C    1.3281412315    1.9502514104    0.1406851712
 C    1.9104579187    2.6919026765   -1.1068283888
 C    1.8069935765    4.1979318341   -0.8165223423
 C    0.4122022170    4.8341180583   -0.9666384548
 O    0.1714970240    4.7554180253    0.4563675447
 C    1.5338203482    4.3215746279    0.7074165560
 C    1.6092545670    2.9241052274    1.3111688850
 H   -0.8361482724    2.4968139486    0.1652166734
 H    1.8243931919    0.9852625029    0.2708767984
 H    2.9629805866    2.4094331533   -1.2123626422
 H    1.4105213028    2.4023742289   -2.0365233201
 H    2.6328391905    4.7699328480   -1.2400873796
 H    0.4155540862    5.8739232746   -1.3165543033
 H   -0.3289015481    4.2667467329   -1.5436776425
 H    2.0879441291    5.0775053653    1.2741402596
 H    0.9130025955    2.8109378713    2.1483161134
 H    2.6198412391    2.7517631686    1.6994190339