24

 C    0.0016702058    1.5091025159    0.1733930819
 C    1.4378524004    2.0625204023    0.0691928911
 C    2.3452677275    1.4824694237   -1.0246865645
 C    1.9386785486    1.7154805142   -2.4864785561
 C    0.6176682788    1.0822439318   -2.9699213475
 C    0.3668447006   -0.3772370836   -2.5241154835
 C   -0.5752434072   -0.5604138500   -1.3196155449
 C   -0.1390485278   -0.0266502031    0.0576001765
 H   -0.3954692838    1.8306909192    1.1433160176
 H   -0.6448698273    1.9852175616   -0.5716598617
 H    1.3868101192    3.1541025647   -0.0414833339
 H    1.9390028739    1.8847133279    1.0301060864
 H    3.3448703587    1.9141657650   -0.8874202252
 H    2.4748539703    0.4066888082   -0.8532133343
 H    1.9052409548    2.7948421429   -2.6871397431
 H    2.7508349943    1.3222168737   -3.1124710690
 H   -0.2342357950    1.7006536051   -2.6672114213
 H    0.6253590036    1.1233353186   -4.0654314534
 H   -0.0843732938   -0.9240728007   -3.3605666516
 H    1.3229518879   -0.8812720218   -2.3314676904
 H   -1.5421625891   -0.1012479630   -1.5714395025
 H   -0.7766396876   -1.6343711915   -1.2132463482
 H    0.7936704302   -0.5144163393    0.3697298038
 H   -0.8951619731   -0.3622065717    0.7773022037