19

 C   -0.5399894895    1.5325340360   -0.1845625003
 C   -0.0796668757    0.0814564556   -0.0199200033
 C    0.4526341497   -0.4994266504   -1.3302693000
 C    0.9328646146   -1.9308622991   -1.2715549233
 N    0.8476190081   -2.5146405304   -0.1354312645
 O    1.2975239654   -3.8418819229   -0.0999119676
 C    1.4520955196   -2.4576359397   -2.6055397512
 N    1.9080524263   -3.7327319735   -2.6596770439
 O    1.4400298857   -1.7175593464   -3.5749254541
 H    0.2821023210    2.1766305326   -0.5161909076
 H   -1.3417597001    1.6148914049   -0.9268932144
 H   -0.9184263004    1.9362077514    0.7596042622
 H    0.6968561464    0.0200411714    0.7505119447
 H   -0.9085885652   -0.5353218589    0.3444938837
 H   -0.3095832919   -0.4402657835   -2.1175847385
 H    1.2802774467    0.1096553104   -1.7154815979
 H    1.1485807372   -4.0829226449    0.8199125657
 H    1.9097719494   -4.3270899016   -1.8489188783
 H    2.2462025223   -4.0588384711   -3.5502541216