18

 C   -0.5035254384    1.3570164192    0.0760760194
 C    0.3888921849    0.1386745768   -0.0453417589
 O    1.1088223094   -0.2283033738    0.8572863287
 C    0.3204029808   -0.6316822019   -1.3582626486
 C    1.6532613651   -1.3106150378   -1.6716226117
 O    1.5605848752   -2.1263151651   -2.8485344656
 C    0.3832605708   -2.7599153538   -3.0476505693
 N   -0.6988934983   -2.6702933420   -2.3993864708
 C   -0.7584702896   -1.7412776439   -1.2800309229
 H   -0.1572960107    2.1362554009   -0.6136426807
 H   -1.5326919361    1.1166721863   -0.2129558953
 H   -0.4801712926    1.7396568653    1.0969618162
 H    0.0510024166    0.0482900346   -2.1749345695
 H    2.4453523636   -0.5865585054   -1.8740635172
 H    1.9612970677   -1.9293539178   -0.8236346392
 H    0.4589946635   -3.4150842428   -3.9133423359
 H   -0.6403274554   -2.2994676270   -0.3419524329
 H   -1.7612066365   -1.3009724916   -1.2586618857