15

 C   -0.0524658801    1.5436842684    0.0078588782
 C    0.0941006406    0.0495338838    0.0134448708
 N   -0.7640712747   -0.8255122306    0.8497808562
 C    0.7042559150   -0.7798857046    1.0858173787
 C    1.3659337289   -1.9404764464    0.4079964002
 O    2.0701335913   -2.7922636826    0.8486841172
 O    1.0481483689   -1.8736392342   -0.9450790226
 C    0.4207800189   -0.6746818992   -1.2567044923
 N    0.2029194988   -0.2622104668   -2.4221467089
 H    0.8465437990    2.0210906680   -0.3912274476
 H   -0.8933696673    1.8372404070   -0.6260729420
 H   -0.2256781833    1.9198889700    1.0207512367
 H   -1.2083234059   -0.2420107798    1.5585716547
 H    1.1108025707   -0.3977817493    2.0127966570
 H    0.5297895391   -0.9306075636   -3.1216648362