17

 O    0.1350367833    1.3901461983    0.1194528855
 C    0.0385819383   -0.0155608598   -0.0400446173
 C   -1.3850145734   -0.4920072381   -0.0466480973
 C   -2.1244581036   -0.9451418464    1.1653932239
 C   -1.9067155188   -1.9604318492    0.0455217434
 C   -2.8769375095   -1.6599925642   -1.0519549964
 O   -3.6311546716   -2.3134629614   -1.7173583296
 C   -2.4026407633   -0.1755622919   -1.1479838230
 O   -3.3095398513    0.8564623511   -0.8432118650
 H   -0.3959986200    1.6374480778    0.8840016216
 H    0.5188246904   -0.2340853349   -1.0003205008
 H    0.6017984376   -0.5561214774    0.7385375955
 H   -1.5210954478   -1.1417020158    2.0468424630
 H   -3.1191282663   -0.5664360646    1.3720115622
 H   -1.3643094049   -2.8821774804    0.2164692950
 H   -1.9062402721   -0.0176680116   -2.1186882725
 H   -4.0346316669    0.8049290686   -1.4757930581