16

 O    0.0735361250    0.0132818597   -0.1182236006
 C    0.0150981806    1.2117909235   -0.0269706375
 C   -1.2385255579    2.0822076101    0.0292626659
 C   -0.7459316684    3.4390650480    0.5697498680
 C    0.7003363036    3.5695510022    0.0356587302
 C    1.2157612018    2.1435240218    0.0678890816
 C    2.4306719473    1.6782459924    0.7652862996
 O    2.3871977497    1.7729818315   -0.6521961717
 H   -1.6091021054    2.1839752791   -1.0000325472
 H   -2.0311409685    1.6077371497    0.6114486382
 H   -1.3793861728    4.2746511025    0.2651970671
 H   -0.7361757161    3.4196663169    1.6651385213
 H    0.6928283939    3.9190285594   -1.0039929558
 H    1.3118555202    4.2659790164    0.6134710971
 H    3.0563475044    2.4131124287    1.2709122082
 H    2.4541887726    0.6644071082    1.1607568656