17

 N   -0.1499828081   -1.1485839249    0.0666895623
 C   -0.0727961587    0.0039043566    0.0683539186
 C    0.0268435664    1.4598972790    0.0920753489
 C    1.4626049514    1.9902882622    0.0599768499
 C    2.5942179175    1.1584407784    0.4936578558
 O    2.3166224385    1.3770881156   -0.9003163716
 C    1.5351146960    3.4914407003    0.1149211981
 C    2.7092068905    4.2107815125   -0.4265025009
 N    1.4180858438    4.2613196841   -1.1387218519
 H   -0.5207250716    1.8686414484   -0.7653975535
 H   -0.4776377341    1.8329193200    0.9911644556
 H    3.4913110428    1.6471602558    0.8671110291
 H    2.4228673381    0.1410237194    0.8373128871
 H    0.9890345277    3.9337201680    0.9462934214
 H    3.0202124476    5.1461827802    0.0286519099
 H    3.5039468034    3.6140082063   -0.8629411388
 H    1.4681789287    3.6136552181   -1.9241657699