16

 C    0.0088706558    1.5388037784   -0.0838346802
 C    0.0526544094    0.0186391655   -0.0171232365
 O    0.7099350993   -0.4667884466   -1.1707505051
 C    0.8376388501   -1.8714104357   -1.1439860065
 C    1.6902706957   -2.3064829868    0.0190870921
 N    2.4703476247   -3.2907017652   -0.0322668377
 O    1.5512158579   -1.5570861398    1.1784618169
 C    0.7270771209   -0.4571398878    1.2716012683
 O    0.5737097103    0.0560026861    2.3391349207
 H    1.0223470337    1.9429791812   -0.1483806836
 H   -0.5493115721    1.8485930828   -0.9697708668
 H   -0.4726890509    1.9358223346    0.8105262051
 H   -0.9779046473   -0.3809949570    0.0205199592
 H   -0.1513208751   -2.3565425911   -1.0768983713
 H    1.3165982827   -2.1895119977   -2.0695905718
 H    2.9326350149   -3.4397247212    0.8669488172