17

 C    0.0362028685    1.3589102863   -0.1918430626
 O   -0.0055803723   -0.0312715988    0.0286955843
 C   -1.3117359765   -0.5542388827   -0.0255322519
 C   -1.2161010243   -2.0601864965    0.2296640222
 C   -2.5449319404   -2.7296256251    0.1319007124
 N   -3.1075940112   -3.3340339434    1.1458750542
 O   -4.3188555798   -3.8063413461    0.6186963324
 C   -4.3379281132   -3.4227033797   -0.6565732050
 N   -3.2929878099   -2.7601187772   -1.0332144450
 H    1.0825468626    1.6674222145   -0.1323609345
 H   -0.3585617232    1.6269903692   -1.1845157968
 H   -0.5412660317    1.9103312813    0.5669206609
 H   -1.9551606120   -0.0802105394    0.7349851498
 H   -1.7719755652   -0.3669949324   -1.0087610094
 H   -0.5395019356   -2.4930910963   -0.5148170818
 H   -0.7919586324   -2.2427426996    1.2194718219
 H   -5.2041595436   -3.6977101041   -1.2406918511