21

 C   -0.0523525332    1.5246287146   -0.0625185351
 O    1.2310141418    2.1259231424   -0.0288183131
 C    2.0899193660    1.6523982817   -1.0479235977
 C    2.2524740686    0.1153195403   -0.9918804001
 C    0.8575258815   -0.5164875834   -1.1525789544
 C   -0.0022772376   -0.0105294542    0.0188892079
 C    0.5747714122   -0.5254569402    1.3561897181
 C    2.0811074825   -0.5776104069    1.3856582725
 C    2.8468438235   -0.3074906141    0.3298207506
 H   -0.6027175060    1.9481492088    0.7839719365
 H   -0.5807618978    1.8141660385   -0.9888569108
 H    1.7026061147    1.9399491802   -2.0416840025
 H    3.0479832355    2.1586260387   -0.8962793856
 H    2.9089265007   -0.1841527090   -1.8173640159
 H    0.4094289302   -0.2179290313   -2.1083431867
 H    0.9285644717   -1.6090370191   -1.1466248761
 H   -1.0334086460   -0.3700621259   -0.0828852442
 H    0.2124541791    0.0987534073    2.1844925419
 H    0.1819114043   -1.5322408793    1.5613664217
 H    2.5366023957   -0.8712613340    2.3289042965
 H    3.9300129424   -0.3502391553    0.4107683364