15

 O   -0.0214153280    1.3142734086   -0.0060136565
 N    0.0673483555   -0.0923467177   -0.0221938982
 C   -1.1006203002   -0.6197417268    0.0204415942
 C   -1.2817691584   -2.1322990306    0.0096908105
 N   -2.7310328278   -2.2923364208   -0.1906141544
 C   -3.3302418630   -1.0430154778   -0.0133654465
 C   -2.4220619290   -0.0328217428    0.0653437457
 C   -4.7413211627   -0.9424931432    0.0277283047
 C   -5.9428055746   -0.8835266198    0.0797569608
 H    0.9044233632    1.5733388047   -0.0524419263
 H   -0.7131080326   -2.6140435301   -0.7905578244
 H   -0.9634366561   -2.5711628149    0.9644261823
 H   -3.1787520267   -3.0733773491    0.2664766540
 H   -2.6406612836    1.0205276331    0.0953192156
 H   -7.0020915161   -0.8155231227    0.1198077885