16

 O   -0.0656857200    1.4030463181   -0.1416848622
 N    0.0721366131    0.0106368552   -0.0337364051
 C   -1.0536171952   -0.5849240646    0.0555024455
 C   -2.3983477726    0.0948659955    0.1055260920
 C   -3.3743716096   -0.6326942228    0.9875507803
 C   -3.1671784359   -1.8446338198    1.5160573286
 C   -1.9523896396   -2.6375013754    1.2353812986
 O   -1.7219756965   -3.6910752988    1.7892141157
 C   -1.0280659545   -2.0848423236    0.1469860746
 H    0.8517462748    1.6955898573   -0.1466890510
 H   -2.2748416928    1.1260360178    0.4489189253
 H   -2.8166234707    0.1790891653   -0.9102906364
 H   -4.2973671708   -0.1017861035    1.2098711166
 H   -3.8895069405   -2.3093842584    2.1794140206
 H   -1.3968207417   -2.5114783220   -0.7994992594
 H   -0.0133781472   -2.4550841703    0.2982341465