16

 C   -0.0526037902    1.4640923202   -0.2483246013
 C   -0.0608712891   -0.0316849047    0.0873015177
 N   -1.4096665249   -0.5783313892    0.0689797334
 C   -1.8146555471   -1.1825664156   -0.9622020927
 N   -3.0609887927   -1.7516125771   -1.1507804861
 C   -3.1120027229   -2.3738570556   -2.3949090365
 C   -1.9303216167   -2.1590651080   -2.9806408011
 O   -1.1150644519   -1.4235625624   -2.1370157734
 H    0.9565920149    1.8790667643   -0.1519855323
 H   -0.3953161592    1.6336138962   -1.2741850758
 H   -0.7185274187    2.0115611375    0.4253871828
 H    0.6137630086   -0.5634417563   -0.5985452192
 H    0.3382268913   -0.1703513206    1.0994221268
 H   -3.7427008614   -1.7969114572   -0.4161409420
 H   -3.9854376615   -2.8943986289   -2.7471834954
 H   -1.5212790384   -2.4273535227   -3.9379891348