23

 C   -0.5059784780    1.3126247305    0.3261627421
 C   -0.0080826068   -0.1268647780    0.1533629129
 C    0.9643590545   -0.5740821172    1.2478308052
 C    2.2596390663    0.2279332017    1.2654056570
 O    0.3208972722   -0.5379656078    2.5593245766
 C    0.4346948906   -1.9679424569    2.7438278123
 C   -0.9083778830   -2.6530432477    2.9187997605
 C    1.1646203664   -2.1193594888    1.3815429634
 O    0.6440791598   -2.9846372475    0.4076926691
 H    0.2971237182    2.0423785838    0.1880294483
 H   -1.2874415837    1.5412107806   -0.4044898827
 H   -0.9225562384    1.4506053082    1.3279175016
 H   -0.8802560211   -0.7925755917    0.1601020215
 H    0.4733862885   -0.2567642653   -0.8234379022
 H    2.0685667291    1.2840785630    1.4742952056
 H    2.9300003142   -0.1484474936    2.0437146750
 H    2.7747016561    0.1537506727    0.3011659244
 H    1.0754000532   -2.1929173707    3.6073444713
 H   -1.5832680125   -2.4534844818    2.0797138087
 H   -0.7788092294   -3.7361318622    3.0111293818
 H   -1.3970848208   -2.2844731176    3.8256484660
 H    2.2154681677   -2.3997519300    1.4812429602
 H   -0.2905958032   -2.7919039537    0.2853508114