20

 C   -0.4386237861    1.4794112025   -0.0365032105
 C    0.0002714965    0.0067285221   -0.0350642056
 C    0.9354607608   -0.3236554897   -1.1756836439
 C    2.0896709387   -0.8566220346   -0.7785884868
 C    2.1846432505   -0.9755487470    0.7200762388
 O    3.3064969589   -0.2810729191    1.2629341010
 C    0.8095325314   -0.4583049061    1.1946355016
 C    0.6615211396    0.1362122225    2.5460818729
 N    0.1762628418   -1.2303019849    2.2797277893
 H    0.4206818682    2.1462076282    0.0869794612
 H   -0.9291840017    1.7337521137   -0.9822680232
 H   -1.1500464624    1.6894852182    0.7683539946
 H   -0.9063652239   -0.6118091499   -0.1207567721
 H    0.6559915043   -0.1318349562   -2.2071462885
 H    2.9031226865   -1.1657078793   -1.4254600078
 H    2.3202110602   -2.0083997047    1.0570602884
 H    3.2718206853    0.6222462740    0.9281545597
 H    1.5357033505    0.1938384265    3.1873702377
 H   -0.0658234097    0.9302751360    2.6909086748
 H   -0.8357194792   -1.2133910122    2.1650137183