20

 C    0.0884203520    1.5994391617    0.1204187524
 C   -0.0304429466    0.1047136281   -0.1926266757
 C   -1.4145298611   -0.5204406019   -0.0464476461
 C   -2.4963964461    0.1774621133    0.7057756238
 N   -2.5573811164    0.0811335163   -0.7639436314
 C   -1.4846739218   -2.0277407836   -0.0615885202
 C   -0.3806446544   -2.8992027328   -0.5358399934
 N   -0.7302581472   -2.8535405911    0.8967939369
 H    1.0929883296    1.9551836825   -0.1254847822
 H   -0.6165107784    2.2030448318   -0.4623953510
 H   -0.0868014063    1.8076523505    1.1795562082
 H    0.3101881251   -0.0754091545   -1.2205358344
 H    0.6739031635   -0.4366583668    0.4528304840
 H   -3.2448126038   -0.4089951455    1.2321580452
 H   -2.2855084367    1.1424963057    1.1552479537
 H   -2.2823429914    0.9688650446   -1.1781486893
 H   -2.5023827068   -2.3778471265   -0.2166740029
 H   -0.6104142562   -3.8378771033   -1.0322194719
 H    0.5468515061   -2.4376249164   -0.8606851671
 H   -0.0552242931   -2.2790402721    1.3972572515