17

 C   -0.2283640788    1.4811177833    0.0324993163
 C    0.0667220450   -0.0310889765    0.0258652788
 C    0.7799079558   -0.4828164717   -1.2159015378
 C    2.0868512943   -0.8106733041   -1.2612838535
 C    2.6763059987   -1.2123354114   -2.5101974424
 N    2.0515561162   -1.2979184993   -3.6314830273
 O    0.6973652247   -0.9749339085   -3.6042374158
 C    0.0163515736   -0.5762798892   -2.4624195394
 N   -1.2258391135   -0.3161994908   -2.5294445251
 H    0.6965512957    2.0630726643   -0.0300129203
 H   -0.8682015045    1.7473519548   -0.8107061588
 H   -0.7417678474    1.7576320251    0.9578722902
 H    0.6755809178   -0.2948880594    0.8971790805
 H   -0.8805341964   -0.5747072473    0.0976502256
 H    2.7080379219   -0.7762210320   -0.3726085994
 H    3.7283815279   -1.4738341440   -2.5733938067
 H   -1.5726047408   -0.4493643831   -3.4804273548