19

 N    0.0476926922    1.2140684437    0.3864905834
 C    0.0873824552   -0.1585586177   -0.0672704829
 C   -1.2648757273   -0.8999644893   -0.2389648429
 O   -0.8748567334   -1.2591757514   -1.6189005192
 C    0.2761026345   -0.5071984047   -1.5413117763
 N    1.1197932675   -0.2001191904   -2.4183248343
 C   -1.5697295202   -2.0895860468    0.6081607556
 C   -2.4290143855   -1.9129309946    1.8392092844
 C   -2.9692775759   -2.6539701110    0.6466558882
 H    0.9938079060    1.5698144023    0.4827233650
 H   -0.4006930230    1.7999837565   -0.3128069329
 H    0.7745265667   -0.7228549730    0.5703428761
 H   -2.1153573689   -0.2090508409   -0.2746055471
 H    0.8764166907   -0.5994992059   -3.3270311503
 H   -0.7540396384   -2.8038614664    0.6796972067
 H   -2.1620575226   -2.4770271512    2.7252666582
 H   -2.8189434317   -0.9221313477    2.0462988299
 H   -3.7265950089   -2.1656015956    0.0425618418
 H   -3.0785053670   -3.7303680759    0.7114409267