19

 C    0.0685538045    1.5259388062   -0.0443280290
 C    0.0401423976    0.0165351584   -0.0066850879
 C   -1.3111202974   -0.7351997569    0.0209782200
 O   -0.8854212083   -1.5401719949    1.1503265415
 C    0.3674564649   -0.8127741473    1.2535091624
 C    1.5972632194   -1.4399959200    0.5685177114
 C    1.1668421768   -2.1871840824   -0.6747110599
 C    1.2377310141   -0.6901527191   -0.7158384419
 O    2.0984073581   -0.0131861839   -1.5632642327
 H    1.0650432283    1.9060913216    0.1999008265
 H   -0.1827697843    1.9003149237   -1.0431822860
 H   -0.6485819537    1.9486796307    0.6667178376
 H   -2.1663909998   -0.1015616480    0.2894795543
 H   -1.5748144429   -1.3448341926   -0.8518413016
 H    0.5227846382   -0.3750079942    2.2427821803
 H    2.5597028754   -1.6140671977    1.0337665488
 H    1.9876970961   -2.6691388960   -1.1969254832
 H    0.2322817295   -2.7372387291   -0.6807413310
 H    1.8616841337   -0.2251896484   -2.4727807794