14

 C   -0.0599623465    1.4016013620   -0.0598428326
 O    0.0087763944   -0.0147071649    0.0081166134
 C    0.6413599551   -0.5665634582    1.0679420743
 C    1.2456905691    0.1196667312    2.1214243622
 N    1.8478362048   -0.5259646734    3.1260903281
 C    1.8436454660   -1.8534868922    3.0740114532
 N    1.2969497998   -2.6115533618    2.1163254335
 C    0.7014024335   -1.9647782847    1.1229519872
 H    0.9401572650    1.8501263979   -0.1067372338
 H   -0.6027703218    1.6336283836   -0.9767247123
 H   -0.6017116098    1.8186960544    0.7981489766
 H    1.2523881486    1.2041976224    2.1695773151
 H    2.3327050721   -2.3783398857    3.8899081094
 H    0.2461654199   -2.5501760607    0.3270574757