16

 C   -0.3387824920    1.0779069547   -0.3082053116
 C    1.0746144724    1.1324834346    0.2126449287
 C    0.3874013946   -0.1942942183    0.0356350867
 N    0.0053125737   -0.8989544046    1.2269778908
 C   -1.0871929011   -1.7062977351    1.2728473768
 C   -1.4930235122   -2.6321764266    2.2173285285
 N   -2.6873444801   -3.1187015650    1.7849411914
 N   -3.0637569927   -2.6220429709    0.7083555091
 O   -1.9815487094   -1.6347560846    0.3099234999
 H   -1.1340581277    1.3856809839    0.3593438581
 H   -0.5192164979    1.2827427368   -1.3566858254
 H    1.8780630883    1.3793194583   -0.4713695355
 H    1.2188583897    1.4839347290    1.2282369259
 H    0.7076569112   -0.8197273003   -0.7955096518
 H    0.7451042957   -1.1411045215    1.8681354297
 H   -1.0251637024   -2.9548307305    3.1305077687