19

 C    0.0075275366    1.5431437087    0.0082209674
 C   -0.0038041393    0.0429996326   -0.0566434066
 C   -0.0138577100   -0.6595911812   -1.1912156399
 C   -0.0245895930   -2.1634686096   -1.1508332003
 C   -0.0221836543   -2.6835620586    0.2819862498
 C   -0.9038209616   -1.9860570041    1.3585163467
 O   -0.0117410273   -2.5136874757    2.4081484779
 C    0.8788263421   -1.9990659288    1.3507947720
 C   -0.0036999864   -0.7206253754    1.2421097864
 H    0.8919316736    1.9100774077    0.5450107071
 H    0.0050859448    1.9895877473   -0.9898866282
 H   -0.8651462729    1.9229242027    0.5551455659
 H   -0.0145573860   -0.1676361636   -2.1602814362
 H   -0.9028222839   -2.5552769966   -1.6844696433
 H    0.8432477926   -2.5679317763   -1.6919844686
 H   -0.0297929157   -3.7726951382    0.3606475253
 H   -1.9801256751   -2.0482340589    1.5255780477
 H    1.9555138885   -2.0769577576    1.5085443274
 H    0.0047079472   -0.1034242642    2.1421637596