18

 C   -0.2820121846    1.3576753644   -0.0489618416
 O    0.1608191217    0.0138481296    0.1105435205
 C    0.7659125609   -0.4946469945   -1.0072507584
 C   -0.0302832592   -1.0477984984   -2.1808557047
 C    0.8997202363   -1.9642610943   -1.4351996977
 C    2.3484095510   -1.7146881707   -1.9014146459
 C    2.1831658937   -0.2722610064   -1.4265219167
 N    2.9438507877    0.7215727902   -1.2345928522
 O    4.2453158186    0.4600403819   -1.7116324817
 H    0.5613254672    2.0295188403   -0.2468865058
 H   -1.0084200115    1.4406183257   -0.8691261433
 H   -0.7627507225    1.6425845156    0.8890557969
 H   -1.0825189613   -1.1738394530   -1.9451825235
 H    0.1789413118   -0.7556727494   -3.2067948398
 H    0.5537698709   -2.8408823662   -0.9045556228
 H    3.1070679460   -2.2359895295   -1.3110580263
 H    2.5535795807   -1.8698443291   -2.9646753758
 H    4.7116232825    1.2692621539   -1.4768298312