17

 C    0.0079224207    1.5437323544   -0.0168336511
 C   -0.0118613151    0.0454703824   -0.0209446392
 C   -0.0413260150   -0.8069248961   -1.1052631741
 N   -0.0592483808   -2.0701302967   -0.6118680451
 N   -0.0457384421   -2.1106032418    0.7316637500
 C   -0.0209866407   -0.8299395603    1.0998561462
 C    0.0451655416   -0.4511016979    2.5515303303
 C    1.4642858706   -0.0341535430    2.9052476246
 O    1.7917558642    1.0769185478    3.2339964624
 H    0.8060512528    1.9345739324    0.6223223487
 H    0.1588584629    1.9392170134   -1.0249040663
 H   -0.9338384511    1.9593709173    0.3616528337
 H   -0.0501722382   -0.6103437010   -2.1662433420
 H   -0.0891219725   -2.9340786617   -1.1254544038
 H   -0.6287829169    0.3765602218    2.7894246433
 H   -0.2236451755   -1.3264930157    3.1527817425
 H    2.2119566950   -0.8526954352    2.8029777595