25

 C   -0.0240780275    1.6187386819   -0.2007341581
 C    0.0369404277    0.1116120569    0.0041606277
 C    0.9579987737   -0.7462074624   -0.9114908077
 C    1.3664020733   -1.6048514114    0.3241420641
 C    0.7517550363   -0.5044526800    1.2479678575
 C    1.9855619481    0.2038838214    1.8416702115
 C    3.0128227656   -0.9322747327    1.9860964447
 C    2.8652403685   -1.7608730855    0.6864497664
 C    3.3361056477   -3.2101774281    0.8228444231
 H    0.9720394281    2.0729564709   -0.1895101474
 H   -0.4814153312    1.8604010330   -1.1670780864
 H   -0.6213415154    2.1053666636    0.5789213159
 H   -0.9816272451   -0.2909812992   -0.0372658134
 H    0.4801735695   -1.2633407864   -1.7478832646
 H    1.8026282395   -0.1704387083   -1.3060769348
 H    0.8367122268   -2.5610371821    0.3547380150
 H    0.0861161875   -0.8453415720    2.0466699219
 H    2.3757617908    0.9596574715    1.1495713527
 H    1.7741029052    0.7162276293    2.7848318450
 H    4.0349553755   -0.5756356731    2.1503878169
 H    2.7487723390   -1.5611510958    2.8474766310
 H    3.4656374265   -1.2786412380   -0.0967164206
 H    2.7518160694   -3.7412071199    1.5838198150
 H    3.2284728593   -3.7568191463   -0.1202383812
 H    4.3897993414   -3.2625152974    1.1185022056