23

 C    0.8591286122    0.5781993049   -0.6024476267
 O    0.3018797167   -0.6687636626   -0.2541374452
 C   -1.0920771000   -0.6616420396    0.0625360985
 C   -1.9609473689   -0.4143092234   -1.1722563257
 C   -1.3816355184   -2.0408373243    0.6819920449
 O   -0.8580244267   -3.0721769729   -0.1400123727
 C   -0.9298756346   -2.2184866585    2.1530629296
 C    0.5768900417   -2.1862490251    2.3919297411
 O   -1.6241628785   -1.2879556739    2.9849577144
 H    1.9391778307    0.4344924842   -0.6876042903
 H    0.4812398653    0.9564831615   -1.5616974933
 H    0.6629258155    1.3371804635    0.1704450781
 H   -1.2908952968    0.1185785544    0.8140034709
 H   -1.8270071146   -1.2285487091   -1.8896294660
 H   -3.0157431481   -0.3756593225   -0.8840796103
 H   -1.7177722244    0.5327975504   -1.6612447137
 H   -2.4703161418   -2.1681841303    0.6909509179
 H    0.0015257692   -2.7543466662   -0.4443601668
 H   -1.3014931250   -3.2060890885    2.4515888995
 H    1.0014150909   -1.2053067720    2.1558898541
 H    0.7912136735   -2.4219449147    3.4385787832
 H    1.0813543582   -2.9248284517    1.7632849052
 H   -1.0830916560   -0.4955261536    3.0561568434