18

 N    0.1091551190    1.4772719177   -0.0996167236
 C    0.0250545052    0.0251915450   -0.0330939956
 C    0.1307071581   -0.5098389953    1.4310062028
 N   -1.3295193046   -0.7814768407    1.4368877054
 C   -1.3862077300   -0.6356304019   -0.0204382512
 C   -2.5823352953   -0.2470789751   -0.8245541690
 C   -1.9453008045   -1.6170907373   -1.0012955755
 C    0.9560691943   -0.5619275390   -0.9943288453
 N    1.6553831126   -1.0507672114   -1.7741572684
 H   -0.1108064000    1.8017638578   -1.0373892308
 H   -0.5918386879    1.8723712501    0.5215736217
 H    0.7693895836   -1.3948785682    1.5138448315
 H    0.4542832780    0.2444199426    2.1539786819
 H   -1.5770519508   -1.7054684775    1.7743632913
 H   -3.5334112522   -0.1902307182   -0.3051871675
 H   -2.4585229593    0.4826788312   -1.6192850038
 H   -1.3859723649   -1.8175440646   -1.9098438342
 H   -2.4792713911   -2.4761288151   -0.6055450297