15

 C    0.0114852313    1.4914577173    0.0971343050
 C    1.3165256790    0.7339671431    0.0107484254
 N    2.0473597524    0.3311204317    1.2106404764
 C    1.1383831335   -0.4487268664    1.9446687007
 C    0.0040893074   -0.7478772775    1.2367454334
 N   -0.6790037000   -1.5586260887    2.0719051527
 N    0.0043050859   -1.7370179759    3.2324017714
 N    1.1224481768   -1.0427948160    3.1532436108
 C   -0.0252593720   -0.0240508780   -0.0480179571
 H   -0.2967304764    1.9173565237    1.0455884462
 H   -0.2611597188    2.0720503120   -0.7775061441
 H    1.9255643717    0.8563560125   -0.8776226499
 H    2.4992249504    1.0850687670    1.7127336020
 H   -1.5603008885   -2.0313649078    1.9561345708
 H   -0.3907191726   -0.4740652470   -0.9630990436