14

 N   -0.0602406800    1.2642692555   -0.1602249763
 C    0.0629301475   -0.0715655538   -0.0091313103
 O    1.0968762124   -0.6927948484    0.1339979601
 C   -1.2978562222   -0.7910833885   -0.0088000533
 O   -2.3456068045   -0.1893555994    0.0019785694
 C   -1.2696730207   -2.3272194655   -0.0198586764
 O   -2.5075672206   -2.8363555944    0.4036680297
 C   -0.9059426978   -2.7306477826   -1.3859432194
 C   -0.6426672399   -3.0323125250   -2.5189371063
 H    0.7583142914    1.8487767804   -0.1331351566
 H   -0.9794867136    1.6719374824   -0.2149437297
 H   -0.4906426457   -2.6640442838    0.6727403047
 H   -3.1722516094   -2.1777249167    0.1536043707
 H   -0.3968436369   -3.3217631803   -3.5110667363