18

 C   -0.2311193602    1.5637295100    0.1810152377
 C   -0.0802622722    0.0538374917    0.0400795020
 C    0.5454191958   -0.5789741217   -1.2361425384
 C    1.1167962516    0.3402856444   -2.3137515742
 C    1.8129455951   -0.3932187574   -3.3635331666
 C    2.3744295840   -1.0138243837   -4.2251888249
 O    1.6008056314   -1.1790607576   -0.4154833770
 C    1.1013804649   -0.5983017491    0.7325513716
 N    1.5238406447   -0.6218775878    1.9122131348
 H    0.6924068001    2.0943477315   -0.0657307236
 H   -1.0311614966    1.9438876184   -0.4619946990
 H   -0.4825548749    1.8082983358    1.2164169269
 H   -1.0177364845   -0.4414411908    0.3097864801
 H   -0.0557311978   -1.3691652321   -1.6937300658
 H    0.2892242889    0.9163182521   -2.7487832173
 H    1.7958784326    1.0647774248   -1.8503523034
 H    2.8797598226   -1.5568143312   -4.9850113316
 H    2.3781465846   -1.1761094173    1.9926111187