16

 C   -0.0761988589    1.5318964744   -0.0944757003
 C    0.0306818293    0.0341255787   -0.0235048468
 C   -0.7979017068   -0.7892549778    0.9326495540
 C    0.7031578082   -0.7700892914    1.1185909952
 O    1.4030341862   -1.8225162158    0.4515535584
 C    1.1384250156   -1.6454575720   -0.8679373096
 N    0.4242002538   -0.6589887020   -1.2312099108
 C    1.3467045726   -0.2530964007    2.2781472544
 C    1.8690706519    0.2123207410    3.2564104183
 H    0.8339186390    1.9642462387   -0.5197820140
 H   -0.9203375683    1.8217240970   -0.7280104119
 H   -0.2281420543    1.9559145500    0.9015629717
 H   -1.3612397274   -0.2464352650    1.6830950192
 H   -1.2524433967   -1.7078208427    0.5760361087
 H    1.5812740067   -2.3883762605   -1.5198748944
 H    2.3362829391    0.6165730981    4.1201979879