15

 C   -0.1197734127    1.5435362949   -0.0261498028
 C   -0.0553424317    0.0357571271    0.0524875845
 C   -1.2066749067   -0.7112959550   -0.5852044761
 O    1.2363504340   -0.5349412433   -0.1916530868
 C    0.7049528388   -0.6295683327    1.1422010773
 C    1.3818446125    0.0914630708    2.1864592947
 C    1.9361267098    0.6663242375    3.0854118072
 H    0.7385952704    1.9981876345    0.4705153714
 H   -0.1284946741    1.8628645326   -1.0737443749
 H   -1.0353352661    1.9150265861    0.4460286513
 H   -1.2787943700   -0.4566024583   -1.6481353415
 H   -1.0654469067   -1.7916285788   -0.5027125169
 H   -2.1559563740   -0.4423201349   -0.1104566299
 H    0.3952022038   -1.6375861286    1.4201568604
 H    2.4307938127    1.1771413682    3.8742887520