23

 O    0.2537448286    1.2907029974    0.2094873087
 C    0.0285119356   -0.1066315507    0.1471723563
 C   -1.4498244036   -0.4876069844   -0.0510678258
 C   -1.9851024437    0.0580829370   -1.3659228498
 C   -3.4479379859    0.3609326701   -1.5506133596
 C   -2.4549176086    1.4943643272   -1.4937907365
 C   -1.6119297093   -1.9962725810    0.0288743453
 C   -1.6377631742   -2.7014137225    1.3627374843
 C   -2.8894623065   -2.6244785107    0.5234425513
 H   -0.0810841928    1.6692698511   -0.6095849801
 H    0.6317979908   -0.5731917024   -0.6511865973
 H    0.3864313505   -0.5134718612    1.0979822442
 H   -2.0181716873   -0.0292008703    0.7709158174
 H   -1.4801781385   -0.3473245129   -2.2416159465
 H   -3.9076606290    0.1268520618   -2.5042213378
 H   -4.1048735053    0.2256478280   -0.6981888866
 H   -2.4488141595    2.1112563460   -0.6013019782
 H   -2.2386738266    2.0337366413   -2.4100648271
 H   -1.1088301600   -2.5334841122   -0.7729541022
 H   -1.1332425001   -3.6568018456    1.4553517024
 H   -1.5952321014   -2.0907797844    2.2592259615
 H   -3.6816709040   -1.9648601630    0.8613263633
 H   -3.2436687893   -3.5273353385    0.0383216628