14

 N   -0.0428241617    1.4013228903    0.1509052253
 C   -0.0655755751    0.0186044602    0.0527871717
 C   -1.2107702951   -0.7296036958    0.0288668388
 O   -2.4016441895   -0.0666532427    0.0375155866
 C   -1.1332051290   -2.1552012078   -0.0046273702
 C    0.0811251587   -2.7376103232   -0.0202024351
 O    1.2231909383   -2.0250383924   -0.0155737553
 C    1.2276336189   -0.6354039909    0.0060787170
 O    2.2909247143   -0.0601000610   -0.0224222230
 H    0.8454180856    1.7894023583   -0.1372172137
 H   -0.8477007138    1.8702507457   -0.2372575512
 H   -3.1259728324   -0.6987246450   -0.0016766190
 H   -2.0277337402   -2.7667788685   -0.0132310881
 H    0.2632752212   -3.8035183171   -0.0392080838