17

 N    0.1300629627    0.4919769848    0.6891866444
 C   -0.2036779581   -0.7867185021    0.3826163613
 O    0.5305319671   -1.7335829571    0.6023575334
 C   -1.6097476517   -0.9670187750   -0.2061034628
 O   -1.5762252586   -1.9961490387   -1.1593148488
 C   -2.6345888552   -2.9356702539   -1.0939853845
 C   -2.4785821081   -4.0413727574   -0.0377052229
 N   -1.2762215947   -4.0909577813    0.5774874146
 O   -3.4030693048   -4.8079832568    0.1661276849
 H    1.0339003672    0.6676624905    1.0976656378
 H   -0.4297381308    1.2754379004    0.4018973752
 H   -2.2771911351   -1.2052807935    0.6349606536
 H   -1.9716479881   -0.0313948175   -0.6598204912
 H   -3.6071192102   -2.4539293522   -0.9313894082
 H   -2.6723344051   -3.4242553643   -2.0722280994
 H   -0.5452529787   -3.4056566896    0.4107208263
 H   -1.1409525378   -4.8031627864    1.2763397062