18

 N    0.0621585762   -1.1162230543   -0.7447450056
 C    0.0332580254    0.0035016543   -0.4471966296
 C    0.0424335503    1.3869784135   -0.0732627348
 C   -1.1349474452    2.0300665985   -0.0377829443
 C   -1.4330979109    3.4664889324    0.2695457065
 C   -0.4572166693    4.3503546339    0.9960537100
 C    0.7291359626    4.0794958501    1.5373988782
 C    1.4946502755    2.7822369171    1.5280054202
 C    1.4097183144    1.9769447045    0.2212269252
 H   -2.0157423557    1.4512089103   -0.3058862660
 H   -1.7046676455    3.9505218648   -0.6849092242
 H   -2.3788739526    3.4899291134    0.8334713731
 H   -0.8324997552    5.3659598909    1.1119418946
 H    1.2235307588    4.8968354910    2.0584300721
 H    2.5510161737    3.0032750296    1.7176158959
 H    1.1716840054    2.1461426582    2.3632489606
 H    2.1369985444    1.1614977405    0.2605213358
 H    1.7110176678    2.6192850614   -0.6151484577