25

 C    0.0027075959    1.4801620396   -0.0944070853
 C    0.0227512641   -0.0478681105   -0.0048140669
 C    0.7642730415   -0.5688178700    1.2311961904
 C    0.7868567439   -2.0976700547    1.3220652956
 C    1.5238095636   -2.6041734163    2.5539155865
 O    1.4973772851   -4.0182367933    2.5540715592
 C    2.1692715896   -4.6067093678    3.6515229267
 C    2.1790118750   -6.1070969376    3.4031635764
 O    2.8306688889   -6.4211388014    2.1886721533
 H    1.0188042332    1.8878364602   -0.1399033199
 H   -0.5324800059    1.8212985776   -0.9860054430
 H   -0.4903318740    1.9219036012    0.7788672153
 H   -1.0067789873   -0.4291595602    0.0049219292
 H    0.4902494306   -0.4630175727   -0.9073381037
 H    1.7944510982   -0.1860685872    1.2224171103
 H    0.2958201828   -0.1537152200    2.1346512080
 H   -0.2374154756   -2.4896668766    1.3414121286
 H    1.2657688816   -2.5204010451    0.4299647643
 H    2.5670427703   -2.2446581823    2.5558355891
 H    1.0492183153   -2.2177500191    3.4719908822
 H    3.2030800576   -4.2297224189    3.7126572679
 H    1.6604947335   -4.3686727454    4.6004704661
 H    2.7233738211   -6.6132884639    4.2072056992
 H    1.1413348948   -6.4778414198    3.4113189643
 H    2.4508225761   -5.8242752457    1.5327784562