17

 C   -0.0486545070    1.4526024012    0.1400709334
 N    1.3658075549    1.8669248609    0.2152531557
 C    2.0578271152    0.8692354779   -0.1732912505
 C    3.4245586677    0.5501579580    0.3373084094
 O    3.2218935875   -0.5111202182    1.3017034007
 C    1.8710667281   -0.6575228965    1.7523985419
 C    0.9545567756   -0.9833543767    0.5631010781
 C    0.0155686654   -0.0443081208   -0.1587574647
 N    1.3691233314   -0.2862066857   -0.6851498795
 H   -0.5363199719    1.7109758197    1.0865249698
 H   -0.5878321706    1.9826113300   -0.6558896038
 H    4.1000732230    0.1576656012   -0.4277447944
 H    3.8652170210    1.4287174566    0.8194405230
 H    1.8929619734   -1.5016275741    2.4449213925
 H    1.5380796526    0.2274081955    2.3072928989
 H    0.7646673625   -2.0435022910    0.4112124797
 H   -0.7972033886   -0.5014199679   -0.7144157802