20

 C    0.3974612356    1.6263690672    0.4676024285
 C    0.2466739264    0.1506026086    0.1908162079
 C    0.9400222672   -0.4680205151   -0.9615039527
 N    1.4568131060   -0.6512334760    0.4604503035
 C    1.0763474841   -2.1192536733    0.3782796609
 C    0.2029447946   -2.6806676841    1.4854074608
 C    0.5571951181   -1.9242667117   -1.0548334428
 C   -0.4579581208   -2.6058230986   -1.8602783269
 O    0.9476546002   -2.7694101577   -2.1166474845
 H    1.3892501935    1.9744392287    0.1667074591
 H   -0.3556906755    2.2037965301   -0.0787350506
 H    0.2779487749    1.8324490569    1.5360735132
 H   -0.7172829282   -0.2688453290    0.4761914296
 H    1.4902500726    0.0916987323   -1.7109408288
 H    2.0157492547   -2.6791076863    0.3259186276
 H   -0.7666206109   -2.1791255763    1.5517552415
 H    0.0170373344   -3.7464651706    1.3158175783
 H    0.7067580233   -2.5774288026    2.4518424847
 H   -0.9630655864   -3.4876092590   -1.4678819359
 H   -1.0100281939   -2.0527448533   -2.6192614332