19

 C    0.0151053057    1.5845957439    0.0687784440
 C    0.0651008095    0.0733184723    0.0502403521
 C    1.2932757144   -0.7593812809   -0.2920864889
 C    2.5352525477   -0.1358046726    0.3535037401
 O    1.8646298423   -0.0816171461    1.6498406011
 C    0.7161087995   -0.7681528302    1.1101348835
 C    0.0804879060   -1.8051074019    1.9760815724
 C    3.7111874229   -0.9898279669    0.3773556852
 C    4.6867389391   -1.6916524530    0.3718765787
 H    0.8461248825    1.9987008183    0.6448351153
 H    0.0511153955    1.9999511564   -0.9439811571
 H   -0.9115938241    1.9306921800    0.5384304579
 H   -0.8309028138   -0.4030658406   -0.3457988551
 H    1.3146864871   -1.5225310042   -1.0582860176
 H    2.8087000836    0.8699857672    0.0110181849
 H   -0.3494286600   -1.3449510112    2.8731045444
 H   -0.7259147564   -2.3108168758    1.4370207091
 H    0.8143045170   -2.5514876066    2.2948660843
 H    5.5509160217   -2.3091706980    0.3767437757