22

 C    0.3510699567    1.5739071343    0.1219134191
 C    0.7557193586    0.0984458634    0.0731769124
 C    0.6376410568   -0.5801918284    1.4312583879
 O    1.0088623347   -1.9403761118    1.2923653392
 C    1.0598285941   -2.6835628877    2.5025874345
 C   -0.3216406087   -3.0967574367    3.0135761591
 C    1.9424686467   -3.9279687822    2.2944624008
 N    2.5964211010   -3.9682706006    1.1087669599
 O    2.0385274197   -4.7765640855    3.1616423334
 H    0.9832478001    2.1394030028    0.8152307529
 H    0.4428714955    2.0381980079   -0.8639346291
 H   -0.6877411591    1.6918386302    0.4489828232
 H    0.1266046789   -0.4442456020   -0.6417960729
 H    1.7891786880   -0.0002750665   -0.2794326486
 H    1.2929100953   -0.0852342098    2.1678962404
 H   -0.3940596178   -0.4954069160    1.8054950273
 H    1.5680729908   -2.0851584795    3.2766984331
 H   -0.1969384027   -3.7716600459    3.8621873757
 H   -0.9058457397   -2.2297151990    3.3326338401
 H   -0.8728591314   -3.6195350859    2.2260238488
 H    2.4201381566   -3.2564840716    0.4209900174
 H    3.1667019257   -4.7689643395    0.8959943852