20

 C   -0.1050990500    1.3372984576    0.6602422160
 C   -0.0787661747   -0.0031271666   -0.0536965110
 O   -1.3798743651   -0.5547993058   -0.0168077781
 C   -1.4524561893   -1.8106652898   -0.6650059247
 C   -2.8090359304   -2.3366671647   -0.5994583667
 C   -3.9250288123   -2.7867048102   -0.5632049428
 C   -5.2737433440   -3.3376738339   -0.4890253881
 C   -5.5159761894   -4.1849994476    0.7732520025
 H    0.8892462904    1.7937348900    0.6514401508
 H   -0.8056996513    2.0186349340    0.1695191788
 H   -0.4214960264    1.2112279097    1.6994232129
 H    0.2538174242    0.1204016087   -1.0990334384
 H    0.6396438739   -0.6868584549    0.4311485490
 H   -1.1379525069   -1.7149960169   -1.7195201035
 H   -0.7511576303   -2.5236317980   -0.1960609941
 H   -6.0001159845   -2.5156112320   -0.5249754317
 H   -5.4659982351   -3.9453660875   -1.3827552797
 H   -6.5388350786   -4.5734170578    0.7821988655
 H   -4.8251694871   -5.0316853811    0.8112516506
 H   -5.3655210432   -3.5869290234    1.6759494828