19

 C   -0.1180416309    1.5424713523   -0.0469099655
 C   -0.0018462345    0.0573042777    0.0500719605
 C    0.0363948700   -1.0241989462   -1.0272080562
 C    1.3246023620   -1.6273174614   -0.4680820829
 C    0.9248131427   -0.9507871718    0.8698434766
 C   -0.3638996686   -1.7090061198    1.3018598768
 O   -0.9563753936   -1.2555884750    2.5081592590
 C   -1.0119163921   -1.0911744694    0.0724348148
 O   -2.3519958354   -1.0958276203   -0.2417068641
 H    0.7893479842    2.0025186078   -0.4559879814
 H   -0.9515777464    1.8106456782   -0.7055689000
 H   -0.3085459003    2.0081123031    0.9282893498
 H   -0.2759108744   -0.9203786892   -2.0596195443
 H    1.4437018638   -2.7173537571   -0.4636842983
 H    2.2095358531   -1.1652445648   -0.9148411869
 H    1.6586884157   -0.6805114151    1.6277277943
 H   -0.3100284053   -2.7994447204    1.3914386247
 H   -0.9123540929   -0.2913789222    2.5059485777
 H   -2.8302687671   -0.9260528164    0.5794411352