19

 C   -0.5141426193    0.9698678262    0.1847874856
 O   -0.1331273838   -0.3474355976    0.5186405852
 C    0.9587318935   -0.5125491355    1.4330994187
 C    2.2687598739    0.0560851520    0.8667181180
 C    0.6409061473    0.0795753519    2.8146465309
 C    1.1531530468   -2.0396579749    1.6140310233
 N    0.3009026715   -2.8208876992    0.9113694309
 O    2.0253300710   -2.4695372074    2.3480129142
 H    0.2930151235    1.5264859809   -0.3091941268
 H   -1.3503594799    0.8827102411   -0.5135184273
 H   -0.8511068259    1.5423075741    1.0589244989
 H    2.2647232321    1.1497073522    0.8648343379
 H    3.0998363436   -0.2870983998    1.4855361619
 H    2.4263588484   -0.2970777456   -0.1568353071
 H   -0.3424451463   -0.2571678064    3.1564698658
 H    1.3934639045   -0.2623792759    3.5274778880
 H    0.6512785158    1.1729891553    2.7954502909
 H   -0.3960058729   -2.3968537752    0.3243315764
 H    0.3822350763   -3.8201351461    0.9919796548