22

 C   -0.0133813443    1.4546405628   -0.0943856642
 C    1.2879093095    0.7266102041   -0.0239553065
 C    2.1675693074    0.8610262967    1.2233780819
 C    1.7826711916   -0.1287738921    2.3368915688
 C    0.2777403418   -0.1665162519    2.5187068371
 C   -0.3078936247   -0.5853407379    3.8390584621
 C   -0.3848862228    0.8612448557    3.4092679250
 C   -0.4179835676   -0.6370986942    1.2494138285
 N    0.0082564859    0.0008845459    0.0014893765
 H   -0.2900361988    2.0333641697    0.7847110116
 H   -0.3831045098    1.8542701340   -1.0360096273
 H    1.8333116712    0.5781519133   -0.9537255953
 H    3.2143838093    0.7105469106    0.9418142515
 H    2.0971328902    1.8830582082    1.6129888512
 H    2.1319400373   -1.1366586318    2.0731603843
 H    2.2842185602    0.1454273345    3.2714743125
 H   -1.2240534972   -1.1680147457    3.8321691119
 H    0.3750795600   -0.8440180302    4.6419467971
 H    0.2451424113    1.5800534500    3.9237612195
 H   -1.3544844855    1.2522178420    3.1179395668
 H   -0.2211380478   -1.7119053345    1.1307082261
 H   -1.5049706274   -0.5210691993    1.3343199510