19

 C    0.7521120779    1.4200723550    0.0744319815
 O    1.4596354885    0.1925661891   -0.0374663641
 C    0.0190868652    0.1316967897    0.0320818630
 C   -0.4974881103   -0.4580790202    1.3274349698
 C   -2.0094129477   -0.3347563538    1.5251145203
 O   -2.7257288014   -1.2713717573    0.7436148041
 C   -3.0177786999   -0.8776704041   -0.5767034288
 C   -1.8607121353   -0.6366599771   -1.5135070452
 C   -0.6163515112   -0.2279509148   -1.2627151998
 H    0.8541631401    1.9420296905    1.0260780152
 H    0.7752728739    2.0586913177   -0.8079574387
 H   -0.2462453518   -1.5244175130    1.3578543206
 H    0.0246199689    0.0218555887    2.1621609653
 H   -2.2547781418   -0.5659451868    2.5667625992
 H   -2.3563217190    0.6916954447    1.3220105687
 H   -3.6355361576   -1.6854670179   -0.9844862997
 H   -3.6554642533    0.0276318100   -0.5724075350
 H   -2.1288787402   -0.7791375440   -2.5593316465
 H    0.0549922346   -0.0830024565   -2.1062252000