18

 C    0.0610610735    1.1963770354    0.5540827258
 C    0.0040463102   -0.2426973769    0.1039787183
 C    0.6876451692   -0.7583096154   -1.1493767300
 C    1.5219882877    0.1006537178   -2.0703480867
 N    1.1604590084   -1.1139938170    0.1687081806
 C    2.4014622615   -1.0057105975    0.7175086987
 O    3.4521845019   -1.2111080979    0.1375605454
 C    2.4334519268   -0.7160279874    2.2224985522
 O    1.4830866705   -0.4133509788    2.8941325218
 H    0.9959434211    1.6845613768    0.2682206388
 H   -0.7683451472    1.7554577910    0.1085827589
 H   -0.0289364042    1.2510839852    1.6414421297
 H   -0.9210640145   -0.7492517145    0.3774581299
 H    0.1800907426   -1.5806176771   -1.6537154399
 H    1.9704159663    0.9518488792   -1.5547436018
 H    2.3365640856   -0.4885911421   -2.4992007553
 H    0.9000316362    0.4791759429   -2.8877685152
 H    3.4632151143   -0.8041305036    2.6260370389