20

 C    0.0710017846    1.5953423276    0.1036776417
 C   -0.0126976886    0.0695580962    0.0048675571
 C    0.6796805290   -0.4807070354   -1.2501648160
 O    2.0285711690   -0.0392589140   -1.3250905141
 C    0.5988340306   -2.0289825771   -1.3608242796
 C   -0.8491615770   -2.5611496823   -1.4151799578
 C    1.3507889262   -2.5026439239   -2.5225818107
 C    1.9291588866   -2.9147140609   -3.4922775418
 H    1.1111696911    1.9282599409    0.0793980251
 H   -0.4478982534    2.0708931678   -0.7358850967
 H   -0.3895669100    1.9553901039    1.0284312529
 H    0.4508550261   -0.3893144469    0.8912647078
 H   -1.0628258612   -0.2412052047    0.0124498511
 H    0.2026692146   -0.0534957119   -2.1414253881
 H    2.5150476377   -0.4458951928   -0.5988785248
 H    1.0760887482   -2.4389248542   -0.4561541631
 H   -1.3975885070   -2.1006718513   -2.2429112900
 H   -0.8471685973   -3.6417584284   -1.5759096737
 H   -1.3849691102   -2.3561563284   -0.4854853127
 H    2.4570680612   -3.2655560242   -4.3439750868