14

 O   -0.4184231587    0.0845614695    0.0116280995
 C   -0.1182341832    1.2443388994    0.0097354736
 N    1.1704304940    1.7678999904   -0.0033396369
 C    2.3716498843    1.0717373881   -0.0183896513
 N    2.5323724725   -0.1928798905   -0.0322564938
 C    3.9781313019   -0.4101143320   -0.0433518567
 C    4.6412556669    0.9727862913   -0.0343424023
 O    5.8013681604    1.2938444395   -0.0366319615
 N    3.5454175780    1.8363663985   -0.0189355065
 H   -0.8545138922    2.0731687277    0.0185236222
 H    1.2300287673    2.7744784913   -0.0026104824
 H    4.2988784767   -0.9903379940    0.8293546784
 H    4.2876431904   -0.9733976357   -0.9310723944
 H    3.6329798518    2.8397896563   -0.0051110481