18

 O    0.3776291522    0.1578137056   -0.8191151846
 C   -0.4696939419   -0.3793231913    0.1727340461
 C   -1.7123143173    0.4986612248    0.3658688447
 N   -2.4073567500    0.6890721729   -0.9035856273
 C   -3.4122300195   -0.2022915071   -1.2744685033
 C   -3.6331403197   -1.5022058137   -0.8789917087
 N   -4.7548635438   -1.8982033600   -1.5949432172
 C   -5.1423277195   -0.8487575201   -2.3577396010
 N   -4.3565072306    0.1936707848   -2.1907916596
 H   -0.2131402414    0.3966367403   -1.5470848752
 H   -0.7724394774   -1.4099796474   -0.0764963694
 H    0.1010202789   -0.4230075570    1.1068928288
 H   -2.3752151337    0.0655831304    1.1314695085
 H   -1.3844500963    1.4813885743    0.7176191484
 H   -2.6984886129    1.6383700286   -1.0862572903
 H   -3.1246199858   -2.1655112829   -0.2029013907
 H   -5.1938645458   -2.8015836453   -1.5505465389
 H   -5.9998798955   -0.8911079671   -3.0120925501