15

 O    0.0011788996    0.0948273489    0.5339341110
 C   -0.0421135934    1.1915937364    0.0561368847
 O   -1.2055308061    1.7115759031   -0.3715742723
 C   -1.2902210901    2.9528425555   -1.1058678285
 C   -0.1281049331    3.8917314876   -0.8257040754
 N    1.1583118223    3.2134164461   -0.9704970054
 C    1.2342385013    2.0716005766   -0.0628029512
 C    1.5902040955    2.5319520289    1.2921281537
 N    1.8470595959    2.9152197613    2.3508250164
 H   -1.3300670788    2.6956036664   -2.1721961560
 H   -2.2512917597    3.3926826603   -0.8254438531
 H   -0.1714492519    4.7436535878   -1.5104270801
 H   -0.1892503819    4.2879828557    0.1943885764
 H    1.2844981928    2.8887824662   -1.9241221960
 H    2.0242589877    1.3929781993   -0.3972727743