19

 C   -0.3455454862    1.4821137075   -0.0485835749
 C    0.0102889165    0.0135735993   -0.0705868530
 C    0.6423247624   -0.7259036940   -1.1790559925
 C    1.7095238916    0.0901950835   -1.9026895657
 C    2.4336909603    0.2010732462   -0.5259409048
 C    3.7278283270   -0.6127470408   -0.4518744823
 C    2.6831901202    1.5446991325    0.0018741169
 N    2.9159533338    2.5999449601    0.4135451716
 N    1.3447096717   -0.5920955031    0.1783484802
 H    0.2583071462    2.0959792864   -0.7176289907
 H   -1.3928276918    1.5921228512   -0.3495573610
 H   -0.2406785709    1.8921259870    0.9601182561
 H   -0.7132751395   -0.5911682259    0.4744716395
 H    0.2752142090   -1.6873619296   -1.5232675406
 H    2.2986651701   -0.4824885626   -2.6200102523
 H    1.3787731410    1.0172624832   -2.3757841919
 H    4.5122490915   -0.1481061293   -1.0561325535
 H    4.0704482045   -0.6826189636    0.5833128573
 H    3.5387508627   -1.6236267379   -0.8216519782