18

 C   -0.5852559334    1.3027830548   -0.0895370382
 C    0.0038503613   -0.0972223592   -0.0464945791
 C    1.2719291135   -0.4261984474   -0.8955255332
 O    2.0078478666    0.7609665059   -1.1192083804
 C    1.8205311362   -1.2799256212    0.2898153774
 C    0.7943568171   -0.5757856048    1.1795407752
 C    0.9977702713    0.0911089508    2.4647488837
 O    0.2251223146   -1.1162023607    2.3551279093
 H    0.1890346758    2.0567839968    0.0671813233
 H   -1.0576270476    1.5018892795   -1.0569209624
 H   -1.3513618171    1.4194787116    0.6844859752
 H   -0.7657478066   -0.8462981289   -0.2676457095
 H    1.0925878146   -0.9640900628   -1.8346713543
 H    2.8684807967    0.5152581223   -1.4725145413
 H    1.5955304857   -2.3450397364    0.1791156244
 H    2.8798185277   -1.1539438117    0.5291913968
 H    1.9515969793   -0.0105060739    2.9814930137
 H    0.4291255941    0.9863897354    2.7117360894