20

 C    0.3523707037    1.6427830279   -0.5284742842
 O   -0.3276288927    0.4093490637   -0.4825795235
 C    0.4436272474   -0.6646292994   -0.9474347963
 C    1.5719087647   -1.2319748089   -0.0275581391
 C    1.0292387102   -2.6313267790   -0.3499465917
 C    1.8077323894   -3.7329019178   -1.0098287628
 C    1.2443185872   -3.9178182479    0.3833746852
 C   -0.2787760990   -2.0279858807   -0.8802603083
 H    1.2483377186    1.6443577390    0.1106557756
 H    0.6625021219    1.8983144899   -1.5543829324
 H   -0.3372232315    2.4096941731   -0.1673790144
 H    0.8289550395   -0.4525944883   -1.9568746404
 H    2.6101854996   -1.0151217008   -0.2926493846
 H    1.3941305856   -0.9463720952    1.0149243403
 H    1.3393336160   -4.2751396002   -1.8255651982
 H    2.8818660591   -3.6130391539   -1.1137614669
 H    1.9382339224   -3.9221135306    1.2182550050
 H    0.3969386643   -4.5850567295    0.5073163635
 H   -1.0639717930   -1.9964091498   -0.1181901578
 H   -0.6927985533   -2.4268537315   -1.8097215891