18

 C    0.0753230028    1.4432214412    0.1472525089
 C   -0.0888650580   -0.0352257778    0.0116802152
 N    0.0287591989   -0.6809917144   -1.0803677537
 C   -0.1401396533   -2.1148623875   -0.7916105513
 C   -0.5468774205   -2.2162376955    0.7019128339
 C    0.3496897721   -2.9771959018    1.7158081175
 N    0.8146420370   -1.9754142126    2.6965872971
 C    0.3932026645   -0.8414770664    2.3051485596
 N   -0.4197961891   -0.8070278314    1.1574166761
 H    0.9018845324    1.6855166931    0.8251837936
 H    0.2862080098    1.8750695930   -0.8308072763
 H   -0.8307229275    1.8952688950    0.5631217809
 H   -0.9031767646   -2.5389421056   -1.4501642754
 H    0.8004788426   -2.6380099207   -1.0119990930
 H   -1.5903729593   -2.5290924499    0.7978630558
 H   -0.2020280858   -3.7676803241    2.2315733957
 H    1.2240447321   -3.4481598405    1.2468741759
 H    0.6174610459    0.0888016859    2.8179257995