15

 N    0.1253659399    1.3581644580   -0.5112938460
 C   -0.0647082127    0.0486274757   -0.1841889415
 N   -1.1661199227   -0.6054833937   -0.2051475101
 C   -0.8180162415   -1.9709062537    0.0780362001
 C    0.1465213923   -2.6680331620   -0.8796241157
 C    0.7070573890   -1.9715018826    0.3063467021
 O    1.0850093349   -0.6183090193    0.1465626432
 C   -1.7426323292   -2.7861412975    0.8981495617
 O   -1.5492027855   -3.9443581003    1.1855735226
 H    0.9212588806    1.8046727372   -0.0820242941
 H   -0.7198505194    1.9074128470   -0.5268802101
 H    0.1345674889   -3.7509057699   -0.8214147227
 H    0.2709017299   -2.2285766971   -1.8633256787
 H    1.2215353331   -2.4770758964    1.1126414478
 H   -2.6406849975   -2.2317098854    1.2438433913