23

 C   -0.7307618256    0.9250174538   -0.1328526978
 C   -0.0159277174   -0.3916543363    0.1234806608
 C    1.3015495320   -0.6997655034   -0.6613787178
 C    1.8343215459   -1.4152783868    0.6191702759
 C    0.7578136395   -0.6655544534    1.4638395853
 C    1.3309299245    0.5984199860    2.1121826859
 C    0.0072466032   -1.5026917699    2.4952762695
 C    1.2146461770   -1.4423558471   -1.9008873398
 C    1.1216630584   -2.0755326930   -2.9200068789
 H   -0.0649719959    1.7838836021   -0.0018994464
 H   -1.1165521872    0.9572925686   -1.1576145016
 H   -1.5821436872    1.0554636577    0.5446531847
 H   -0.7104455867   -1.2221135192   -0.0443532816
 H    1.8563341315    0.2305390900   -0.8283196405
 H    1.6462405302   -2.4907617191    0.5745207017
 H    2.8835260319   -1.2476289709    0.8756256381
 H    1.8933798331    1.2123615693    1.4012736096
 H    0.5396173795    1.2247628626    2.5385770311
 H    2.0150850182    0.3289854210    2.9247163957
 H    0.6622358121   -1.7891459439    3.3267583989
 H   -0.8367624139   -0.9453518021    2.9193595358
 H   -0.3886073871   -2.4214712947    2.0500088571
 H    1.0465204239   -2.6303216015   -3.8219275457