18

 O   -0.0026467131   -0.0442262188   -0.2877856570
 C    0.0786902827    1.0948358856    0.1012777463
 C    1.3115378524    1.9089744490    0.0935000194
 C    1.1687562375    3.4182226948   -0.1246820843
 C    1.5422181460    2.9074973419    1.2144449085
 C    0.7607837068    3.1104780194    2.5421097087
 C    2.1165621668    3.3679735660    3.2175610924
 N    2.9196523439    2.1382735867    3.0238643313
 C    2.8494189746    3.1501323990    1.9374986547
 H   -0.8149010048    1.6298068823    0.5041915475
 H    2.1824303293    1.4118711860   -0.3200607938
 H    1.9248839951    3.8940954255   -0.7401888495
 H    0.1637709541    3.8064409352   -0.2656916585
 H    0.1153624173    3.9918647911    2.5133108495
 H    0.2082355053    2.2529600325    2.9327542069
 H    2.3281040587    4.0537320616    4.0278485346
 H    3.8083230518    2.2840922385    3.5037851689
 H    3.7439703757    3.6187679437    1.5451004142