21

 C    0.0177956051    1.5541081442   -0.0271974377
 O    1.4495751224    1.7709865577   -0.0408516409
 C    1.9408060186    0.4254397616    0.0085007241
 C    1.0749958187   -0.3321295756   -1.0313273260
 C    1.3922712352   -1.8248508630   -1.1686560065
 C    1.0533298474   -2.5803266804    0.1261932159
 C    1.4018330534   -1.7287489232    1.3572948979
 C    1.0830597219   -0.2506851849    1.1093621569
 C   -0.0294431300    0.0265038555    0.0310983296
 H   -0.4281069891    2.0411160121    0.8487418334
 H   -0.4348350766    1.9732844594   -0.9342206250
 H    3.0317206278    0.4263310018    0.0043670496
 H    0.9946811732    0.1634205983   -2.0037232486
 H    0.8330218680   -2.2521216548   -2.0086370104
 H    2.4553093080   -1.9411379724   -1.4191095478
 H   -0.0228464729   -2.7874960285    0.1381496037
 H    1.5543047082   -3.5527164047    0.1612930314
 H    0.8491111837   -2.0908260747    2.2315289928
 H    2.4667785941   -1.8259443134    1.6077839994
 H    1.0099091193    0.3173202333    2.0418813127
 H   -1.0123817563   -0.4455785882    0.0527568856