16

 C    0.0875153637    1.5820432262   -0.2576780620
 C    0.0272746060    0.1011461803   -0.0853426431
 C   -0.3751276464   -0.8965844035   -0.9420688541
 C   -0.2142514319   -2.1539790280   -0.2834618525
 C    0.2770695837   -1.8677213643    0.9630420645
 N    0.4195171090   -0.5117920278    1.0889662947
 O    0.6485293988   -2.6636685211    2.0146935394
 C   -0.2866979757   -3.5358566201    2.5003015875
 O   -0.0277374166   -4.3232787473    3.3535104107
 H    1.1088294260    1.9699545174   -0.1564016714
 H   -0.2700965652    1.8508098151   -1.2540861504
 H   -0.5372666523    2.1114067582    0.4725668041
 H   -0.7409836738   -0.7445229148   -1.9461028225
 H   -0.4096062455   -3.1369914258   -0.6809041669
 H    0.7808747116   -0.0552054582    1.9092637745
 H   -1.2626332913   -3.4063008862    2.0009196074