19

 C    0.1767502899    1.5484357705    0.1574890827
 N    1.1582222855    0.5253347297   -0.2420002484
 C   -0.2294339585    0.1249829477    0.0654619871
 C   -0.3706403226   -0.7320631006    1.2905434258
 O   -1.7447928277   -0.8691226272    1.7275388112
 C   -1.6790775679   -2.3163537840    1.7051406332
 C   -0.2678549504   -2.2524519125    1.1370016756
 C    0.4064418711   -3.0374605811    0.0843382302
 N    0.8324525789   -3.1262191586    1.4984583275
 H    0.3546888539    1.9949253678    1.1319779374
 H   -0.1976818001    2.2359159416   -0.5957212027
 H    1.2955365676    0.5522474233   -1.2484544782
 H   -0.8781723555   -0.1572252313   -0.7610884660
 H    0.2707349694   -0.3328917529    2.0906063951
 H   -1.7446687664   -2.7515404888    2.7099505138
 H   -2.4555834436   -2.7515003354    1.0648047727
 H   -0.0588928002   -3.9380148818   -0.3082407275
 H    1.0421989622   -2.5055142030   -0.6183908005
 H    1.6791447644   -2.5792277030    1.6415711611