13

 O   -0.2049229561    0.0269069944   -0.0009218081
 C   -0.0459786957    1.2274636008    0.0089110316
 C    1.2502956571    1.8837144143    0.0000856065
 C    2.5455106971    1.3855517867   -0.0191261378
 N    3.4570098057    2.3872272116   -0.0204975757
 C    2.7460307674    3.5164881851   -0.0022181732
 N    1.4088649944    3.2543135252    0.0106856757
 C    3.2565737019    4.8331216380    0.0038565094
 C    3.6667522249    5.9643113967    0.0094009712
 H   -0.9156673577    1.9252764255    0.0243116418
 H    2.8357515297    0.3461930926   -0.0317989222
 H    0.6754641480    3.9453652883    0.0252828151
 H    4.0435412634    6.9576774309    0.0140812458