20

 O   -0.4515329340    0.0531078582   -0.0499516020
 C   -0.2552588335    1.2399720643   -0.0122050756
 C    1.1178933282    1.8934270276    0.0041696219
 C    1.2885304476    2.7449669482   -1.2474144592
 C    2.6427925839    2.8929643897   -1.8950062045
 C    1.5634134346    2.0932053024   -2.5798355025
 C    1.2697723587    2.7135013770    1.2771945515
 C    1.7157888374    2.0723070883    2.5389583691
 N    2.5985142504    3.0143875768    1.8258460111
 H   -1.1055669455    1.9622886997    0.0064763724
 H    1.8531566519    1.0793580982    0.0022971701
 H    0.6536994578    3.6274332656   -1.2686137821
 H    2.9113408906    3.8605122661   -2.3036349271
 H    3.4764890712    2.3492804609   -1.4629816010
 H    1.6668570173    1.0132994499   -2.5997966674
 H    1.0919734257    2.5094674142   -3.4628435012
 H    0.5815987578    3.5550427467    1.3478770615
 H    1.3443395897    2.4280906843    3.4954198933
 H    1.9502284285    1.0110528663    2.5104955071
 H    3.3096970417    2.5000083756    1.3113620944