17

 O    0.0069411623    1.2943812519    0.3530691335
 C   -0.0015358118   -0.0193576284   -0.1800815757
 C   -1.3941241094   -0.5681909195   -0.2623505027
 C   -2.5999478149    0.0809052195   -0.9252188016
 C   -3.4085210845   -0.7488797863    0.0874292974
 C   -3.1991138516   -2.2262666603   -0.3006015576
 C   -1.7635470693   -1.9670202778    0.1199985629
 N   -2.1542278968   -0.8248227597    1.0215606067
 H   -0.4804732035    1.2448868566    1.1844581223
 H    0.4449015851    0.0489051748   -1.1785914799
 H    0.6253893373   -0.7007763982    0.4170720349
 H   -2.6248993715    1.1478110843   -0.6923177373
 H   -2.7809506876   -0.0748495709   -1.9940493605
 H   -4.3540732278   -0.3952828358    0.4936371653
 H   -3.6940467764   -2.9008253040    0.4024155732
 H   -3.4155890789   -2.5328854594   -1.3292951503
 H   -1.0168993609   -2.6910660568    0.4278296795