19

 C   -0.0115264083    1.4995126435    0.0123400309
 C    0.0049403368   -0.0179171541   -0.0357873833
 O    0.6846013896   -0.4182471054   -1.2133104779
 C    0.7518074990   -1.8190091320   -1.3468523219
 C    1.4558197985   -2.1818130829   -2.5676214296
 C    2.0367893803   -2.5034512384   -3.5753359491
 C    2.7354172929   -2.8899186156   -4.7872181519
 C    2.8576889837   -4.3832117924   -5.0162264570
 O    3.1843896285   -2.0649132778   -5.5535095417
 H    1.0085095824    1.8928756662    0.0251003258
 H   -0.5245777078    1.9044013078   -0.8641387150
 H   -0.5303697168    1.8450328619    0.9113277155
 H    0.5118432666   -0.4312644689    0.8527262047
 H   -1.0225967943   -0.4197012764   -0.0369152370
 H    1.2693712809   -2.2734241283   -0.4829029969
 H   -0.2599857833   -2.2624015315   -1.3682007923
 H    1.8630209210   -4.8396814032   -5.0625392849
 H    3.3966517870   -4.5657626916   -5.9469734963
 H    3.3858608435   -4.8508712808   -4.1782813922