17

 O   -0.1444864152   -0.0292730827    0.1217669722
 C   -0.1071358326    1.1653665341    0.0992136202
 C   -1.1575948908    2.2758700744    0.2598712811
 C    0.0165087753    3.2653114417    0.5245207301
 C    1.0529267946    2.1924703189    0.0472749962
 C    2.2822317426    1.9131398736    0.8648499349
 C    3.4583476453    1.2450665739    0.2568842573
 N    3.5316775130    2.6653579891    0.6429649802
 H   -1.6879600464    2.4660949778   -0.6791530712
 H   -1.8976766564    2.1246586769    1.0493682872
 H   -0.0003289619    4.1990775718   -0.0381782016
 H    0.1339169003    3.4954907308    1.5860205870
 H    1.3298986042    2.3571433480   -1.0031572492
 H    2.0844795974    1.7268217745    1.9191473589
 H    4.0704835321    0.5751627175    0.8531066033
 H    3.4066277158    0.9892283231   -0.7983790454
 H    3.4380392430    3.2510558565   -0.1841275214