18

 C    0.7762385881    0.9989931493   -0.2987861393
 O    1.0349009243    0.2330291367    0.8676387745
 C    0.0125190524   -0.6599221216    1.2385883153
 C    0.4231894111   -2.1118119101    0.9482575948
 C    1.5841265401   -2.6709045073    1.8147859357
 C    0.5187069545   -3.6447330238    2.3555314318
 O   -0.5135050054   -3.0409054155    1.5326393856
 C    0.5768266990   -2.3414149473   -0.4972261472
 N    0.6944883746   -2.5214412611   -1.6330313323
 H   -0.1153663041    1.6294117627   -0.1712208850
 H    1.6453188832    1.6435755118   -0.4479589880
 H    0.6443975761    0.3690770353   -1.1867525576
 H   -0.1502785643   -0.5823733084    2.3205200041
 H   -0.9389831943   -0.4407032208    0.7369477810
 H    2.4047999199   -3.1237547880    1.2606854178
 H    1.9791536170   -1.9463183489    2.5268187458
 H    0.6692934816   -4.6983075076    2.0984902009
 H    0.2797902062   -3.5624283955    3.4205961323