16

 O   -0.2246160196    0.1879285006    0.5440951502
 C    0.0372055388    1.0989432696   -0.1948217636
 C    1.3428673676    1.8697942315   -0.1410324597
 O    1.3030410440    2.8556560380   -1.1436656621
 C    2.4071030789    3.6478334554   -1.2376874610
 C    3.5631273007    3.6179918490   -0.4838316553
 N    4.3744343144    4.6227101942   -0.9708598505
 C    3.7547035497    5.2699149463   -2.0023876202
 C    2.5233607645    4.6889749362   -2.1977912545
 H   -0.6599215513    1.4551734196   -0.9844169381
 H    1.4605924822    2.3136995207    0.8605659922
 H    2.1822260159    1.1718458914   -0.2908303195
 H    3.8743063904    2.9910513960    0.3331142097
 H    5.2872941371    4.8410871720   -0.6150289192
 H    4.2332491605    6.0886626075   -2.5147773594
 H    1.7837582161    4.9623990220   -2.9326545590