23

 C   -0.0775149026    1.5247996549   -0.0877618040
 C    0.1486717509    0.0250090885    0.0027458413
 O    0.4817251856   -0.4558334493   -1.2873267528
 C    0.7081531483   -1.8428744925   -1.3518410826
 C    0.7359460210   -2.4001042061   -2.7668174646
 C    1.8925212505   -1.8278195930   -3.5377902187
 C    2.1598035404   -2.9265869728   -2.5498597176
 C    2.1788837551   -2.3877011033   -1.1116325120
 C    3.2794721303   -1.4132497995   -0.7090672638
 H    0.8304138356    2.0296668062   -0.4300184880
 H   -0.8801468599    1.7485451728   -0.7962207503
 H   -0.3523263037    1.9302209261    0.8907439607
 H    0.9512332927   -0.1979118566    0.7228553128
 H   -0.7605879013   -0.4823514860    0.3673496765
 H   -0.0140836472   -2.3704569311   -0.7132874676
 H   -0.1026927467   -2.8747532639   -3.2612692900
 H    1.9329101049   -2.1269434299   -4.5803066741
 H    2.2207208959   -0.8097443514   -3.3559675099
 H    2.5688138401   -3.8813800986   -2.8577320767
 H    2.1410507107   -3.2161510531   -0.3968432080
 H    3.2606377376   -0.5069331499   -1.3195313426
 H    3.1775391133   -1.1083795796    0.3378854670
 H    4.2651116985   -1.8781023719   -0.8230479052