16

 O    0.0059028121   -0.0157345311    0.2514441683
 C   -0.0355043332    1.1624306457    0.0650526076
 C   -1.1580671437    2.2332939836    0.0111705505
 C   -1.7506745915    2.4592717957    1.4042166336
 O   -0.6739737336    2.9305543728    2.2209477266
 C    0.3416149066    3.5375364435    1.4317693223
 C    1.5724657628    2.6005543267    1.2594658353
 N    1.0205711794    2.1241029395   -0.0633884383
 C    0.0041126261    3.2415736800   -0.0518963919
 H   -1.8938847669    2.1829107279   -0.7918126706
 H   -2.5616022037    3.2014625700    1.3631228700
 H   -2.1368420199    1.5404590918    1.8543441977
 H    0.5173980819    4.5653461187    1.7612283001
 H    2.5139292796    3.1316716804    1.1008605882
 H    1.6955359289    1.8183844464    2.0109408259
 H    0.0716192151    4.0096492284   -0.8190045652