21

 C   -0.2934390911    1.4563886567    0.2100280353
 C    0.2186983997    0.0688420186   -0.1682445543
 N    0.7616156953   -0.6006157818    1.0114692192
 C   -0.0473636695   -1.3562505529    1.9407150431
 C   -1.1711312025   -2.1699722647    1.2585837737
 C   -0.0771927031   -2.8482682742    0.4067410986
 C   -0.0214881220   -4.2741157219    0.0271629904
 N   -0.0868309709   -3.2186927473   -1.0083770160
 C    1.0079528746   -2.0236088083    1.0810935511
 H    0.5011966104    2.0469156500    0.6747252862
 H   -0.6547533546    1.9899603388   -0.6744929457
 H   -1.1212943717    1.3871896494    0.9239821895
 H   -0.5782831144   -0.4998048192   -0.6676397407
 H    1.0384944845    0.1504504568   -0.8901899681
 H   -0.0129231454   -1.1020941232    2.9941141460
 H   -1.6615832873   -2.8651469308    1.9446224211
 H   -1.9378835302   -1.5940158033    0.7299208923
 H    0.9212463846   -4.8146984761    0.0640064073
 H   -0.9010701018   -4.8870722953    0.2094774066
 H   -1.0336788849   -3.1565273432   -1.3769319969
 H    2.0047903104   -2.3715854180    1.3316098612