19

 C   -0.0965745965    1.5772799025   -0.0192731319
 C   -0.0387035706    0.0556668811    0.0581656220
 N   -1.3765067821   -0.5158649635   -0.0533875463
 C   -1.4892053556   -1.8986357279   -0.0188697749
 C   -0.5390577108   -2.9027957899   -0.0726962270
 C   -1.3005555875   -4.1032114541   -0.0811741594
 N   -0.8012990985   -5.4032565983   -0.1915757593
 N   -2.6044116168   -3.8808453118   -0.0239981693
 N   -2.6994197708   -2.5099780443    0.0250995971
 H    0.9089977304    2.0021526278    0.0423117943
 H   -0.5555264172    1.9022715084   -0.9573492453
 H   -0.6821644166    1.9938033296    0.8088381514
 H    0.5583623611   -0.3382465797   -0.7718570785
 H    0.4652021917   -0.2582328666    0.9874018533
 H   -2.0439333188   -0.0500997180    0.5490292170
 H    0.5320336175   -2.7954159442   -0.0949056600
 H    0.0250159716   -5.5592589432    0.3703700457
 H   -1.5132177072   -6.0857766130    0.0377026843
 H   -3.5982160633   -2.0828377750   -0.1113791433