19

 C   -0.2353598594    1.6541755865    0.1041880506
 C    0.0748294325    0.1713486508   -0.0158683558
 N    1.3261471640   -0.1598140504   -0.7516531969
 C    1.7775424106   -1.1153654530    0.2987102082
 C    0.6849170937   -0.5668901221    1.2116208522
 C    0.7419423392   -0.0866335572    2.6052462030
 N    0.0004201582   -1.3162570037    2.2529483558
 C   -1.1269200532   -0.6276103031   -0.4991175721
 O   -2.2747966873   -0.2786491667   -0.3915645133
 H    0.6231755885    2.1842773970    0.5210156441
 H   -0.4594925868    2.0779605422   -0.8798051672
 H   -1.1123629925    1.8140171589    0.7374866228
 H    1.1811793266   -0.5721144112   -1.6689058043
 H    1.6262562366   -2.1765941360    0.0637764978
 H    2.8164592201   -0.9656567633    0.6107763992
 H    1.6406646756   -0.2495458607    3.1946554906
 H    0.1818804650    0.8076815033    2.8654546926
 H   -1.0009329310   -1.1310115358    2.2320028327
 H   -0.8623524604   -1.6092459057   -0.9608737500