23

 C    0.0820122875    1.6411033493   -0.0210943208
 C    0.0447043300    0.1227431228    0.0447448600
 C    0.9090143102   -0.7009378323   -0.9572739582
 C    1.3754903644   -1.6241227417    0.2111542787
 C    2.8763233871   -1.6859349514    0.5432734420
 C    3.0049612515   -0.7547625408    1.7736464108
 C    4.2852449393    0.0575550433    1.8536178861
 O    1.8949895221    0.1415147066    1.6832677871
 C    0.7784498337   -0.5918931495    1.2111016224
 H    1.1064617381    2.0041174443    0.0949935176
 H   -0.3057151974    1.9979797867   -0.9817197074
 H   -0.5241681294    2.0918378060    0.7724633866
 H   -0.9918137713   -0.2317223135    0.0162708767
 H    0.3728931432   -1.1842256619   -1.7776031859
 H    1.7329553096   -0.1187536228   -1.3808777806
 H    0.8887364714   -2.6007096985    0.2080264463
 H    3.2236075905   -2.6977907214    0.7706911768
 H    3.4829701595   -1.3083459002   -0.2870886031
 H    2.8993276211   -1.3607560922    2.6902521920
 H    4.3998030560    0.6754284625    0.9573005551
 H    4.2733682570    0.7158299437    2.7267785820
 H    5.1530163047   -0.6046500325    1.9333808372
 H    0.1681668613   -0.9546278265    2.0497786684