16

 C    0.0513530823    1.3782903709    0.0088437537
 O    0.0109122873   -0.0297534147    0.0018198779
 C   -1.2998316664   -0.5418039615    0.0114523520
 C   -1.1900716502   -2.0724686327    0.0025671187
 C   -2.4880983420   -2.7251081921    0.0111998956
 C   -3.5774252951   -3.2523272079    0.0189440653
 C   -4.8019291006   -3.8459093812    0.0273503991
 C   -5.8890050301   -4.3718013457    0.0345017902
 H    1.1029983915    1.6739376129    0.0006413486
 H   -0.4458657033    1.8052679248   -0.8762091758
 H   -0.4293186547    1.7958895279    0.9074090014
 H   -1.8497963534   -0.2081829510    0.9061258035
 H   -1.8663965967   -0.1990866031   -0.8693165514
 H   -0.6183341447   -2.3755303085   -0.8832153287
 H   -0.6020453484   -2.3845392033    0.8744533882
 H   -6.8440945754   -4.8350193048    0.0409780618