12

 C   -0.0438317742    1.5079298510    0.0139652932
 C    0.0040377252   -0.0080269606   -0.0327633185
 C    0.7451270050   -0.6973603699   -1.1329604062
 N    1.2726702747   -0.7183387669    0.2340599210
 C   -1.1668679491   -0.6610330647    0.5223880887
 N   -2.1238242694   -1.1491795488    0.9488984265
 H    0.8474966646    1.9261580992   -0.4635694658
 H   -0.9249889338    1.8884603199   -0.5107622886
 H   -0.0857231410    1.8641959055    1.0476039213
 H    0.3943656054   -1.6558503926   -1.5016088195
 H    1.2132638827   -0.0581939514   -1.8771717822
 H    2.0161108299   -0.0319153909    0.3426220004