15

 O   -0.1103479666    1.4635658263    0.0107296039
 C    0.0393612808    0.0561690969    0.0016088647
 C   -1.3789769617   -0.5320966357    0.0131491917
 C   -1.3881581013   -1.9833389127    0.0054902793
 C   -1.3827091288   -3.1965053784   -0.0011489237
 C   -1.3750419759   -4.5477998067   -0.0085588246
 C   -1.3692824944   -5.7663388997   -0.0153245166
 C   -1.3627837106   -7.1192679406   -0.0228772801
 C   -1.3571907071   -8.3290365505   -0.0295612780
 H    0.7646683821    1.8620452095    0.0037396200
 H    0.5729171021   -0.2946778524   -0.8938990688
 H    0.5913206880   -0.3042231881    0.8820451390
 H   -1.9041804168   -0.1543779473    0.8995028002
 H   -1.9223728821   -0.1449729934   -0.8580515337
 H   -1.3531364278   -9.3907558274   -0.0355214734