18

 C   -0.0511361371    1.4556111166    0.2167482280
 C   -0.2126113687   -0.0565020026    0.3504191095
 O   -0.0086372060   -0.4585594091    1.7122703245
 C   -1.5808755657   -0.5735452289   -0.1781702518
 C   -1.8642359166   -0.0576453353   -1.5887163868
 O   -2.5868294485    0.8747228640   -1.8248270130
 C   -1.7365201715   -2.1034109246   -0.2242155061
 N   -1.2129497328   -2.7979645376    0.8134096983
 O   -2.3322993778   -2.6223499927   -1.1541819858
 H    0.8963626119    1.7618496386    0.6675363877
 H   -0.0602830458    1.7735316892   -0.8285300097
 H   -0.8693237256    1.9819661255    0.7224107381
 H    0.5912743019   -0.5597945538   -0.1984954400
 H   -0.5915673984    0.0754094434    2.2651798810
 H   -2.3671831970   -0.1630072999    0.4686223281
 H   -1.3222414894   -0.5942931349   -2.3929636248
 H   -0.6697641354   -2.3230549445    1.5200841038
 H   -1.2846064776   -3.8022331134    0.7936004087