18

 O    0.0055090678    0.0367474199    0.1556628607
 C   -0.0479542410    1.2336059286    0.0652615181
 C   -1.2425754123    2.1716336059    0.0142119325
 C   -0.7616640505    3.1544350836    1.1198240732
 N    0.3403624401    3.5486545168    0.1631098628
 C   -0.6570150087    3.2693916436   -0.9529667615
 C    0.1439606816    2.8262898971   -2.1794877341
 C    1.4724232626    2.3223398595   -1.5417648714
 C    1.0977773585    2.2674990726   -0.0524802363
 H   -2.2370962064    1.7323116983   -0.0495137947
 H   -1.4353479936    3.9990230028    1.2811638929
 H   -0.4331320773    2.7492832625    2.0812096372
 H   -1.3388994598    4.1089931388   -1.1016566146
 H   -0.3760282136    2.0415919120   -2.7365722584
 H    0.3108822742    3.6612860264   -2.8639071962
 H    1.7948746989    1.3492316476   -1.9177172707
 H    2.2816317339    3.0403855923   -1.6970356200
 H    1.9246722257    2.1264442018    0.6438450404