27

 C    0.7006318847   -0.5796935454    1.3049693770
 C    0.1022415977   -0.0838172735   -0.0167152988
 C    0.8368163270   -0.5353404942   -1.3001411692
 C    2.2765456377    0.0128833838   -1.4032636136
 C    2.3930654602    1.5402309475   -1.3750486593
 C    0.8606069436   -2.0633316925   -1.5173585421
 C   -0.4962833141   -2.7576011766   -1.6641198859
 C   -0.3633046397   -4.1468283076   -2.2922788935
 O   -1.0768428740   -2.8555084543   -0.3611005243
 H    0.6448231630   -1.6687841933    1.3786068809
 H    1.7467508786   -0.2792226729    1.4279610489
 H    0.1434437426   -0.1666087943    2.1522526467
 H   -0.9350107468   -0.4242648013   -0.0735849744
 H    0.0668432087    1.0120595480   -0.0087118007
 H    0.2748511909   -0.1051438821   -2.1444233899
 H    2.8921447831   -0.4153557074   -0.6016286331
 H    2.7151129697   -0.3550837253   -2.3400361089
 H    1.7635373673    1.9997502454   -2.1459219987
 H    2.0925882899    1.9590656464   -0.4100513731
 H    3.4252048096    1.8548681801   -1.5600561402
 H    1.4317582304   -2.2605596216   -2.4330212764
 H    1.4049496654   -2.5608579697   -0.7047928948
 H   -1.1409232928   -2.1379863463   -2.3114162205
 H    0.3036999468   -4.7749511944   -1.6928984092
 H   -1.3388604174   -4.6444752281   -2.3481163596
 H    0.0354881639   -4.0852840916   -3.3100048187
 H   -1.9307587460   -3.2907787688   -0.4478763686