20

 C    0.4439227128    1.4223424269   -0.1927230025
 C   -0.0198523881    0.0304165822    0.1507783245
 O    0.9541316159   -1.0220179782    0.0997894194
 C    0.3959570742   -0.6837296182    1.3718864738
 C    1.2260898345   -0.0482589418    2.4540637530
 C    2.2535143946   -0.7133916751    3.2800792693
 C    3.1122441135   -1.6920435426    2.4804337606
 C    3.4461974729   -0.4973959558    1.5555601759
 N    2.6095561784    0.4661856629    2.3747297788
 H    1.3632374279    1.6788102951    0.3375449348
 H    0.6213847787    1.5097242291   -1.2697713798
 H   -0.3280675754    2.1513470244    0.0773400239
 H   -0.9783098174   -0.2591684364   -0.2843796284
 H   -0.2910271680   -1.4410158218    1.7593575325
 H    0.6198070932    0.6600465300    3.0210826735
 H    2.2607315366   -0.6174093740    4.3621540911
 H    3.9759229799   -2.0608940088    3.0359531854
 H    2.5866794889   -2.5432512018    2.0389401763
 H    4.4880782563   -0.1802455205    1.6319641608
 H    3.1540917506   -0.5712750058    0.5105882570