17

 N   -0.0348769625    1.4935248154    0.0013247962
 C   -0.0549447575    0.0611790677   -0.0048201346
 C   -1.3458950397   -0.7144874685    0.0301214747
 C   -2.6409628952    0.0128420982   -0.3269676546
 C   -2.5770967137    0.0870870578   -1.8649246093
 O   -1.1746221395    0.0946559940   -2.1925796687
 C   -0.5143194012   -0.7126595365   -1.2509446879
 C    0.1757958456   -1.8606349345   -1.7614235210
 N    0.7622404239   -2.7831568576   -2.1429132886
 H    0.9247612417    1.8178897321   -0.0643927804
 H   -0.5091284435    1.8386173908   -0.8299886297
 H    0.7630003773   -0.3875140000    0.5495116843
 H   -1.3871629902   -1.6063169453    0.6431365517
 H   -3.5184131146   -0.5373668972    0.0190886567
 H   -2.6647169394    1.0101067302    0.1234315134
 H   -3.0583563857   -0.7874983577   -2.3230636392
 H   -3.0124323459    0.9936322212   -2.2916767428