18

 C   -0.3276299641   -1.1629532899    0.3921532586
 C   -0.2184190525    0.0248670192    0.2444144670
 C   -0.1077657711    1.4573082394    0.0867439940
 C   -1.2693178556    2.1660448974   -0.5902278450
 N   -1.4848448268    1.6759786239   -1.9428237131
 C   -2.4705097257    0.6114284365   -2.1071679563
 C   -2.7766703232    2.0017143610   -2.5392338985
 C    0.7304148726    2.2105523723    1.0448267080
 O    1.1984802492    1.9411603068   -0.2697056716
 H   -0.4138603879   -2.2146061067    0.5135861340
 H   -2.1674173352    2.0631154332    0.0473061648
 H   -1.0181489772    3.2302208403   -0.6484313160
 H   -2.2174338567   -0.1531791805   -2.8350934349
 H   -2.9756813409    0.2420648351   -1.2168438464
 H   -3.4908646436    2.5624403152   -1.9373351760
 H   -2.7531807349    2.2768436518   -3.5896060262
 H    0.4846254772    3.2509561608    1.2569414175
 H    1.2308306063    1.6711687044    1.8465846701