15

 O    0.1229519313    1.3079550194    0.1305701771
 C    0.0927992612   -0.0893918403   -0.0062827807
 C   -1.3159405698   -0.6562065427   -0.1323052495
 N   -1.3057827903   -0.5375331695   -1.6335675361
 C    0.2592972955   -0.6044595828   -1.4546185912
 C    0.1954618575   -2.1366430361   -1.3875845588
 C   -1.2521643957   -1.8984649364   -0.9726290665
 C   -2.3357787520   -2.8313053187   -1.0419600165
 N   -3.1894075580   -3.6103995149   -1.0844093705
 H   -0.5008708496    1.6871435295   -0.5011811642
 H    0.7647683104   -0.4879416526    0.7589204819
 H   -2.1976953531   -0.4090819051    0.4482347679
 H    0.8975164543   -0.0776400580   -2.1601842723
 H    0.2398235439   -2.5955204341   -2.3771061157
 H    0.8643185244   -2.6581850177   -0.6972418448