19

 O   -0.2349731974    0.0718473177    0.0031968704
 C   -0.0074609154    1.2537403917    0.0136666803
 C    1.3592614880    1.8774736973   -0.1412728733
 C    1.3969386610    2.8962240137   -1.2953313259
 C    2.6720762837    3.6879472723   -1.3117068708
 C    4.1542275195    3.2151814905   -1.3417139074
 C    4.1075243598    4.7307222551   -1.0498578881
 C    3.0655498887    4.9181699545   -2.1743243396
 O    2.9985822378    4.4896753000   -0.0961973716
 H   -0.8331839399    1.9939339676    0.1425058329
 H    1.5970957804    2.4096284841    0.7899041162
 H    2.0958427432    1.0814344612   -0.2790763398
 H    1.2833327447    2.3866362276   -2.2595243254
 H    0.5585236861    3.5983772404   -1.2029599367
 H    4.4633000931    2.5921644277   -0.5016975123
 H    4.5684103966    2.8840486704   -2.2975536918
 H    4.9056296174    5.3979388809   -0.7269566107
 H    3.3794306561    4.7440629677   -3.2067478627
 H    2.4141782064    5.7860697596   -2.0629958637