16

 C    0.1238942625    1.5184096248    0.0680479105
 C   -0.0583765929    0.0020712565   -0.0157895065
 O   -1.4304572186   -0.3479307601   -0.1056943158
 C    0.7708059172   -0.6096157767   -1.1753690278
 O    2.0582072215   -0.9220677095   -0.6268684093
 C    1.9861578673   -1.0367078818    0.7324402482
 O    2.9325909173   -1.3382245213    1.3962334772
 C    0.5658137504   -0.7224007477    1.1808450176
 H    1.1826151595    1.7849085834    0.1471929804
 H   -0.2723027099    2.0063313280   -0.8307816771
 H   -0.4019121126    1.9172096157    0.9399973669
 H   -1.8519232234    0.2341529523   -0.7469022309
 H    0.2861459725   -1.5268121423   -1.5280433050
 H    0.9212187712    0.0700635760   -2.0184897812
 H    0.5692074079   -0.1572370397    2.1135357976
 H    0.0343838901   -1.6645168777    1.3537800953