21

 C    0.2153204537    1.5880466099    0.2263304249
 C    0.1303573726    0.0733167586    0.0264723882
 C    0.8278517581   -0.4052921227   -1.2548244625
 O    2.2056971213   -0.0249358153   -1.2815705157
 C    0.7023264651   -1.9121343199   -1.4344931796
 C   -0.5583349551   -2.6354169413   -1.9958194315
 C   -0.2405584188   -2.1295524331   -3.4237032314
 C    1.0598200797   -2.6412528225   -2.7594745557
 O    0.2959117689   -3.8152536839   -2.2653284619
 H    1.2574054887    1.9177234995    0.2209866193
 H   -0.3046763768    2.1205931603   -0.5776856164
 H   -0.2390110088    1.8891980339    1.1748296185
 H    0.5833249825   -0.4452869073    0.8841181074
 H   -0.9186880896   -0.2483880974   -0.0021155363
 H    0.3914041063    0.1254526074   -2.1076424330
 H    2.6486799563   -0.4855714001   -0.5594956149
 H    1.1076440512   -2.4448667527   -0.5660843284
 H   -1.5236921884   -2.8154466237   -1.5211091373
 H   -0.6212567133   -2.7662746959   -4.2226942745
 H   -0.3401740646   -1.0666462168   -3.6498142727
 H    2.0383708410   -2.8273485569   -3.2012906565