19

 C   -0.1984955376    1.8222281404    0.7324958423
 C   -0.5211251285    0.3282881751    0.7020747986
 O   -0.3226748198   -0.2287712033   -0.6059758069
 C    0.9358700199   -0.8954817135   -0.6706240957
 C    1.3115803015   -1.2471203984    0.7554406242
 C    0.3807240870   -0.4715851971    1.6304135059
 N    0.3396106096   -1.9251528794    1.5986101892
 C   -0.7926285124   -2.6634916781    1.0478724736
 H    0.8638459897    1.9996523928    0.5356187535
 H   -0.7820958693    2.3456074572   -0.0293313938
 H   -0.4414368129    2.2522985810    1.7099869332
 H   -1.5849048864    0.1816816942    0.9315134695
 H    0.8121656083   -1.7653017573   -1.3269895280
 H    1.7148358920   -0.2512493844   -1.1082483904
 H    2.3597285731   -1.4154826476    0.9890533575
 H    0.6791908920   -0.0168988793    2.5717708723
 H   -1.2484768201   -2.2194313434    0.1545138875
 H   -0.4560372228   -3.6761762553    0.8040380646
 H   -1.5575465333   -2.7496074236    1.8262199629