18

 C    0.1095151914    1.2684630461    0.3958945399
 N   -0.0466740724    0.0143285587   -0.3354015156
 C   -1.1986196072   -0.7339116541   -0.1230178155
 N   -1.2466758517   -2.0278347268    0.0492604869
 C   -2.6029783530   -2.3609335145    0.1137761774
 C   -3.0605821847   -3.7679841267    0.3093056086
 C   -3.3435722605   -1.2234028042   -0.0064179749
 O   -4.6701971503   -0.9228772063    0.0017145271
 N   -2.4524373106   -0.1746205627   -0.1506695133
 H    1.0919688085    1.6876590420    0.1665290105
 H   -0.6344596677    1.9991690046    0.0610529311
 H    0.0164147056    1.1623491163    1.4875152273
 H    0.7507068794   -0.6000083811   -0.2313537269
 H   -2.6774918288   -4.1909413734    1.2452957221
 H   -4.1545310887   -3.8365525883    0.3420197725
 H   -2.7171409100   -4.4185276159   -0.5033254443
 H   -5.1599231910   -1.7374257626    0.1511662690
 H   -2.7044241283    0.7755160891   -0.3609417819