21

 C    0.0432800612    1.6018122908    0.0581765054
 C    0.0000666320    0.0943421473   -0.1147097482
 C    0.8807590312   -0.5259724461   -1.2280474014
 C    1.3468699261   -1.4836454283   -0.1072690683
 O    0.8140624416   -0.5738596406    0.8970807644
 C    0.6483100304   -2.8171586185   -0.0732202079
 C   -0.6677144649   -2.9660228179   -0.2345954012
 C   -1.6748190645   -1.8859429808   -0.5610300220
 C   -1.4335309602   -0.4534487109   -0.0342122918
 H    1.0788254028    1.9465490760    0.1212087306
 H   -0.4437868153    2.1037204158   -0.7850154214
 H   -0.4729301962    1.9013730603    0.9767225037
 H    0.3902444530   -0.9624850047   -2.0988434158
 H    1.6713596722    0.1534026940   -1.5535366303
 H    2.4280335301   -1.6013602242    0.0114920978
 H    1.2611791855   -3.6941447240    0.1182359068
 H   -1.0803297429   -3.9717093149   -0.1805909845
 H   -1.7760688242   -1.8506751420   -1.6566395500
 H   -2.6601451799   -2.2095994903   -0.2059515572
 H   -1.7098731164   -0.4051343653    1.0254323826
 H   -2.1149316515    0.2200167742   -0.5687797810