21

 O    0.0267963837    1.4327815995   -0.1968467605
 C    0.0398206757    0.0200459238   -0.0383019278
 C    0.8077333313   -0.4206138979    1.2124964642
 C    0.8551952034   -1.9502827355    1.3030050303
 C   -0.5124194758   -2.5959885404    1.1661795432
 O   -1.3549421916   -2.4731974001    2.3397075293
 C   -2.5092051103   -2.2686345655    1.4964795694
 C   -1.6065257505   -1.9252908791    0.2917479973
 C   -1.4224634641   -0.4119990651    0.0668282830
 H    0.9391901249    1.7394621836   -0.1981470240
 H    0.5017068345   -0.4553968016   -0.9228870179
 H    1.8287275977   -0.0186522043    1.1884331007
 H    0.3131659783    0.0031174725    2.0940562545
 H    1.4935035438   -2.3442425095    0.5007385443
 H    1.3039157823   -2.2766395623    2.2481764323
 H   -0.3947937619   -3.6608498260    0.9115790764
 H   -3.0874376912   -3.1957704054    1.3741938171
 H   -3.1660337669   -1.4791278406    1.8772575352
 H   -1.8323791673   -2.4428142728   -0.6432192854
 H   -1.8489875692    0.1484930640    0.9069752018
 H   -1.9629162869   -0.0892937172   -0.8281687933