19

 C   -0.0447195449    1.5267200139   -0.3866808995
 C   -0.0189288010    0.0537999005   -0.0382292621
 C    1.2391804121   -0.7410084279   -0.1064634293
 N    0.5966448819   -0.4832956342    1.1831357098
 C    1.2729199502    0.4033021781    2.1044892193
 C    0.4128433269    0.9231142745    3.2763394111
 O    1.3122715714    0.3522399725    4.2479665400
 C    2.0745440140   -0.3090342735    3.2165034002
 H    0.9182424580    2.0159443346   -0.2224740599
 H   -0.2990199512    1.6494109644   -1.4447507133
 H   -0.8031718781    2.0600100481    0.1973394531
 H   -0.9454239594   -0.4643601873   -0.2821842394
 H    1.2376580670   -1.7744789314   -0.4426498239
 H    2.1529149235   -0.1923816236   -0.3356175228
 H    1.8535584735    1.1972105919    1.6154441400
 H    0.3258672961    2.0105716197    3.3849662036
 H   -0.5845211024    0.4671057155    3.3147098979
 H    1.9275494265   -1.3960474330    3.2228888732
 H    3.1439882160   -0.0783331529    3.2849459920