18

 C    0.5472742249    0.9858277771   -0.5817786831
 O   -0.3295283718    0.1915809227    0.1883933642
 C    0.2826821362   -0.5171417501    1.2468904862
 C   -0.8711816203   -1.0523534471    2.0920638450
 O   -0.7502202353   -1.4384673586    3.2243516157
 C    1.1729123329   -1.6584265190    0.7823587979
 C    2.6704333408   -1.4791035120    0.6711178636
 C    2.0927735257   -2.3263665171    1.7719021065
 H    1.2766039923    0.3821650237   -1.1368716169
 H   -0.0693199897    1.5404903718   -1.2930603694
 H    1.0969633131    1.7039889542    0.0463948661
 H    0.8739501599    0.1606307218    1.8867147198
 H   -1.8467262915   -1.0604143386    1.5577166622
 H    0.6981357432   -2.2971098752    0.0424583651
 H    3.1818515798   -1.9708621635   -0.1489366399
 H    3.0858067043   -0.5128029815    0.9388054065
 H    2.1034627354   -1.9362291302    2.7831754006
 H    2.2051376301   -3.4025750184    1.7114647998