19

 N    0.0648979101    1.4760352163    0.2991520499
 C    0.0866368349    0.1949118316    0.1418414117
 C   -1.2932532934   -0.4133816855    0.2170384169
 O   -1.5682797946   -1.5857348431    0.1617433254
 N    1.1696047217   -0.6089954031   -0.0439909977
 C    1.1702656917   -2.0538385940   -0.3379279654
 C    2.5926659972   -2.3043206353   -0.8559810892
 C    3.4361425096   -1.2808125110   -0.0821069125
 C    2.5218022158   -0.0500093123   -0.0248053815
 H    0.9959761204    1.8893387304    0.2550870276
 H   -2.0541062630    0.3797653840    0.3481969495
 H    0.9671316502   -2.6375486133    0.5682073937
 H    0.3997572783   -2.3101064504   -1.0640269093
 H    2.9135173578   -3.3365882471   -0.6997612407
 H    2.6412898651   -2.0964539721   -1.9305673972
 H    3.6351671403   -1.6442589388    0.9316418655
 H    4.3966065115   -1.0613530976   -0.5530187769
 H    2.6803454924    0.6119058540   -0.8898296279
 H    2.6803852641    0.5511508572    0.8789176083