16

 C   -0.4048641302    1.5543308440    0.0288725751
 C    0.1368113683    0.1431464728   -0.0515989259
 O    1.1834581659    0.0694379892   -1.0327657931
 C    2.1152697650   -0.8561218061   -0.6509015544
 N    3.1254747884   -1.2315412516   -1.3044202626
 N    1.7547418574   -1.3441205313    0.6041383002
 C    0.8088320477   -0.4384900556    1.2265332664
 C    1.4480721204    0.5832763874    2.0799471498
 N    1.9587732051    1.3624758280    2.7637655087
 H    0.3788572807    2.2601097969    0.3133737040
 H   -0.8083438387    1.8484993996   -0.9429400698
 H   -1.2115386518    1.6091040145    0.7662210659
 H   -0.6536836152   -0.5594270631   -0.3443498833
 H    3.1575996067   -0.7760357029   -2.2132413063
 H    2.5024548635   -1.7450345539    1.1503962760
 H    0.0744440167   -0.9748410777    1.8352378293