13

 C   -0.0799278572    1.5591473932   -0.0387599405
 C    0.0004220604    0.0511156939    0.0434655092
 C    1.3174862416   -0.6623003379   -0.2026996469
 C    0.7162432627   -0.6185492428    1.1812812615
 O    1.2813412635    0.2147479848    2.1534173855
 H    0.8020767743    2.0197998791    0.4114797185
 H   -0.1523541029    1.8922526098   -1.0796873201
 H   -0.9583608221    1.9356478057    0.4964317850
 H   -0.8861517353   -0.4693975316   -0.3091849587
 H    1.3238446372   -1.6008665689   -0.7466655673
 H    2.1861931456   -0.0331681303   -0.3706875835
 H    0.2850995100   -1.5402503498    1.5729163000
 H    2.1293166121   -0.1623438652    2.4089592972