15

 O   -0.2493412366    0.3679634412   -0.5785433764
 C    0.1142455052    1.1616975925    0.2559273703
 C    1.3336377734    1.9884798705    0.1294465571
 N    1.6425012566    3.1024706711    1.1879133822
 C    2.6132649104    3.4323716810    0.1279385837
 N    3.8155423918    3.0644206371    0.3232852286
 C    3.9918724832    1.8849043663   -0.5675100802
 C    2.5307516783    1.5002892727   -0.8694509997
 C    1.8159068979    2.7724198890   -1.0475936546
 H   -0.4538322768    1.3273637234    1.1961797100
 H    0.8147781335    3.7054452849    1.1079882199
 H    4.5470881109    2.0578099341   -1.5015381035
 H    4.5432062134    1.1461953913    0.0215809798
 H    2.2586843418    0.6116811939   -1.4308172151
 H    1.2630715571    3.1953268010   -1.8762814621