17

 C   -0.1547945910    1.3933231457    0.4669252960
 C   -0.0988356394   -0.0983948379    0.1158054974
 C   -1.4613630417   -0.6968173568   -0.1568610903
 C   -1.7173440635   -2.1760090048   -0.0164360858
 N   -2.2887361052   -1.2234151122    0.9129444141
 C   -2.1297372966   -1.1408499910    2.2681438708
 O   -1.8691792361   -0.1449210301    2.9036412081
 C   -2.4116779922   -2.4244990724    2.9457104754
 N   -2.5969170800   -3.4202000321    3.5023054024
 H    0.8530085446    1.7903906215    0.6175826842
 H   -0.6215579855    1.9689910119   -0.3397449957
 H   -0.7304871514    1.5505367339    1.3814586150
 H    0.5096084094   -0.2491887558   -0.7850437590
 H    0.3895826722   -0.6592699819    0.9209169248
 H   -2.0431835724   -0.1790034736   -0.9188054288
 H   -2.4200545391   -2.6752208273   -0.6771682589
 H   -0.9000102622   -2.7952426172    0.3456133504