19

 C   -0.1887289219    1.5344914578   -0.0132181907
 C    0.0150275066    0.0274989285   -0.0110856328
 C    1.2035223382   -0.5935143207   -0.8430123450
 C    2.1352123132   -0.2085901187    0.3520326016
 C    0.8576020389   -0.6189166737    1.1810750751
 C    0.7568198307   -2.1032853575    0.7730785796
 C    0.9836371060   -2.0805296982   -0.5423778094
 C    0.6611065712   -0.2410255361    2.5553307353
 C    0.4884703882    0.1002580395    3.6963038641
 H    0.7398530660    2.1016342557    0.0868889114
 H   -0.6708988999    1.8468610383   -0.9460721021
 H   -0.8452571021    1.8256948810    0.8137135125
 H   -0.9425019170   -0.4768685926   -0.1679195658
 H    1.4141944581   -0.2872805277   -1.8670727504
 H    3.0266446899   -0.8188049562    0.5075864354
 H    2.3778655514    0.8533409590    0.4201307798
 H    0.5372276794   -2.9194214255    1.4455425881
 H    1.0008307381   -2.8919653704   -1.2558480027
 H    0.3396851751    0.3953183174    4.7052750659