12

 N    0.1342906422    1.3602813475    0.1599651551
 C   -0.0381103381    0.0224158805    0.0538686168
 C   -1.1236136034   -0.7987215240    0.0178122212
 O   -0.6356410501   -2.1147874325   -0.0194168701
 C    0.7053299874   -2.0721332368   -0.0158762510
 O    1.4710669470   -2.9742452961   -0.0474850250
 O    1.0928196381   -0.7236364413    0.0318160793
 C   -2.5293661227   -0.5174505576    0.0065748403
 O   -3.4248078420   -1.3337853141   -0.0299207171
 H    1.0290825758    1.7188958177   -0.1369093731
 H   -0.6576704097    1.9507544174   -0.0359102803
 H   -2.7392269646    0.5788456592    0.0344763039