16

 O   -0.0619107039   -0.0803043712   -0.0292360381
 C   -0.0332478790    1.1283460303   -0.0324061320
 N   -1.1241186129    1.9835249881   -0.0913332190
 C   -0.7004976570    3.3366926851    0.2657166500
 C   -0.1074258022    3.3289817029    1.7104755438
 C    1.3296573651    2.9983050821    1.2704642902
 O    1.5836432883    4.1245208607    0.3723323116
 C    0.6705442869    3.4370467333   -0.5027054828
 C    1.1607568865    2.0663262807    0.0025309765
 H   -2.0340796421    1.6258705466    0.1636077863
 H   -1.4568492274    4.0860422407    0.0419378880
 H   -0.1230445425    4.3059678983    2.1971270608
 H   -0.5882017209    2.5850773575    2.3497926309
 H    2.1054451751    2.8275602160    2.0141570744
 H    0.6746508686    3.7615133570   -1.5417436284
 H    2.0953672473    1.6800063921   -0.3934546524