16

 C    0.1831404308    1.5069926658   -0.1308550227
 C   -0.0483829415    0.0347018022   -0.0259526787
 C   -1.2239171609   -0.6455471059    0.0033211190
 C   -2.5921838283   -0.0257038570   -0.0674785582
 N   -1.2231680195   -2.0276201315    0.1058394510
 C   -0.1031553013   -2.6600317826    0.1728303053
 C    1.2090240750   -2.0136670013    0.1484395577
 O    2.2843452654   -2.5441113590    0.2070305340
 O    1.1353318787   -0.6319064403    0.0447436350
 H    0.7834933913    1.7288250217   -1.0198561350
 H   -0.7488371234    2.0663928658   -0.1887369496
 H    0.7524466414    1.8587944338    0.7363686739
 H   -2.5665254243    1.0612646113   -0.1468599271
 H   -3.1385742310   -0.4199704242   -0.9306819724
 H   -3.1709014855   -0.2911678155    0.8234172551
 H   -0.1018804668   -3.7443295833    0.2532846128