18

 O   -0.0637962928    1.4417620328   -0.3258666060
 C    0.0198608479    0.0841146563    0.0942517234
 C   -1.3856090789   -0.4797158488    0.0646514909
 C   -1.9962204515   -0.8709933070   -1.2891466072
 N   -1.1452454833   -2.1631951196   -1.3684333379
 C   -2.3915718822   -2.9941699835   -1.6516310382
 C   -2.9240149041   -1.9670993305   -0.6550237994
 O   -4.1596341459   -1.8358241194   -0.0496997906
 C   -1.5797995139   -2.0030266810    0.1142923900
 H    0.8290083927    1.7956010886   -0.3715901016
 H    0.6681180440   -0.5050869990   -0.5682762110
 H    0.4240065968    0.0094194575    1.1174532027
 H   -2.0560454597    0.0890052103    0.7149193448
 H   -2.1672721198   -0.2699077448   -2.1834595476
 H   -2.7247125288   -2.9350740136   -2.6933841351
 H   -2.3052587819   -4.0359823021   -1.3265588802
 H   -4.8160971287   -1.6348884792   -0.7261065750
 H   -1.2628690996   -2.7345072570    0.8601141281