20

 C   -0.0072102762    1.6822720274   -0.0311289034
 C    0.0268991183    0.1511324589   -0.0918153564
 C   -1.3686148302   -0.4722128435   -0.0436143328
 O   -2.1925133853   -0.0099273146   -1.0990276551
 C   -1.4785342065   -2.0187151564    0.1073641895
 C   -0.2584940683   -2.9070505172    0.1532688347
 O   -2.0772513066   -1.8308396574    1.4465479007
 C   -2.0641029882   -0.4680001951    1.3121372971
 N   -2.5206108455    0.4463936550    2.0422534610
 H    1.0073907500    2.0902173000   -0.0347597716
 H   -0.5320923774    2.0943831124   -0.8981473816
 H   -0.5136980613    2.0266507946    0.8752424132
 H    0.5120830242   -0.1779339873   -1.0189744339
 H    0.6252510151   -0.2367728114    0.7399145156
 H   -2.5873719211    0.8212465585   -0.8118052121
 H   -2.2418479680   -2.4100031338   -0.5702555010
 H    0.4911733117   -2.5320124687    0.8540485410
 H   -0.5437383169   -3.9158955962    0.4658770327
 H    0.1938075575   -2.9762216031   -0.8412216732
 H   -2.9823680455    0.0736017679    2.8739847556