19

 O   -0.0703513714    0.0201934621   -0.2511280558
 C   -0.0277888805    1.2050588731   -0.0980721552
 O    1.1258678228    1.8981510225   -0.1016473471
 C    1.0327807690    3.3065620888    0.0912341528
 C    0.4741072713    4.1413396042   -1.0896951482
 C    1.7648056539    5.0189724008   -1.0662304773
 C    2.3370631610    4.1643553611    0.0982155528
 C    1.9743891926    4.6792066049    1.5184982775
 C    0.6858483094    3.7981031847    1.5200757155
 H   -0.9190333244    1.8423860449    0.0587297853
 H    0.3829391173    3.5450344416   -2.0004026380
 H   -0.4753724908    4.6519787697   -0.9077772120
 H    2.3450806142    4.9562347730   -1.9888111327
 H    1.6141502443    6.0747098141   -0.8273348843
 H    3.3232684176    3.7227869228   -0.0397814838
 H    2.6921259363    4.3939396957    2.2900457562
 H    1.8096247670    5.7574895094    1.5856344902
 H   -0.2696826368    4.3182867901    1.6283547655
 H    0.7279435969    2.9861448567    2.2496216587