23

 C    0.0411666678    1.3933685050    0.0762236461
 O    0.0078079646   -0.0109612371    0.1331078858
 C   -1.2843776983   -0.5401201713   -0.0712465131
 C   -1.1870815413   -2.0595316948   -0.0078276106
 C   -2.5449602320   -2.7762245928   -0.0502876988
 C   -3.3129456021   -2.5420038577   -1.3703598387
 C   -2.3576852671   -4.2890145382    0.1182478933
 C   -3.4552181213   -5.0295857937    0.8618482821
 O   -1.3926554824   -4.8625468946   -0.3317853004
 H    1.0752887699    1.7042717250    0.2441352500
 H   -0.2886346564    1.7729237581   -0.9044940330
 H   -0.5968218801    1.8510718289    0.8498004995
 H   -1.9779939428   -0.1634494144    0.7030935049
 H   -1.6796435124   -0.2040490840   -1.0444073070
 H   -0.5582806726   -2.4250509220   -0.8247299248
 H   -0.6665102826   -2.3216892664    0.9200526595
 H   -3.1749256243   -2.4187375276    0.7756632067
 H   -4.2477074707   -3.1112835349   -1.3990222580
 H   -3.5697972668   -1.4870913910   -1.4965447394
 H   -2.7029928886   -2.8531250859   -2.2242861337
 H   -4.4473611448   -4.7401944649    0.4998350860
 H   -3.3172259111   -6.1067993273    0.7614964977
 H   -3.4160551645   -4.7584434084    1.9240773558