21

 C   -0.0450750155    1.5296693536   -0.2221325360
 C    0.0375724286    0.0424737773    0.1504655791
 C    0.6481724557   -0.7803069265   -0.9811108306
 C    0.3545123063   -2.2350090998   -1.1350289541
 N   -0.1035486749   -1.2768707121   -2.1336098050
 C   -1.5352935084   -1.0512075215   -2.2470440275
 C    0.9470782111   -0.1356734768    1.3736203135
 N    0.4640363143   -0.9593179688    2.3505125522
 O    2.0275889353    0.4150260141    1.4611779923
 H    0.9618151373    1.9277522880   -0.3681947893
 H   -0.6183815696    1.6702972096   -1.1423578866
 H   -0.5234002239    2.1090203345    0.5734735454
 H   -0.9623815442   -0.3376566720    0.3847104202
 H    1.6468542320   -0.4344969779   -1.2429186109
 H    1.1232758958   -2.9357612965   -1.4503026612
 H   -0.3943063147   -2.6603373080   -0.4646774471
 H   -2.0934712164   -1.1232034302   -1.2996117646
 H   -1.7180289771   -0.0621346560   -2.6788463933
 H   -1.9494106822   -1.7985055941   -2.9315249432
 H   -0.3713515887   -1.5024078729    2.2236137566
 H    1.0772968393   -1.1934081041    3.1149132602