13

 O   -0.8672199572    1.1278289310    0.2354165591
 C    0.2590277978    0.8361937165   -0.0893221187
 C    1.4103806040    1.7820788225   -0.0547629397
 N    2.5857640666    1.2759440136   -0.4530281963
 C    3.6394330362    2.0909130174   -0.4363231665
 C    3.5724753578    3.4240138543   -0.0294375407
 C    2.3458237888    3.9384573463    0.3821503764
 C    1.2383528806    3.1006711588    0.3701376598
 H    0.5365427873   -0.1769544163   -0.4465762913
 H    4.5846468075    1.6637095589   -0.7625587270
 H    4.4650782542    4.0396629823   -0.0373131822
 H    2.2574522368    4.9704268623    0.7048754903
 H    0.2525084797    3.4300952624    0.6761728366