18

 C    0.2762868685    1.4252662809    0.2272812280
 C    0.0930660587   -0.0489647071    0.0559488556
 C    0.0479097737   -0.7647592047   -1.0982224963
 O   -0.1566688076   -2.0857226114   -0.8578082900
 C   -0.2379631486   -2.2305442953    0.4961895490
 C   -0.0947850597   -1.0206927635    1.1075708686
 N   -0.1979991368   -0.7066123995    2.4729088348
 C    0.2772686910   -1.6745708877    3.4517305229
 C    1.0266019689   -0.4078421405    3.2211121862
 H    1.2020863195    1.6614539866    0.7651270359
 H    0.3159554360    1.9324515315   -0.7405880908
 H   -0.5462261565    1.8591610807    0.8062710279
 H    0.1388231723   -0.4842890783   -2.1353911021
 H   -0.4292026904   -3.2262423944    0.8579819829
 H   -0.3446157775   -1.7937279634    4.3337419642
 H    0.7331222478   -2.5892740925    3.0790091253
 H    1.9729122023   -0.4841014055    2.6908422026
 H    0.9521782484    0.4129187541    3.9279227752