16

 C    0.0889512605    1.5213232137    0.2282749612
 N    1.5340802859    1.7799875114    0.1105463973
 C    2.0435261319    0.7200749606   -0.3719474603
 C    3.1896503545    0.0115064479    0.3185065790
 N    2.9130907786    0.0937156133    1.7759292918
 C    2.3891168212   -1.0452030123    1.0014340170
 C    0.9858101127   -1.0629297846    0.3585583821
 C   -0.0218900893    0.0209882383   -0.0420844567
 N    1.1203012354   -0.2960194690   -0.9079541027
 H   -0.2261928485    1.8437490357    1.2256315860
 H   -0.5141255263    2.0714526224   -0.5077093641
 H    4.1873451171   -0.1349050797   -0.0729119742
 H    3.7358593132   -0.2224884941    2.2891552397
 H    2.7989970972   -2.0328631608    1.1860323177
 H    0.5967645265   -2.0737390956    0.2431918136
 H   -0.9900096705   -0.3616474073   -0.3594521073