12

 C   -0.0756098947    1.4464581044   -0.0018145114
 C    0.0229881988   -0.0519525184    0.0499951566
 O    0.1235667688   -0.6983334693    1.0643762224
 C    0.0141058958   -0.8423359873   -1.2936399973
 O    0.1697781218   -2.2038526199   -1.0553221205
 C   -1.2359552279   -0.5452445123   -2.0235087663
 N   -2.2132122962   -0.2860529948   -2.5829984260
 H    0.7332750988    1.8562084045   -0.6169631895
 H   -1.0175930803    1.7421331786   -0.4752155300
 H   -0.0195749683    1.8571685697    1.0062823104
 H    0.8472633515   -0.4609226749   -1.9055493234
 H    0.1279163318   -2.2946447102   -0.0865499251