19

 C   -0.0426894204    1.5089566218    0.0509894843
 C   -0.0330953087    0.0008189349    0.0861304547
 C   -1.2561938409   -0.7175919430   -0.4882878704
 C   -1.4532308641   -2.0815956405    0.1899952447
 C   -0.1672402471   -2.9362696293    0.2067295409
 C    0.1020051693   -2.1020347644    1.4715175714
 O   -1.3363976440   -1.8976648456    1.6336966436
 C    0.7127048184   -0.7475620946    1.1126562319
 O    1.2392742447   -0.6039274869   -0.2163421888
 H    0.8921602553    1.9072168029    0.4531966308
 H   -0.1536476293    1.8712549331   -0.9774250592
 H   -0.8767262146    1.9060592568    0.6386999256
 H   -2.1435695768   -0.1038753262   -0.2984748927
 H   -1.1596151626   -0.8275345835   -1.5754965568
 H   -2.4000672139   -2.5511832943   -0.0889495759
 H   -0.3808115961   -3.9768537160    0.4539278354
 H    0.5325137342   -2.8554283520   -0.6226603390
 H    0.5525968520   -2.5664693055    2.3511540150
 H    1.2703208147   -0.2168111076    1.8825439044