17

 O   -0.0776248401    1.3932873355    0.0156698842
 C   -0.0034907000    0.0203961894    0.0575337241
 C   -0.8853353665   -0.8027493209    0.9226746049
 C    0.6257743390   -0.9630136420    1.0501892491
 C    1.2784554783   -1.7133247268   -0.1545743456
 O    2.6125641770   -2.0816429524   -0.1413836873
 C    0.3071918896   -2.2143208811   -1.2181794108
 C    0.6713970075   -0.7501952581   -1.1223839540
 O    1.2524298408    0.0027659308   -2.1344359818
 H    0.5862568335    1.6788025484   -0.6259159359
 H   -1.3107347565   -0.2330536224    1.7452045500
 H   -1.5420863193   -1.5855784645    0.5549564174
 H    1.1531693002   -0.7933815241    1.9803182400
 H    2.6826747436   -2.9795919421    0.2022651080
 H    0.8251973515   -2.7100171800   -2.0356738156
 H   -0.6807655124   -2.6116201781   -1.0102611753
 H    2.2068334139   -0.1289718917   -2.0893130113