23

 C    0.2470611974    1.5627530144    0.1945188930
 C    0.0233334871    0.0483694545    0.0290216923
 C    0.6689164489   -0.6865905791    1.2195262660
 C   -1.4910117946   -0.2359251397    0.0155990169
 C    0.6344710826   -0.5065665720   -1.2751286850
 C    0.2476629266    0.1218529356   -2.6553504569
 C    1.7330954228    0.0491272650   -3.0381356358
 O    2.3269470646    0.1279626487   -4.0740392004
 C    2.1487567852   -0.2747951466   -1.5956985382
 H    1.3098433066    1.8211657302    0.2334915648
 H   -0.2122014722    2.1387379668   -0.6148763305
 H   -0.2034165155    1.9066575129    1.1314492867
 H    0.2372521020   -0.3487122492    2.1678316555
 H    0.5129300362   -1.7687765664    1.1488049869
 H    1.7482694246   -0.5061716177    1.2625597238
 H   -1.9855465447    0.2728824224   -0.8186407380
 H   -1.6918810322   -1.3087464748   -0.0801387725
 H   -1.9616891318    0.1100938243    0.9421586206
 H    0.4269245440   -1.5817625654   -1.3052408726
 H   -0.4459253608   -0.4237230708   -3.2997993979
 H   -0.0897464559    1.1618160482   -2.5877045924
 H    2.5744280629    0.6059536218   -1.1027184444
 H    2.8418973660   -1.1097065231   -1.4672003617