18

 C    0.1765218256    1.0782137503   -0.3078298791
 O   -0.0136878511   -0.2138661798    0.2267673824
 C   -1.3498019919   -0.6201710686    0.2202338953
 C   -1.9723397200   -1.0713300580   -1.1462612801
 C   -2.2123456636   -2.4898568128   -0.5567173473
 N   -1.3000525615   -3.5127152480   -1.0892761595
 C   -0.3577288179   -3.6039120172   -0.2456173235
 O   -0.3725462969   -2.8517282354    0.8854551448
 C   -1.5605954701   -2.0488059658    0.7923314767
 H    1.2440820122    1.2997726285   -0.2432261356
 H   -0.1347749913    1.1392789674   -1.3611071599
 H   -0.3819646791    1.8373876235    0.2620630197
 H   -1.9831194155    0.1165804285    0.7404582618
 H   -2.8706741184   -0.5278788499   -1.4482034615
 H   -1.2584695772   -1.0813607376   -1.9726352361
 H   -3.2432377785   -2.8483431959   -0.5579119092
 H    0.4999560253   -4.2619993831   -0.3276822305
 H   -2.0988448703   -2.1212845163    1.7382544616