19

 C    0.5714675706    1.4598960526   -0.4354779851
 C   -0.0753337931    0.1940660052    0.0784606970
 C    0.7206071292   -1.0363934759    0.3319983632
 N    0.1318030680   -0.2934557929    1.4513835771
 C    0.9660506456    0.4535020080    2.4063055154
 C    0.6568415375   -0.1103411339    3.8129963905
 O    0.8493869902   -1.5001787494    3.8673966812
 C    2.4122203913    0.4116670450    2.1328574770
 N    3.5430415288    0.3769850155    1.8936235744
 H    1.6281139929    1.5258449820   -0.1658934641
 H    0.5028554668    1.4898581375   -1.5276155156
 H    0.0590410268    2.3497390053   -0.0521546032
 H   -1.1084403479    0.0657084913   -0.2417628575
 H    0.2974467730   -2.0219782017    0.1579170857
 H    1.7966147715   -0.9709132513    0.1882826839
 H    0.6613196861    1.5076236257    2.3907731515
 H    1.3217743206    0.3409622054    4.5551483575
 H   -0.3787793543    0.1733642217    4.0513612224
 H    0.2535517964   -1.8762577400    3.2077418687