20

 C    0.0690376833    1.5783338416   -0.0332926193
 C   -0.0014157511    0.0474071345    0.0173342390
 O    0.7109977965   -0.3400394917    1.1946363859
 C   -1.4515316319   -0.4261849158    0.0298944744
 C   -1.8993973582   -1.6588472944    0.7747554385
 C   -2.3022336136   -0.2863194939    1.2604609479
 C    0.6860309531   -0.4933303330   -1.2632303191
 N    1.9344315591   -0.9981547112   -1.0608620858
 O    0.1416249556   -0.4492797385   -2.3501328642
 H    1.1100773953    1.9144897576   -0.0230140611
 H   -0.4077509520    1.9402177475   -0.9465832667
 H   -0.4437288376    2.0005893103    0.8342136982
 H    0.6052976743   -1.2926826053    1.2978436845
 H   -1.9302512438   -0.2616303068   -0.9283498890
 H   -2.6420860710   -2.2905278667    0.3009472193
 H   -1.1935166687   -2.2120127680    1.3877990844
 H   -1.8149692830    0.0702703695    2.1616359837
 H   -3.3336222367    0.0280681253    1.1474021792
 H    2.3854009212   -0.8459330480   -0.1742251439
 H    2.4858734691   -1.2334358732   -1.8700087661