17

 O   -0.1527988005    1.2314906621    0.3372606966
 C   -0.6445085287   -0.0739119428    0.6260037315
 C   -1.4622779117   -0.6009135415   -0.5574233285
 O   -0.7272347886   -0.4516107817   -1.7541622653
 C   -1.8533111788   -2.0662072710   -0.4112143243
 O   -0.8312724894   -2.9447283897    0.1278943920
 C   -1.6639918314   -3.4251739722    1.2039717680
 C   -2.7675615594   -2.4581361232    0.7598568239
 O   -3.8389990157   -2.1203752213    1.1600604567
 H   -0.8923043982    1.8476894117    0.3804142301
 H    0.2351092246   -0.7069724322    0.7614297894
 H   -1.2356907097   -0.0898180765    1.5525542267
 H   -2.4148839747   -0.0391896476   -0.6136477764
 H   -0.2127130977    0.3596432168   -1.6417822516
 H   -2.2154558326   -2.4266119885   -1.3839511251
 H   -1.9164853941   -4.4890591073    1.1084693014
 H   -1.2359790334   -3.2396187449    2.1967806748