16

 N   -0.3314195272    1.1296452048   -0.3417449187
 C   -0.1461262412   -0.0683905871   -0.0241613787
 O    0.9513944510   -0.7138151793    0.4923830268
 C    0.2181654125   -1.9767414063    0.5894980111
 C   -1.0235839948   -1.3121210257   -0.0418916009
 N   -2.1888015431   -1.2319941364    0.8205012436
 C   -3.2178934395   -0.3360085348    0.2849789972
 C   -4.3609359213   -0.2635098836    1.1967722308
 N   -5.2741320873   -0.2260220062    1.9028151698
 H    0.4922252119    1.7056960600   -0.1606985759
 H    0.7079818111   -2.7591839286    0.0068393548
 H    0.0918247465   -2.2747835940    1.6321991016
 H   -1.2377658850   -1.6582999156   -1.0663938495
 H   -2.5820294013   -2.1591176156    0.9527547335
 H   -2.7799998361    0.6614648799    0.1718912900
 H   -3.5917480762   -0.6326365415   -0.7112911656