18

 N   -0.0454911925    1.2266013504    0.3513742415
 C   -0.0055934734    0.0143414598    0.0003695577
 O    1.1349037563   -0.6336933172   -0.4034269350
 C    0.8621743153   -1.9419043025   -0.9511533727
 C   -0.5941876274   -2.2701055675   -0.5998871174
 C   -0.9129735094   -2.9880678152    0.7275013511
 C   -0.2476251244   -2.3141542776    1.8970063632
 C   -1.4808075294   -1.6913089916    1.3095286174
 C   -1.1633287137   -0.9489388101   -0.0110752673
 H    0.8805111631    1.6517248302    0.2745610814
 H    1.0275364154   -1.8967451883   -2.0335386816
 H    1.5816100179   -2.6411157548   -0.5152886820
 H   -1.1498985934   -2.6724111731   -1.4469137913
 H   -1.3060628970   -3.9948720463    0.7976919490
 H   -0.4058570169   -2.8104140376    2.8491487913
 H    0.7250637390   -1.8391329721    1.8078437565
 H   -2.3788347551   -1.5310224472    1.8916541236
 H   -2.0407011945   -0.5312062294   -0.5021299652