20

 C    0.2010515356    1.5482866425    0.0780039946
 C    0.1088559613    0.0357945870   -0.0254467324
 C    0.8399709145   -0.5822318747   -1.2436694131
 C    1.2935652795   -1.9514486795   -0.7233264300
 C    2.8012685909   -2.2371781695   -0.5463217744
 N    3.3784250385   -1.0375340436    0.0959887921
 C    2.7128983316   -2.0625040686    0.9329365284
 C    1.1947904178   -1.8185643288    0.8313330653
 O    0.7145638578   -0.5378107081    1.1432637068
 H    1.2499951096    1.8559671583    0.1184246409
 H   -0.2741140148    2.0203656396   -0.7880621737
 H   -0.3007573776    1.9051648614    0.9819189845
 H   -0.9527876869   -0.2645000865   -0.0526440871
 H    0.1817087806   -0.6462207833   -2.1140132413
 H    1.7053425836    0.0335422053   -1.4991259493
 H    0.7395160573   -2.7964237604   -1.1340764305
 H    3.4163422498   -2.9116988683   -1.1290092952
 H    4.3818009289   -1.1931422144    0.1837869540
 H    3.2502890624   -2.5580490430    1.7318580283
 H    0.6136310896   -2.6066587855    1.3262737219