20

 C   -0.2426138371    1.4321596314   -0.2133401720
 C    1.2152252106    1.2857348354    0.1412531761
 C    0.3413028928    0.0595942113    0.0235227401
 C   -0.0355857402   -0.7131483316    1.2543092399
 C   -1.0786969538   -1.8396784650    1.1676944659
 C   -0.0860578676   -2.8864813282    0.5713381211
 C   -0.4552171886   -3.8477185824    1.6933564974
 N   -0.5051499538   -2.5191477360    2.4425705965
 C    0.7016333582   -2.0172776837    1.6012913615
 H   -0.9103479982    1.8330491898    0.5423554126
 H   -0.5012678142    1.7135828370   -1.2280557478
 H    1.9549090750    1.4668900646   -0.6306264766
 H    1.5279589129    1.5881345184    1.1354410806
 H    0.4964705599   -0.5471671114   -0.8650383424
 H   -0.1803763848   -0.0537713851    2.1189147422
 H   -2.1586444469   -1.7864764014    1.0129768809
 H    0.1509067254   -3.0786467300   -0.4803293552
 H   -1.4239749322   -4.3563512813    1.6432078066
 H    0.3159725085   -4.5299186723    2.0669641978
 H    1.7220731441   -2.1736064594    1.9581078349