13

 O    0.0277003189    1.3762832646    0.0091675694
 C   -0.0186348881   -0.0240943415    0.0020970034
 C   -1.4721386479   -0.4729963812    0.0113203799
 O   -2.4112588807    0.2880665340    0.0231538153
 C   -1.6912954541   -1.9352679969    0.0057835003
 C   -2.8706644447   -2.6254711249    0.0118853277
 O   -2.6272992934   -3.9177366738    0.0040650180
 N   -1.1664019319   -4.0474486519   -0.0096096889
 N   -0.6964334099   -2.8930027824   -0.0069785443
 H    0.9516196105    1.6422055899    0.0028382898
 H    0.4617264458   -0.4713448735   -0.8848118798
 H    0.4758159967   -0.4807037384    0.8764059437
 H   -3.8966594411   -2.2949395540    0.0219738854