22

 C    0.4394879086    1.3789661200    0.2678857553
 C   -0.0704708667   -0.0695180450    0.1554411459
 C    0.2114781909   -0.8210416949    1.4712734875
 C   -1.5933593155   -0.0473814936   -0.0837603325
 C    0.5668138060   -0.7897783592   -1.0621352044
 C    2.1014618123   -0.7316819048   -1.1959331128
 O    2.8202413048   -1.3346201781   -0.1339771404
 C    2.5057579406   -1.3234392095   -2.4916512103
 N    2.8092312837   -1.8158959364   -3.4921521169
 H    1.4996303605    1.4203213165    0.5371656750
 H    0.3024734640    1.9269872107   -0.6714609326
 H   -0.1120332790    1.9159657062    1.0464427793
 H   -0.3037363106   -0.3316403295    2.3048826626
 H   -0.1558067051   -1.8529107232    1.4202524035
 H    1.2788929891   -0.8502720136    1.6971397246
 H   -1.8495182425    0.5268515778   -0.9808256341
 H   -1.9907625522   -1.0606362093   -0.2093941319
 H   -2.1107438928    0.4100864293    0.7659971845
 H    0.2605216942   -1.8447122645   -1.0651765353
 H    0.1569283951   -0.3552088812   -1.9825896258
 H    2.4293553860    0.3126645528   -1.2014821488
 H    2.5665251587   -2.2639765005   -0.0880905822