20

 C   -0.0272613145    1.4147487945   -0.1437850077
 O   -0.0415526152    0.0066027731   -0.2012526370
 C   -1.3018820758   -0.5467457949    0.1099343549
 C   -1.1944853533   -2.0573504772    0.0191169199
 C   -2.5316938976   -2.8504720678    0.0836071122
 C   -2.1701420184   -3.3407296382   -1.3395028722
 O   -2.6514146013   -4.0810403017   -2.1576803363
 N   -1.0202775088   -2.5909620149   -1.3376989278
 C    0.0635898212   -2.5004787864   -2.2838930285
 H    0.9840604101    1.7420571678   -0.3957597506
 H   -0.7354253641    1.8597626995   -0.8599385550
 H   -0.2804481033    1.7823411520    0.8629213228
 H   -1.6146245669   -0.2583092039    1.1287022105
 H   -2.0722929703   -0.1834162629   -0.5914183040
 H   -0.4233205200   -2.4109299585    0.7148882070
 H   -2.5763856600   -3.6390811859    0.8361253518
 H   -3.4368152273   -2.2409288628    0.1357851592
 H   -0.2303451409   -3.0594162935   -3.1755435595
 H    0.2664294350   -1.4602925309   -2.5527413783
 H    0.9855481315   -2.9377489175   -1.8799064415