17

 C   -0.0653891683    1.4202814817    0.0573115281
 N   -0.0106624905   -0.0311446756    0.0796691141
 C   -1.0971862290   -0.6698156087    0.0960954411
 N   -1.2351986155   -2.0571461550    0.1030534085
 C   -2.6035261615   -2.3473751341   -0.0380734032
 O   -3.0469749296   -3.6169483454   -0.1909799497
 C   -3.2897949469   -1.2019064656    0.0064307221
 C   -4.7326001371   -0.8774949146   -0.0028142414
 O   -2.3742275490   -0.1455669236    0.1045807041
 H    0.8652444751    1.8049769683   -0.3700293596
 H   -0.9063043636    1.8170568118   -0.5274751764
 H   -0.1509625087    1.8304318027    1.0733353408
 H   -0.5146918220   -2.6172234264   -0.3251841152
 H   -2.7526228451   -4.1488547124    0.5598932163
 H   -5.0301804288   -0.3378300981    0.9040788763
 H   -4.9987886819   -0.2487642258   -0.8607043970
 H   -5.3095315876   -1.8032206992   -0.0625384588