17

 O    0.1021455969    1.1722312869    0.7784157773
 C    0.0862871821   -0.0573847589    0.1105851224
 C    0.9557017041   -0.1521660688   -1.0991860738
 C    1.3174614694   -0.9247814671    0.1565747759
 C   -1.2759835367   -0.7158036769    0.1172251185
 C   -2.2052360309   -0.5353561444   -1.0152146301
 O   -1.4797555608   -1.7550066859   -0.8492113796
 C   -1.8021221653   -0.9606115749    1.4427953404
 C   -2.1830887510   -1.1231592002    2.5717462502
 H   -0.0828979108    0.9976211000    1.7095810678
 H    0.5901438289   -0.7184335039   -1.9472901201
 H    1.5395166240    0.7297315028   -1.3347606131
 H    2.1472589788   -0.5588313125    0.7502662250
 H    1.1896297295   -2.0013688312    0.1419614677
 H   -3.2770829113   -0.6059654112   -0.8443267324
 H   -1.8889573132    0.0891335167   -1.8483516821
 H   -2.5423868439   -1.2828517202    3.5586647559