20

 O    0.0197041901   -0.1303165873   -0.2509247503
 C   -0.0063186160    1.0455946955    0.0084724847
 C    1.1885152846    1.9570486091    0.0172521388
 C    0.9490371714    3.2836660063   -0.7799518515
 C    0.6674858887    4.0220908675    0.5522945506
 C    1.2832009151    2.8245233151    1.3179050394
 N    1.3376387885    5.2943602326    0.7240240595
 C    0.5773016712    6.4813185097    0.3343420791
 C    0.8059790112    6.1670423875    1.7702536588
 H   -0.9697503047    1.5487583851    0.2703044541
 H    2.0728599029    1.3775897557   -0.2503032969
 H    1.8769341595    3.6393028592   -1.2323154690
 H    0.1595550502    3.2808485667   -1.5357795865
 H   -0.4174081864    4.0987682507    0.7418935397
 H    0.7552662830    2.4623703161    2.2037268553
 H    2.3246354348    3.0241457419    1.5780361076
 H    1.1463226062    7.2645335705   -0.1574696094
 H   -0.4303711673    6.3373667935   -0.0523693767
 H   -0.0486578576    5.8127656438    2.3444988242
 H    1.5449305647    6.7167159909    2.3454914185