19

 C    0.0118013945    1.4998602003    0.0500451640
 C   -0.0351551983    0.0095390323   -0.0354861982
 C   -0.0608151904   -0.7638975660   -1.1269035585
 C   -0.0279031173   -2.2184298931   -0.7920342026
 C    1.2415147696   -2.6774175885   -0.0756853514
 C    0.0351277650   -2.2775627941    0.7207026291
 O   -0.5440070445   -3.2962965847    1.4740682514
 C   -0.0448606151   -0.8378193067    1.2360755687
 O    0.9473909583   -0.4760587763    2.1860349846
 H    0.8671335767    1.8248661875    0.6531734128
 H    0.0827102274    1.9618050838   -0.9382583308
 H   -0.8824773760    1.8950435282    0.5500832277
 H   -0.0608682931   -0.3960305736   -2.1482735275
 H   -0.5862457090   -2.9478777755   -1.3673823148
 H    1.4459958450   -3.7426118117   -0.0728283538
 H    2.1163011384   -2.0356401828   -0.1259346874
 H   -1.4896057619   -3.1211202159    1.5370451137
 H   -0.9933742895   -0.6984638687    1.7776877051
 H    1.7981440602   -0.7633979745    1.8355760678