16

 O   -0.0936079350    1.4134674942   -0.0178823942
 C   -0.0863457307    0.0308390458    0.0415599211
 C   -0.4562088666   -0.7578878832    1.2535091207
 C   -1.5770423054   -0.0623822719    2.0174429135
 O   -1.1522764438    1.1792842245    2.5650071647
 C   -2.4758453012   -0.0415025980    0.7353112144
 C   -1.3683145935   -0.7926477654   -0.0178295900
 C   -1.5661586878   -1.8564729447   -0.9415039361
 N   -1.7306818390   -2.7214652711   -1.6941734761
 H   -0.3165838495    1.7442112857    0.8648281937
 H    0.7193939058   -0.4019057200   -0.5456599264
 H    0.1730773140   -1.5441465240    1.6516776168
 H   -2.0057356803   -0.7013832288    2.7964830618
 H   -1.9053167460    1.6108669394    2.9827210633
 H   -3.3957017193   -0.6152001910    0.8508321270
 H   -2.6995913417    0.9486707286    0.3309289060