14

 C    0.0246356578    1.4423473920    0.0491317763
 N   -0.0803054237   -0.0030247177    0.1013296982
 C   -1.2505510233   -0.6566391726   -0.0924313625
 O   -2.3261315475   -0.1318450430   -0.3262582293
 C   -1.1532472713   -2.1449228861    0.0003117918
 N   -0.0538498743   -2.8072625570    0.2452360205
 O   -0.3996080293   -4.1222905670    0.2438407915
 N   -1.7394702283   -4.2840190535   -0.0065490697
 C   -2.2133369538   -3.0804658650   -0.1577089342
 H    0.7117099043    1.7590602452   -0.7426626222
 H   -0.9692389805    1.8385136850   -0.1608150156
 H    0.3777160006    1.8460473006    1.0038984657
 H    0.7414258669   -0.5577110529    0.2867632467
 H   -3.2536479876   -2.8931716879   -0.3676597773