19

 C    0.0724770880    1.4517109007   -0.0367475178
 C    0.0616863517   -0.0035583139   -0.0331100981
 C    0.0619507242   -1.2069718484   -0.0347083500
 C    0.0276802163   -2.6631275067    0.0007531846
 C   -1.3947268542   -3.2259538646    0.0579344971
 O    0.6904077562   -3.1465798797   -1.2032742154
 C    1.3425378795   -4.3243163560   -1.0959603014
 C    1.9932188724   -4.6860971014   -2.4097455431
 O    1.3923950756   -4.9826749012   -0.0867320741
 H    0.6579780226    1.8488194956    0.7995698585
 H    0.5125422863    1.8374232875   -0.9628379839
 H   -0.9417613739    1.8579515586    0.0422425841
 H    0.5981060377   -3.0392351497    0.8554399989
 H   -1.3570560563   -4.3162268721    0.1156724824
 H   -1.9088951169   -2.8442043615    0.9439388902
 H   -1.9577199505   -2.9251224636   -0.8290667392
 H    2.7105774790   -3.9117401690   -2.6957739280
 H    2.4990673964   -5.6457911394   -2.3119116851
 H    1.2392762662   -4.7376220152   -3.2000939798