18

 C    0.0513886222    1.5369244517    0.2846265790
 O    1.4529111952    1.4469133967   -0.1512928181
 C    1.0931106918    0.2798347807   -0.9161284584
 C    1.6641388414   -1.1249843367   -1.1209802671
 C    0.3022397856   -1.6662929222   -1.6451467460
 C   -0.8540300121   -0.8770464431   -1.0491385251
 C   -0.1381125977    0.0290299299   -0.0656752344
 N   -0.3952977621   -0.6153359739   -2.4343195942
 C    0.4923815361    0.5573592270   -2.3149844100
 H   -0.0142600068    1.7966098069    1.3436012034
 H   -0.5089852344    2.2610256125   -0.3144527210
 H    2.4535312309   -1.2189007458   -1.8723108317
 H    1.9799080510   -1.6099166461   -0.1943765545
 H    0.1976118002   -2.6880578951   -1.9900204913
 H   -1.8440411430   -1.2993506074   -0.9273534757
 H    0.1207354967   -0.5414707827    0.8313882382
 H   -0.0870977817    1.4809059344   -2.3743977604
 H    1.2422984768    0.5559725232   -3.1115603025