18

 C   -0.0218445783    1.5879116528   -0.0981230565
 C   -0.0063809857    0.0742013650   -0.0748030095
 C   -1.2546409823   -0.5839097043    0.4947399367
 O   -1.4807885741   -0.2881935190    1.8649264033
 C    0.6267210902   -0.7656090397   -1.1801767675
 C    1.9320472596   -0.1345219675   -1.6497661744
 O    2.4149836266   -0.0139268538   -0.2840742994
 C    1.2535289283   -0.6966382956    0.1975758104
 H    0.9622990745    1.9892290166   -0.3466592469
 H   -0.7514016278    1.9719523734   -0.8204908842
 H   -0.2811360648    1.9848697431    0.8903292896
 H   -2.1275094827   -0.3098719192   -0.1193997817
 H   -1.1554294118   -1.6739664949    0.4429903189
 H   -1.7384664510    0.6357549357    1.9328638890
 H    0.1024856125   -1.5702864960   -1.6799436675
 H    2.5655536196   -0.8265192214   -2.2157151649
 H    1.8868923600    0.8310139018   -2.1669901872
 H    1.3851274371   -1.4196227971    0.9949848919