16

 N   -0.1046482415    1.4626600624    0.0378539068
 C    0.0442458011    0.0616734076    0.0126264618
 C    0.1389677619   -1.0701923614   -0.9895960685
 O    1.2674511664   -1.6982986750   -0.3762932141
 C    0.9210952659   -0.9847492602    0.8367626843
 C   -0.3967194425   -1.6694949773    1.3040021459
 O   -0.9707606784   -1.1241443728    2.4772275959
 C   -0.9952499311   -1.0781892291    0.0337852371
 O   -2.3168994824   -1.0460427754   -0.3395689431
 H    0.5244999730    1.9402663545   -0.5995125807
 H   -1.0548024401    1.7353622677   -0.1899132318
 H   -0.0031202704   -1.1336099207   -2.0612997570
 H    1.7506961204   -0.8047687669    1.5184896011
 H   -0.3765202221   -2.7548734823    1.4370498911
 H   -0.8559413478   -0.1651692869    2.4445553149
 H   -2.8307151823   -0.8738152541    0.4602993464