19

 C   -0.1091420378    1.5413910027   -0.0414782602
 C    0.0421849007    0.0259286380    0.0148085998
 O    0.7459972035   -0.4086433137   -1.1631664982
 C    1.8301435508   -1.2675385719   -0.8426330276
 O    2.8090588045   -0.5430259770   -0.1075142070
 C    2.2790629658   -0.0919146729    1.1421439251
 C    0.7986157201   -0.5227623934    1.2566305504
 C    0.7828479129   -2.0283305508    1.1300337416
 C    1.3387672599   -2.4331856235   -0.0114480565
 H    0.8608416515    2.0452332828   -0.0444544863
 H   -0.6321964369    1.8224197111   -0.9596643973
 H   -0.6945042292    1.9026855211    0.8107230213
 H   -0.9586782154   -0.4297862102   -0.0016001452
 H    2.2970928139   -1.5445751178   -1.7871484572
 H    2.8676253347   -0.5224494123    1.9624518227
 H    2.3786794198    0.9985438527    1.1853601946
 H    0.3522432502   -0.1528530375    2.1817155180
 H    0.3665655136   -2.6759580126    1.8930100916
 H    1.4547922075   -3.4584613948   -0.3406237996