18

 C   -0.0208397671    1.4561822287   -0.0310017876
 N   -0.1125352883    0.0140535239    0.0912980230
 C    0.5875998964   -0.6731772375    1.0666176117
 C    1.2183346007   -0.0438066300    2.1458421070
 N    1.8522893150   -0.7179838867    3.1079305364
 C    1.8662604860   -2.0409906991    2.9875742896
 N    1.3097389996   -2.7522014859    2.0031477922
 C    0.6711062386   -2.0852951407    1.0450052839
 C    0.0339880661   -2.8820948916   -0.0599293796
 H    1.0116913612    1.8190918600   -0.1495619996
 H   -0.6008066499    1.7717467535   -0.9005605266
 H   -0.4512596550    1.9451683686    0.8495594726
 H   -0.2156034410   -0.4779776520   -0.7812230237
 H    1.2100862945    1.0382443150    2.2409457260
 H    2.3803971884   -2.6024819374    3.7628576173
 H   -1.0378061789   -2.6633177664   -0.1411752514
 H    0.4855298529   -2.6549830859   -1.0356338736
 H    0.1675602307   -3.9456603965    0.1386819825