24

 C    1.7849759875    0.2634788053   -1.1117654886
 C    1.7724121925   -0.9037182598   -0.1440937461
 C    2.9761798170   -1.2264361614    0.6844773018
 N    1.7316629407   -0.8178045751    1.3079265847
 C    1.5523787399    0.3806225548    2.1481558386
 C    2.5466023555    1.5410802567    1.9525885444
 C    0.1108930743    0.8743005169    1.9576846184
 C    1.7124960546   -0.1727124351    3.5812884036
 O    1.5170447146    0.8787626987    4.5175573482
 H    2.4999962766    1.0383692837   -0.8303082870
 H    2.0652192501   -0.1007290154   -2.1067588453
 H    0.7958194659    0.7244785880   -1.2021434358
 H    1.1841284958   -1.7438354835   -0.5166089012
 H    3.2895420983   -2.2542013264    0.8593756274
 H    3.7988002219   -0.5146690919    0.6239138016
 H    2.3904451386    2.0656675738    1.0076988280
 H    2.4136671575    2.2592112956    2.7650828133
 H    3.5840466027    1.1941280838    1.9917339796
 H   -0.5862974272    0.0340330351    2.0274287783
 H   -0.1400426966    1.6026125018    2.7321873369
 H   -0.0197798585    1.3482080426    0.9809208271
 H    0.9804151382   -0.9794701416    3.7209244616
 H    2.7181211010   -0.6108596854    3.6818146189
 H    1.5684967890    0.5060313988    5.4016380319