18

 O    0.8441683398   -0.6546046438    0.4042020065
 C    0.3339552262    0.4373936590    0.2810464702
 N    0.9882057982    1.5794427847   -0.0748858219
 C    2.3992858295    1.6387341550   -0.3567710194
 C    2.8735872449    2.2516632521   -1.7005730174
 C    4.0772165770    2.9009870459   -0.9330293633
 C    3.2744150080    2.6756103229    0.3952099452
 C    5.3121354056    2.1444843361   -1.0161948671
 C    6.3291864116    1.5059448919   -1.0814560957
 H   -0.7457189527    0.6228035655    0.4500130129
 H    0.4470075505    2.4278815570   -0.1429843451
 H    2.7824830282    0.6265844700   -0.2253126077
 H    3.1060598302    1.5690050656   -2.5186963201
 H    2.1842567674    3.0236875908   -2.0567001304
 H    4.2663895597    3.9485401951   -1.1811156851
 H    2.7028615580    3.5722044472    0.6549551452
 H    3.8305678943    2.3352793880    1.2694285114
 H    7.2302407936    0.9473804069   -1.1407213582