18

 C    0.0005931067    1.4755977560   -0.1673406611
 C    0.0018639378   -0.0536930375    0.0185721877
 C    0.7481165145   -0.4512287837    1.2170971895
 C    1.3405594677   -0.7986240903    2.2053362887
 C   -1.4145222274   -0.6205516352    0.0700966127
 C   -2.0631741884   -1.1566958384   -1.1902079129
 C   -1.6155712464   -2.1030544629   -0.1146711076
 O   -0.5067453675   -2.9035675862   -0.4056152191
 H    1.0207902643    1.8622381665   -0.2364080144
 H   -0.5372608352    1.7390249547   -1.0826637095
 H   -0.4924336897    1.9683990704    0.6759788058
 H    0.5085435867   -0.5054992771   -0.8424109327
 H    1.8739404448   -1.0903365392    3.0761100228
 H   -2.0609877307   -0.1296810358    0.7928288711
 H   -3.1254969343   -1.0019483670   -1.3414058375
 H   -1.4675547854   -1.1489330872   -2.0971973625
 H   -2.3846375336   -2.5880431531    0.4861010098
 H    0.0702700461   -2.8895488538    0.3679604893