20

 C   -0.0001065595    1.5194301651    0.0321554658
 C    0.0104688224    0.0212767997   -0.0300110127
 C    0.0115406018   -0.7054819962   -1.1495764082
 C    0.0169799467   -2.2202755683   -1.0288889464
 O   -0.0518529828   -2.9057094517   -2.2483919649
 C   -1.0174552918   -2.5985697875    0.0509892083
 N    0.0120437854   -2.2274873797    1.0921705332
 C    1.0586261885   -2.5887668573    0.0669804656
 C    0.0077031809   -0.7629589177    1.2769931399
 H    0.8763186551    1.9013819205    0.5717405769
 H   -0.0041857233    1.9643341677   -0.9667260435
 H   -0.8812077903    1.8886062346    0.5728643538
 H   -0.0114251627   -0.2617142448   -2.1423310858
 H    0.5863632624   -2.5156562942   -2.8556547874
 H   -1.9552273243   -2.0389136564    0.0865622970
 H   -1.2111851346   -3.6742760217    0.0971633267
 H    1.2647318695   -3.6623153156    0.1154753149
 H    1.9882933011   -2.0156298123    0.1190273323
 H    0.8807275186   -0.4905743575    1.8861565031
 H   -0.8732927531   -0.4935261066    1.8759389013