18

 N    0.1040836345   -1.1254290232   -0.0706916756
 C    0.0488598641    0.0305150630   -0.0258614295
 C   -0.0320804196    1.4527815713    0.0382295090
 C   -1.2269317628    2.2550293372    0.5711223371
 C   -0.7936591025    3.4397301010   -0.3523911888
 C    0.0992758867    4.4285808264    0.4096334513
 C    1.2878062729    3.5525755890    0.8959871233
 C    1.2315375701    2.3253718263   -0.0133531169
 C    0.1939075808    2.4805515572   -1.0778063198
 H   -2.1684503105    1.8066224419    0.2484606574
 H   -1.2684627181    2.4439470795    1.6488827380
 H   -1.5894472630    3.8943349218   -0.9404420987
 H    0.4539536430    5.2132897390   -0.2675736941
 H   -0.4317264119    4.9161629158    1.2329026813
 H    2.2459008903    4.0682885407    0.7864034161
 H    1.1928619588    3.2784032140    1.9512964421
 H    2.1384217549    1.7791478642   -0.2450379445
 H    0.3258063923    2.3097744048   -2.1371963977