17

 C   -0.6241236852    1.3336175980   -0.2607106546
 C   -0.2119021256   -0.0921228222   -0.1281619353
 N   -0.9748417645   -1.1097290196   -0.2177386128
 C   -0.1281587204   -2.2877952844    0.0256498216
 C    1.3014912048   -1.7216543893    0.1895612443
 O    1.1074044633   -0.2891733179    0.1110528066
 C   -0.5841611578   -3.0973681418    1.2528243897
 N   -1.9123132494   -3.0054592180    1.5068788133
 O    0.1965903554   -3.7828506097    1.8862669016
 H   -0.0792753187    1.8087748464   -1.0821953914
 H   -1.6954870313    1.3932118434   -0.4482828981
 H   -0.3775554402    1.8829522907    0.6531499438
 H   -0.1964545832   -2.9727486880   -0.8280675315
 H    1.7407065406   -1.9798075878    1.1546645858
 H    1.9829614269   -2.0158145221   -0.6118495438
 H   -2.4495698026   -2.2967644212    1.0325124433
 H   -2.2817610520   -3.4656178064    2.3222854776