21

 C   -0.0539375621    1.2672486020    0.5756724234
 C   -0.1238138966   -0.0885401371   -0.1486822366
 C   -1.5141614279   -0.5837389628   -0.3512618399
 C   -2.2691490991   -0.8480439776   -1.4507859093
 C   -3.5457536768   -1.2969052416   -0.9742037828
 C   -3.4842327773   -1.2739924500    0.3839204050
 C   -4.4475629984   -1.6189676232    1.4666478306
 C   -3.9818058889   -2.7862582754    2.3544802617
 O   -2.2467862603   -0.8400862415    0.7760563835
 H    0.9854250359    1.5792715241    0.7163145176
 H   -0.5709204100    2.0429186257    0.0025605451
 H   -0.5276486859    1.2042305243    1.5591449080
 H    0.3510715201   -0.0149398811   -1.1323779727
 H    0.4519506837   -0.8301523887    0.4211841716
 H   -1.9550340268   -0.7374807966   -2.4773072484
 H   -4.3973632279   -1.5965294876   -1.5654976230
 H   -4.6247140351   -0.7370692996    2.0968187538
 H   -5.4055650528   -1.8626255623    0.9960566997
 H   -4.7123727550   -2.9896509571    3.1433506384
 H   -3.8514569962   -3.6979984094    1.7636074888
 H   -3.0241550624   -2.5528898943    2.8278054155