22

 C    0.0886777274    1.5977599371    0.0687245088
 C   -0.0705029471    0.0768293646   -0.0254823710
 C    0.6529151361   -0.5224262015   -1.2255252662
 C    2.1965442534   -0.5683713131   -1.1954225047
 N    2.5853636187   -1.4458280081   -0.0620663292
 C    2.2005361535   -2.0459256877   -1.3686925143
 C    0.6880276312   -2.0709168570   -1.3971763856
 C   -0.2265780900   -3.1107291419   -0.8285161303
 C   -0.1648054300   -2.8821996302   -2.3243887469
 H    1.1428656700    1.8789502307    0.1670758988
 H   -0.3058802636    2.0982151853   -0.8232808495
 H   -0.4421427206    1.9998721659    0.9372367713
 H    0.3143142777   -0.3981257782    0.8826728875
 H   -1.1374365306   -0.1760587390   -0.0869516428
 H    0.3121497361   -0.0512543384   -2.1556267015
 H    2.8847648937    0.1731003964   -1.5821986298
 H    3.6050841364   -1.4422272710   -0.0270382373
 H    2.8866424570   -2.6837399330   -1.9138886732
 H    0.2148223270   -4.0158607852   -0.4244954027
 H   -1.1136281534   -2.7751898441   -0.3009450374
 H   -1.0072605230   -2.3931321334   -2.8041591631
 H    0.3173577799   -3.6366773682   -2.9386944308