21

 C    0.0077586158    1.5313388670    0.0110679271
 C   -0.0659936858    0.0001782228    0.0051111584
 C   -1.4756417502   -0.5360665570    0.0124260907
 C   -2.5944859229   -0.2886682680   -1.0534153345
 C   -3.2297140783   -1.2310437226    0.0212520723
 C   -1.9080817183   -2.0377273442    0.0091545971
 C   -2.5799940753   -0.2975954857    1.0952463528
 C   -4.6239075332   -1.7495640444    0.0291422979
 O   -4.9201976603   -2.9190159528    0.0289581403
 H    1.0462611413    1.8751272544    0.0054525750
 H   -0.4887054564    1.9555173927   -0.8679746639
 H   -0.4766770810    1.9480558333    0.9003292694
 H    0.4553413394   -0.3928131327   -0.8776583985
 H    0.4673221438   -0.4002275062    0.8773274394
 H   -3.0014665091    0.7238731917   -1.1201557413
 H   -2.4395400384   -0.7284319034   -2.0426364770
 H   -1.6949515990   -2.6083039509   -0.8983184994
 H   -1.6828633822   -2.6157194224    0.9089701677
 H   -2.4119230464   -0.7456688969    2.0785689682
 H   -2.9860466813    0.7143041316    1.1758703653
 H   -5.4095943723   -0.9572708260    0.0340927026