17

 O   -0.0687183912    1.3973537793   -0.0012321777
 C    0.0369350225   -0.0317045232    0.0130807628
 C   -1.4218392348   -0.5395231834   -0.0138900974
 O   -1.4851951570   -1.9125453314   -0.3183859140
 C   -1.0381666900   -2.2072174050   -1.6277015183
 C    0.2315397628   -1.4931622351   -1.9938946154
 C    0.7405531741   -0.5251270644   -1.2390156192
 C    0.7521072204   -0.4788642350    1.2127072686
 C    1.3680545144   -0.8029620626    2.1934065609
 H    0.7500232403    1.7558270498    0.3572830310
 H   -1.8892302091   -0.4038092629    0.9628866516
 H   -1.9599927961    0.0712887572   -0.7547958620
 H   -0.8930227070   -3.2930622767   -1.6647544247
 H   -1.8239080458   -1.9646584793   -2.3674540366
 H    0.7155167599   -1.7989635599   -2.9178129695
 H    1.6675334603   -0.0211500799   -1.4969441789
 H    1.9013675762   -1.1055571977    3.0607561487