21

 C    0.7161331385    1.2688854901    0.4514121061
 C    0.0552663253   -0.0218024889   -0.0318076862
 C    0.6873561721   -0.6525609728   -1.2981022536
 C    1.5478632420   -1.8108555093   -0.7778302454
 C    2.9731704099   -1.4722536874   -0.2459116519
 C    2.5100158706   -1.8077808832    1.2037037256
 O    2.6108787730   -0.8013094912    2.1812723112
 C    1.0507084000   -2.0299146249    0.6822247204
 O    0.1002884573   -1.0384476195    0.9807238953
 H    1.7682726853    1.1123612986    0.6969613039
 H    0.6340270335    2.0481578072   -0.3145005430
 H    0.2170491153    1.6235692260    1.3576867977
 H   -1.0090197089    0.1808551848   -0.2035523464
 H   -0.0990324350   -1.0375877921   -1.9540950026
 H    1.2676174080    0.0758025557   -1.8721060306
 H    1.5121409664   -2.6830497085   -1.4318644832
 H    3.7799749033   -2.0986783753   -0.6351816256
 H    3.2552170429   -0.4236751149   -0.3748145674
 H    2.9397562701   -2.7543752784    1.5625799938
 H    3.5398963900   -0.7074910191    2.4153433107
 H    0.6233231004   -3.0001474568    0.9528602411