17

 O    1.9160628409    4.1556098232   -0.0438846870
 C    1.0712459418    3.3114725464    0.1496869940
 N    1.2485141144    1.9531697158    0.1168434636
 C    2.4229925953    1.2358708837   -0.1394505274
 C    2.5006592728   -0.0997342425   -0.1784770504
 C    3.8874521186   -0.5687454653   -0.5379258126
 C    4.7414969623    0.7187187378   -0.3934956352
 C    3.7442180137    1.9029011606   -0.4521320398
 H    0.0161484931    3.5578959268    0.3831331943
 H    0.4221105558    1.4010331710    0.2951196501
 H    1.6656660458   -0.7752092650   -0.0245245485
 H    4.2470375028   -1.3774643032    0.1088378677
 H    3.9153567527   -0.9646941352   -1.5637732856
 H    5.2393836870    0.7150474228    0.5809729384
 H    5.5228119816    0.7946252346   -1.1533971163
 H    3.7036298532    2.3714346195   -1.4431213769
 H    3.9856468880    2.7054339991    0.2463473416