19

 C    0.0518504672   -1.2174030291   -0.0342207152
 C    0.0345930928   -0.0128807231   -0.0189930540
 C   -0.0024664660    1.4071925270    0.0344829781
 C    0.2808333297    2.2722797004   -1.1747944607
 C    1.1671017153    2.4368710875    0.0179822704
 C    0.4983809538    3.2321673800    1.1584924911
 C   -0.4921733119    4.3835673244    0.8050008938
 C   -1.6771627505    3.3599129624    0.8140849569
 C   -0.6805087216    2.2193874964    1.1760656986
 H    0.0691551013   -2.2784250058   -0.0546100690
 H    0.7264331141    1.7334475107   -2.0039786366
 H   -0.4195584626    3.0435158541   -1.4786148439
 H    2.2273308080    2.2216521112   -0.0417173891
 H    1.1313918176    3.3669834239    2.0351689540
 H   -0.5687811438    5.1378825419    1.5915146904
 H   -0.3057432948    4.8989664322   -0.1408552176
 H   -2.4093202687    3.5525650229    1.6017004398
 H   -2.2193515901    3.2380763718   -0.1272450357
 H   -0.8941608397    1.6183555112    2.0586734488