19

 C   -0.0185180890    1.3977298198    0.2023195731
 C   -0.0174210565   -0.0439305465   -0.0034065054
 C   -0.0041280100   -1.2362567528   -0.1702772720
 C   -0.0147801791   -2.6823631740   -0.3737416987
 C   -1.3876236246   -3.2932285408   -0.1227142082
 C   -1.6686585516   -4.7842338254   -0.0455225412
 C   -0.5681343266   -5.4895936064    0.7388139228
 O   -0.6697543917   -4.5319024848    1.8271282312
 C   -1.7837777374   -3.9030305507    1.1845579928
 H    0.6060930273    1.6796269422    1.0573776197
 H    0.3662326430    1.9274962048   -0.6764187391
 H   -1.0299296476    1.7725454797    0.3957931425
 H    0.3121376907   -2.9148262002   -1.3959786512
 H    0.7083824671   -3.1507355682    0.3034986077
 H   -2.2068995534   -2.7576405258   -0.5969109680
 H   -2.4284733888   -5.2713537214   -0.6417181687
 H   -0.8577894326   -6.4879985671    1.0847858615
 H    0.4383594807   -5.5289737932    0.3055696011
 H   -2.6171229799   -3.5994333893    1.8077643601