15

 O    0.1640322919    1.3410655045    0.2281396066
 C    0.0937893021    0.0120718906   -0.0205323980
 C    0.2342288039   -0.7951897257   -1.1220284929
 O    0.5192395752   -0.6828816711   -2.4532251993
 C    0.2380676762   -2.0088422377   -2.9953250945
 C    0.2126343997   -3.0382419812   -1.8168278569
 C    0.0301921059   -2.0968093784   -0.6620530409
 N   -0.2220560475   -2.1617920345    0.6357503315
 N   -0.1709604236   -0.8491044679    1.0101078244
 H    0.3318839413    1.7958522018   -0.6035198928
 H   -0.7404909089   -1.9679184599   -3.4880967403
 H    1.0033813424   -2.2218304137   -3.7438530977
 H   -0.5947266770   -3.7640724818   -1.9432883055
 H    1.1536153771   -3.5955228567   -1.7442186257
 H   -0.3684469686   -0.5905142981    1.9612175620