21

 C   -0.0715174881    1.5660139039   -0.0039232889
 C    0.0400073298    0.0370089361   -0.0131750868
 C    0.8037964204   -0.4466565919   -1.2618289551
 C    1.2888562788   -1.8962582304   -1.1369651134
 N    0.2694480858   -2.7739268180   -0.5766383625
 C    0.0617414309   -2.9208241721    0.7826070223
 O   -0.4453943793   -3.9277079876    1.2504046483
 N    0.4637079617   -1.8771480352    1.5935297523
 C    0.6902497615   -0.4627387554    1.2874743138
 H    0.9120690844    2.0331705316    0.1264540685
 H   -0.4862784654    1.9322672368   -0.9485242064
 H   -0.7196900058    1.9168773725    0.8055746440
 H   -0.9721961778   -0.3821190673   -0.0484128366
 H    0.1524865259   -0.3422010835   -2.1370940234
 H    1.6753021765    0.1982384190   -1.4365163129
 H    1.5651827450   -2.2853227336   -2.1207032687
 H    2.1978247879   -1.9329619731   -0.5210846586
 H    0.0792472070   -3.6370543538   -1.0602513843
 H    0.2455167690   -2.0895860768    2.5538660076
 H    1.7673153776   -0.2341021557    1.2653538039
 H    0.2755389740    0.1085397046    2.1251972268