19

 C    0.0393217357    1.6716254275    0.0335909069
 C   -0.0511574331    0.1862133024    0.3392125868
 O    0.1355566776   -0.5572522324   -0.8730057537
 C    0.8841582119   -1.7521054106   -0.6186998213
 C    1.0206969236   -1.8438562905    0.9188296961
 C    0.9887860570   -0.3667335975    1.3240829049
 O    2.2316795840    0.2772508787    1.0824592313
 C    0.2351791489   -2.9142488046   -1.2180456408
 C   -0.2834723830   -3.8840954721   -1.7022354053
 H    1.0380656721    1.9266096286   -0.3233714242
 H   -0.6927990503    1.9359338811   -0.7338763999
 H   -0.1747420542    2.2597658856    0.9317972621
 H   -1.0484628734   -0.0448999856    0.7475462351
 H    1.8804036800   -1.6302875724   -1.0666591462
 H    0.1650899514   -2.3772564306    1.3431419488
 H    1.9339785122   -2.3588809086    1.2278826188
 H    0.6662907471   -0.2226352449    2.3646367819
 H    2.8952940293   -0.1339713311    1.6446287912
 H   -0.7450216968   -4.7346325631   -2.1395457723