17

 C    0.1273933004    1.7388597710    0.4179586909
 C   -0.0449178455    0.2739307963    0.0932467270
 O    0.8406208620   -0.2696699174   -0.8701157402
 C    0.9745727046   -0.7583805763    0.4644135464
 C    2.2145709796   -0.4081168355    1.2203940870
 O    2.9841083931    0.4721773963    0.9275048530
 C   -1.4760786909   -0.1894544084   -0.0274150000
 C   -2.0208110913   -0.6284615495   -1.3211011495
 O   -1.6922052991   -1.5680299313   -0.2933790520
 H    1.1853761352    1.9966907261    0.4639633587
 H   -0.3483100648    2.3461082165   -0.3596383996
 H   -0.3477662271    1.9842214641    1.3734497382
 H    0.6044357883   -1.7716987967    0.6144016785
 H    2.3726386344   -1.0419871901    2.1219269981
 H   -2.1545446490    0.2462354804    0.7071463215
 H   -3.0835315897   -0.5132039729   -1.5261462912
 H   -1.3597370102   -0.6458904325   -2.1837165170