24

 C   -1.0309108892    1.2679180833    0.1626009674
 C   -0.1353526178    0.0410139181   -0.0250672767
 C    0.8675015140   -0.1212746839    1.1129377477
 O   -0.8802944120   -1.1754957595   -0.0707860459
 C   -1.5760903950   -1.4570528842   -1.2731980261
 C   -3.0682261714   -1.2398844120   -1.1368556522
 N   -3.6331067203    0.0420326476   -1.5945536166
 C   -4.0107054797   -1.2015140333   -2.2893745630
 C   -3.6011908277   -1.3394201226   -3.7377242181
 H   -0.4235275374    2.1788869430    0.2005931997
 H   -1.7492627070    1.3625929755   -0.6555581141
 H   -1.5862578504    1.1863513077    1.1035812300
 H    0.4172190668    0.1485577154   -0.9736825456
 H    0.3419331252   -0.2530120876    2.0642408036
 H    1.4985524677   -0.9983837539    0.9470399667
 H    1.5073824894    0.7626452341    1.1926998196
 H   -1.1815632326   -0.8608051680   -2.1053241634
 H   -1.3941875828   -2.5166456512   -1.5016881387
 H   -3.4623871734   -1.6544990768   -0.2098847358
 H   -4.3744405536    0.3505626873   -0.9719828613
 H   -5.0074809460   -1.5886944205   -2.0782079881
 H   -2.6163798090   -0.9036927500   -3.9186342612
 H   -3.5754859523   -2.3927910841   -4.0374734986
 H   -4.3167932755   -0.8236035545   -4.3869800493