19

 C   -0.1368362092    1.5115194050    0.0306754475
 C    0.0078575832   -0.0108034327   -0.0409180366
 C    0.8180783934   -0.4943584695   -1.2572568060
 C    2.2890081305   -0.0758517630   -1.2395075671
 N    0.7148753730   -1.9589747876   -1.3565388157
 N   -0.1105387172   -2.5685702800   -2.1998320319
 C    0.0958448256   -3.8434263390   -1.8890362665
 N    1.0012317683   -4.0011495996   -0.9002748330
 N    1.3834303070   -2.7892063031   -0.5694529432
 H    0.8252182969    2.0105517732    0.1792933516
 H   -0.5860123103    1.9124768585   -0.8847905819
 H   -0.7837034020    1.7922792035    0.8665828030
 H    0.4831522060   -0.3938003904    0.8692970251
 H   -0.9855338208   -0.4699211061   -0.0956762525
 H    0.3390382360   -0.1374075210   -2.1729863008
 H    2.8151079426   -0.4725272916   -2.1116200565
 H    2.3651532715    1.0135491482   -1.2623565988
 H    2.7869570050   -0.4446442399   -0.3397539881
 H   -0.4059709595   -4.6605607849   -2.3811228884