21

 O   -0.1065114299    1.4353563936   -0.1089172563
 C   -0.0463918655    0.0416175904   -0.0088451017
 C   -0.4687636678   -0.6395700377    1.2623458610
 C   -1.3636731407   -0.6938456066    0.0182253809
 C   -2.6510837219    0.1188919062    0.0021640505
 C   -3.8645618027   -0.7948482444    0.2196581233
 C   -3.9467034872   -1.8724965118   -0.8721105229
 C   -2.6058344611   -2.5100428574   -1.1300993850
 C   -1.4539010774   -1.9843987629   -0.7092483800
 H    0.5781295737    1.8032260817    0.4594831844
 H    0.7609957819   -0.4180774239   -0.5809957740
 H    0.0513565463   -1.5398553306    1.5722924953
 H   -0.8090872456   -0.0035143726    2.0734381998
 H   -2.6143544590    0.9102261264    0.7546054254
 H   -2.7430968537    0.6208343462   -0.9698686753
 H   -3.7762880307   -1.2815821927    1.1991864644
 H   -4.7867381372   -0.2044696705    0.2392987573
 H   -4.6758845043   -2.6428155563   -0.5906000185
 H   -4.3316295626   -1.4352412477   -1.8060816747
 H   -2.5963486740   -3.4457235053   -1.6838710444
 H   -0.5175363706   -2.5048121842   -0.9021128195