15

 C   -0.0113563675    1.4100039187    0.0166646594
 O   -0.0032308020   -0.0106451379    0.0179145611
 C    0.5867669017   -0.6248727253   -1.0186340092
 C    0.7252538367   -1.9754444379   -1.2471691088
 C    1.4222650016   -2.0489191646   -2.4796523055
 C    1.8210081225   -3.2882223270   -3.1701157982
 O    2.4144853831   -3.3522756919   -4.2186638782
 N    1.6968708418   -0.8406618106   -2.9800964578
 N    1.1782581890    0.0095648081   -2.0725587427
 H    1.0085803380    1.8158333051    0.0313775229
 H   -0.5546359330    1.8061433380   -0.8511647808
 H   -0.5275645303    1.7125996576    0.9276268016
 H    0.3760415073   -2.7775483125   -0.6191539095
 H    1.5164047373   -4.2082704631   -2.6208610255
 H    1.2626021737    0.9985600333   -2.2357460388