17

 C   -0.0437941644    1.4800083718    0.0246828585
 N    0.1179094331    0.0434075401   -0.1037978326
 C    0.7409943847   -0.6207569688    0.7851312409
 C    0.9001461963   -2.1084620380    0.6033958234
 C    0.0160811941   -2.6240544267   -0.5204153493
 O    0.4123586351   -3.3330380133   -1.4072623117
 N    1.3137335270   -0.0255761080    1.9263414855
 C    1.9911150914   -0.6040616539    2.9816763473
 O    2.2159847186   -1.7782464342    3.1384826522
 H    0.9202652632    2.0116852530    0.0068325274
 H   -0.6329678448    1.8497631364   -0.8170240026
 H   -0.5721968162    1.7672555161    0.9471903594
 H    1.9426658130   -2.3653209257    0.3930722615
 H    0.6413106726   -2.6331380567    1.5303663250
 H   -1.0509200644   -2.3335781364   -0.4376725239
 H    1.2229546918    0.9782368859    1.9809162709
 H    2.3172602788    0.1721908185    3.7011243480