18

 C    0.0227727268    1.4778605327    0.0635010897
 C    0.0084642404   -0.0103134938   -0.0491805269
 C    0.0554621301   -0.8467692993   -1.1505710807
 N    0.0690874563   -0.5083535314   -2.5146620022
 C    0.0084270867   -2.1618776894   -0.6183804936
 C    0.0144258613   -3.4367891155   -1.3981966665
 O    1.0495224035   -3.4553020333   -2.3907711350
 N   -0.0471347394   -2.1475852680    0.7146669443
 N   -0.0509285750   -0.8460090623    1.0333742493
 H    1.0387689570    1.8902577804    0.1190793810
 H   -0.4694220345    1.9300699491   -0.8030813034
 H   -0.5159586951    1.8156979484    0.9551324034
 H    0.5781046573    0.3452609513   -2.7055509081
 H    0.4693916698   -1.2653838619   -3.0581523021
 H    0.0946821310   -4.2868247252   -0.7082425456
 H   -0.9134901494   -3.5557601269   -1.9689868862
 H    1.8843727252   -3.3331718250   -1.9255455933
 H   -0.0910743821   -0.5796701999    2.0022673961