16

 O   -0.0055776809   -0.0164307963   -0.0050161456
 C   -0.0255066655    1.2281793856    0.0078110451
 C   -1.0877083910    2.1675829976    0.0142984999
 O   -0.6504361875    3.5101087349   -0.0014167252
 C    0.6703258703    3.4328818680    0.0063771471
 C    1.1399567517    2.1594322953    0.0147499109
 C    2.6156859247    2.1478423624    0.0009317869
 N    2.9074248932    3.6291244872   -0.4226506881
 H    3.7896688639    3.9811979192   -0.0443631270
 H    2.9664912049    3.6487805592   -1.4399808802
 C    1.7073543069    4.4923896831    0.0027691691
 H   -2.1571057216    2.0528317186   -0.0159889109
 H    3.1145023932    2.0100006507    0.9704921054
 H    3.1025374646    1.4975714417   -0.7327825903
 H    1.5903847313    5.3114675307   -0.7151096669
 H    1.9692738516    4.9262338222    0.9807461499