15

 O    0.0115575837   -0.0230525589   -0.3647273740
 C   -0.0050203693    1.1597442686   -0.1055712229
 N   -1.0620864585    2.0461209429    0.0147203130
 N   -0.6526709131    3.3039421501    0.3204010925
 N    0.6170686198    3.2848263340    0.4060891356
 N    1.0509012063    2.0236490312    0.1593062066
 C    2.4345392296    1.6511166953    0.1754997150
 C    3.4835557905    2.6076755761   -0.3162259084
 C    3.3791094194    2.2838159646    1.1577176058
 H   -2.0402944162    1.8420767851   -0.0997005954
 H    2.5183328985    0.5953403913   -0.0506021951
 H    4.3082122603    2.2008423210   -0.8900418729
 H    3.1425330046    3.5874670137   -0.6296720344
 H    2.9704212984    3.0532074019    1.8023400657
 H    4.1306504860    1.6503376230    1.6145973689