26

 C    0.1604112522    1.4919362892    0.2080722618
 C    0.0439830402    0.0026115323   -0.1267664781
 C   -1.3720248622   -0.5509019705    0.0688335702
 C   -1.4821327058   -2.0417252532   -0.2867387466
 C   -2.8623082144   -2.6563924470   -0.0802307733
 C   -3.9766676476   -2.0461958065   -0.9119754849
 C   -2.9396401944   -4.1140710675    0.2467637390
 N   -3.3134935466   -3.1153684376    1.2427053980
 C   -2.4741819822   -2.9874361153    2.4226327087
 H    1.1814622511    1.8572571242    0.0596964602
 H   -0.5031770203    2.0925540420   -0.4240209143
 H   -0.1143547014    1.6863122950    1.2509082555
 H    0.3565732316   -0.1654004981   -1.1661822737
 H    0.7457949729   -0.5694293898    0.4948492772
 H   -1.6820094272   -0.3959091004    1.1106555825
 H   -2.0704467511    0.0318942746   -0.5445420389
 H   -1.2083758090   -2.1774488214   -1.3423069378
 H   -0.7340160346   -2.6020789163    0.2842456186
 H   -3.7378973005   -2.0941262855   -1.9809245791
 H   -4.9128783114   -2.5820477478   -0.7396868327
 H   -4.1439972503   -0.9961297381   -0.6512449429
 H   -3.7465944636   -4.7323592524   -0.1413234891
 H   -1.9958389217   -4.6424073342    0.3860084576
 H   -1.3997298763   -3.1596714916    2.2528542565
 H   -2.5974101640   -1.9883384700    2.8536874340
 H   -2.8111350533   -3.7163535839    3.1675210917