18

 C    0.0275875887    1.4500974444    0.0972488514
 N   -0.1671407013    0.0291693011   -0.1041971501
 C    0.5424386464   -0.6516552808   -1.0972325521
 C    1.1830404099    0.0076438613   -2.1529596759
 C    1.8355215306   -0.7128654916   -3.1536303083
 C    1.8741457947   -2.1026432379   -3.1200422902
 O    2.5040328890   -2.8602825445   -4.0718894953
 C    1.2462334893   -2.7711910944   -2.0670650502
 C    0.5917707578   -2.0561358094   -1.0773837230
 H    1.0831151070    1.7381840289    0.2331668326
 H   -0.3659014201    2.0170450006   -0.7541345749
 H   -0.5320979439    1.7608687991    0.9825804851
 H   -0.2452191826   -0.4937139769    0.7545647778
 H    1.1773580183    1.0892618977   -2.2076657288
 H    2.3236996593   -0.1762760059   -3.9636815472
 H    2.8852174240   -2.2732241652   -4.7322294550
 H    1.2787527201   -3.8545855993   -2.0391230411
 H    0.1010571226   -2.5919244472   -0.2693614648