16

 O    0.1983817765    1.3278078918   -0.0941213098
 C    0.0483811122   -0.0700292747   -0.0395841504
 C   -1.4357676542   -0.5080988499    0.0950915980
 C   -2.1833476449   -0.0135571554   -1.0631070416
 N   -2.7266068800    0.3765317684   -2.0067221545
 C   -1.5599459668   -2.0206020307    0.2577775377
 C   -2.7836774827   -2.7651006298   -0.1210231340
 N   -1.5379942218   -2.9304156658   -0.8935306835
 H   -0.1478366631    1.6388270490   -0.9381507593
 H    0.4963707911   -0.5750825140   -0.9069514240
 H    0.5806635216   -0.4067149416    0.8549313740
 H   -1.8403638407   -0.0141837322    0.9878215321
 H   -0.9807172561   -2.3832830807    1.1050047383
 H   -3.0850764737   -3.6335617829    0.4568516440
 H   -3.6002521287   -2.2087785067   -0.5728902068
 H   -1.6095993086   -2.4024358047   -1.7617900802