15

 C    0.0297147578    1.3129982273   -0.2569794321
 O   -0.1300350320   -0.1107624368   -0.3300326709
 C   -1.3006405693   -0.5933767965    0.1055581766
 N   -2.2564337506    0.1520941978    0.4700818260
 N   -1.2858769332   -2.0171317736    0.0617713415
 C   -2.4734215617   -2.6714756303   -0.3503513679
 O   -2.6653408630   -3.8506511126   -0.3217556175
 C   -0.0864125859   -2.7133448796    0.3779740474
 O    0.0568648022   -3.8977876111    0.3065692915
 H    1.0494794062    1.5060916722   -0.5891551726
 H   -0.6917677502    1.8089759921   -0.9098058690
 H   -0.1215199446    1.6631739241    0.7667695244
 H   -3.0396780596   -0.3718529545    0.8477628910
 H   -3.2086198574   -1.9342917273   -0.7206760004
 H    0.6946545014   -2.0105001814    0.7049236118