20

 C    0.2409656040    1.1599329724    0.4592435223
 C    1.2537971289    1.4154487794   -0.6664189453
 C    1.3513575907    0.2669216984   -1.6210903269
 O    1.9966358483   -0.9349759957   -1.1880878269
 C    2.4456940193   -0.3189404545   -2.3974950738
 C    1.4584999792   -0.6874365654   -3.5561638692
 N    0.4006144698   -1.5656983379   -2.9895632838
 C    0.3334269321   -0.0988523527   -2.7942729496
 C   -0.8298113926    0.7381564236   -3.2246850302
 H   -0.7681857756    1.0098143940    0.0621579617
 H    0.5143471358    0.2640096094    1.0235665460
 H    0.2064488101    2.0059194941    1.1519314723
 H    0.9815806813    2.3230331483   -1.2198042036
 H    2.2482510024    1.5903035990   -0.2407624110
 H    3.4946315692   -0.0586988016   -2.4806074300
 H    1.6748758336   -0.6564626023   -4.6162696504
 H   -0.2326996469   -1.7797221332   -3.7621932346
 H   -1.6813884690    0.6235387570   -2.5435541064
 H   -0.5675101482    1.8015010457   -3.2530176967
 H   -1.1640457625    0.4533974521   -4.2285289039