20

 C    0.0807508203    1.5019698190   -0.2815287717
 C    0.0532989616    0.0767153131    0.2875577233
 C   -1.2868755250   -0.6066239291    0.0807567392
 O   -2.3031544732   -0.0085991670    0.8718579672
 C   -1.9161179027   -1.1509268268   -1.1977130320
 C   -1.0499783708   -2.0830880203   -2.0875470529
 N    0.3381177076   -2.1630413965   -1.5633561023
 C   -0.7540830505   -2.9568004266   -0.9356255539
 C   -1.6201093776   -2.0712967085    0.0006578707
 H    1.0569031465    1.9665200904   -0.1137004879
 H   -0.1071632048    1.4967299262   -1.3604743742
 H   -0.6648695030    2.1544100829    0.1890611425
 H    0.8417059892   -0.5156627731   -0.1686729716
 H    0.2269303644    0.1075657858    1.3705232492
 H   -2.4219336593    0.8922090494    0.5523820587
 H   -2.8885621234   -0.7922830161   -1.5108269626
 H   -1.2688784016   -2.3287048707   -3.1190064773
 H    0.8419545253   -2.8054563679   -2.1755195088
 H   -0.6872910020   -4.0350548368   -0.8687846443
 H   -2.3395867610   -2.4918040674    0.6913237187