23

 C   -0.0715334906    1.6268376118   -0.0356764914
 C    0.0274799911    0.1002169241   -0.0340311316
 C    0.9174693264   -0.4941962335   -1.1252584965
 C    2.3149820814   -0.6263323634   -0.5434766593
 C    2.2497375558   -0.1396842835    0.9016521632
 C    0.7785893753   -0.5472367241    1.1637769757
 C    0.8209284678   -2.0533321860    0.7683551850
 C   -0.4962089151   -2.8282681254    0.8136881739
 C    1.4095224660   -1.8402318123   -0.6283932877
 H    0.9105121171    2.1078902502   -0.0341879939
 H   -0.6014141030    1.9752051811   -0.9290811790
 H   -0.6267956971    1.9875859955    0.8373247170
 H   -0.9901805914   -0.3008027748   -0.0987880829
 H    0.7570369259   -0.2970388431   -2.1778466637
 H    3.2007900543   -0.5296503509   -1.1576222560
 H    2.9445742597   -0.6727451199    1.5598306791
 H    2.4360373898    0.9321690848    1.0113535515
 H    0.3823528691   -0.3248637643    2.1555243582
 H    1.5447679519   -2.5713286050    1.4117032318
 H   -1.2528935785   -2.4049988887    0.1472785372
 H   -0.3380955848   -3.8671629523    0.5037995510
 H   -0.9100871401   -2.8469176637    1.8281306428
 H    1.6133878089   -2.6617333765   -1.3039745444