12

 O    0.0034949329   -0.0686596618   -0.0580307710
 C   -0.0577600642    1.1391185527   -0.0203774799
 C    1.1856089970    1.9408184706    0.0209359659
 N    2.1525640178    2.5741015041    0.0533700257
 C   -1.3075712548    1.9261782332   -0.0115506577
 C   -2.4909503138    1.3499047118   -0.7884170808
 C   -2.5106664947    1.3021779145    0.6948642013
 H   -1.1949036097    3.0026163356    0.0245129429
 H   -3.1194726799    2.0657591853   -1.3044764371
 H   -2.2928899752    0.4261566940   -1.3195262603
 H   -2.3260085964    0.3460273704    1.1705665430
 H   -3.1533136691    1.9839144995    1.2389666580