20

 C   -0.0460831974    1.4403997970    0.0262041825
 N    0.0072067757   -0.0087524977    0.0182436566
 C   -1.2327122359   -0.7868098047    0.0472717486
 C   -1.1259852229   -1.9137561379    1.1112612232
 C   -0.3466399381   -2.6980343751    0.0154510146
 C   -1.1822040340   -1.9041640091   -1.0309031853
 C    1.1010479122   -2.1952451918   -0.0203067297
 C    1.2121363164   -0.6626498956   -0.0163498257
 O    2.2906315188   -0.0956190763   -0.0421281129
 H    0.9797035385    1.8078917362    0.0009643016
 H   -0.5888057823    1.8218038378   -0.8475612477
 H   -0.5421778054    1.8137498690    0.9306277852
 H   -2.0794482396   -0.1001819017    0.0725640581
 H   -0.6129146847   -1.6737168410    2.0461733846
 H   -2.0990975740   -2.3637956220    1.3224421498
 H   -0.4017249731   -3.7889686714    0.0120146894
 H   -2.1651500256   -2.3525410173   -1.1947884245
 H   -0.7188157270   -1.6556421497   -1.9892504392
 H    1.6727437272   -2.5595151076    0.8405364985
 H    1.6267184614   -2.5516701611   -0.9131718677