16

 N   -0.1059017598    1.3792194565   -0.1814480457
 C   -0.0908953202   -0.0062742169   -0.0265250413
 C   -1.0732409500   -0.9681643529   -0.1708880158
 C   -0.4525291998   -2.1782336707    0.2298770464
 C   -1.0459929423   -3.5555845886    0.2268916667
 C   -1.1583704422   -4.1003534053   -1.1885090112
 O   -2.1680696493   -4.5298943408   -1.6821692463
 N    0.8145827591   -1.9939905389    0.5823958068
 N    1.0120311089   -0.6580336757    0.4202393767
 H    0.6875588044    1.7401967353   -0.6976059383
 H   -0.9610023744    1.7009352297   -0.6140913001
 H   -2.0819592588   -0.8213710725   -0.5219085140
 H   -0.3746444336   -4.2179856591    0.7869532582
 H   -2.0374365020   -3.5807248455    0.6872034005
 H   -0.2018664713   -4.0651629687   -1.7579486025
 H    1.8858754213   -0.2528960359    0.7093244498