20

 C    0.1910360047    1.1004196898   -0.1398662141
 O    0.0538863277   -0.2917092166    0.0259639668
 C   -1.2809115476   -0.7319240164   -0.1132773412
 C   -1.3423584698   -2.2460286475    0.0527218362
 C   -2.7844191213   -2.7331438729    0.2303292473
 O   -2.8402900716   -4.1403692273    0.2796338898
 O   -0.8519422114   -2.9393204931   -1.0897206792
 C    0.5549045663   -3.1078101468   -1.1442708402
 H    1.2478383459    1.3436106308   -0.0070423480
 H   -0.1272354611    1.4263834372   -1.1424271557
 H   -0.3990100240    1.6575107582    0.6049140415
 H   -1.9214892660   -0.2502397944    0.6468808236
 H   -1.6792098810   -0.4613967930   -1.1048006529
 H   -0.7535373415   -2.5316835312    0.9377582566
 H   -3.1922388726   -2.3532860983    1.1724871639
 H   -3.4033137530   -2.3327478487   -0.5908717846
 H   -2.2736440441   -4.4338849474   -0.4457971676
 H    0.9275651772   -3.6333623332   -0.2524860717
 H    0.7647155389   -3.7172042420   -2.0271709897
 H    1.0741671043   -2.1481379475   -1.2255979307