19

 C   -0.7293003441    1.1250689624   -0.7997818554
 N   -0.9766192924   -0.2767184431   -0.5314571257
 C   -0.8514789776   -0.8238316173    0.7087958183
 O   -0.5377558482   -0.1954463831    1.7029698105
 C   -1.1256906785   -2.3394703004    0.7433376750
 C   -2.4610735339   -2.7037721358    0.1492027325
 C   -3.7101771365   -2.4256177810    0.9391221189
 N   -2.4310840605   -3.2139615612   -1.0248784491
 O   -3.7174095689   -3.4997728121   -1.5105934535
 H   -0.4891059333    1.6011718564    0.1516851672
 H    0.1127596207    1.2598783110   -1.4882944292
 H   -1.6127283133    1.6092109822   -1.2307141520
 H   -1.2557248500   -0.8842756581   -1.2861403870
 H   -0.3343480053   -2.8525955443    0.1889642645
 H   -1.0717702417   -2.6373655243    1.7927755954
 H   -3.5309516083   -1.6452972908    1.6825268377
 H   -4.5307465586   -2.1323968984    0.2821412282
 H   -4.0271949784   -3.3302691384    1.4719498068
 H   -3.5275444511   -3.8779145738   -2.3755513031