18

 C   -0.0032003110    1.3949916893   -0.0145703772
 O   -0.0028197715   -0.0122126960    0.0067819627
 C    0.6394130594   -0.5778710647   -1.1122815400
 C    0.5971070958   -2.0640195812   -1.0122065242
 C    0.0489400322   -2.7922781016   -0.0337848850
 N    0.2000996643   -4.1682556572   -0.2770370315
 C    0.8738681742   -4.4079888754   -1.4594614367
 O    1.1472001409   -5.4903490750   -1.9230894944
 C    1.1842527662   -3.0098707644   -2.0310359460
 H    1.0196247044    1.8038549326   -0.0146699867
 H   -0.5303030223    1.7900414330   -0.8974288172
 H   -0.5193013640    1.7351805675    0.8862414094
 H    0.1532638381   -0.2394015238   -2.0476853427
 H    1.6867445795   -0.2242787756   -1.1751790999
 H   -0.4584588763   -2.4490553055    0.8541962390
 H   -0.1300754392   -4.9092621738    0.3178560355
 H    0.7386504784   -2.9188047900   -3.0289088886
 H    2.2678908606   -2.9038420081   -2.1617043964