17

 C   -0.0573465275    1.5187322425    0.0109037787
 C    0.0729876115    0.0069705577    0.0013047293
 O    1.1482140078   -0.5471491729   -0.0123172351
 C   -1.2319252495   -0.7810168247    0.0096703794
 C   -1.0024678182   -2.3022264466   -0.0010502101
 C   -2.2480639872   -3.0515890946    0.0069631527
 C   -3.2950552466   -3.6591365381    0.0136431199
 C   -4.4711831031   -4.3435535888    0.0213898967
 C   -5.5156819676   -4.9498088637    0.0284343114
 H    0.9326673703    1.9757622288    0.0035936493
 H   -0.6272865092    1.8580094047   -0.8612812303
 H   -0.6097987448    1.8483127249    0.8979350895
 H   -1.8175457788   -0.4849683122    0.8891066289
 H   -1.8346222325   -0.4752437500   -0.8547727610
 H   -0.4054087377   -2.5705084633   -0.8802612639
 H   -0.3883486277   -2.5802275696    0.8632635859
 H   -6.4330166393   -5.4839308540    0.0344670488