17

 C    0.0735613583    1.5260818409   -0.2451347473
 C    0.0088250382    0.0344469102    0.1017524308
 O    0.4368725741   -0.1597624354    1.4252109677
 C   -1.3859577600   -0.5867936541   -0.0599768287
 O   -1.9062800641   -1.1673044728    0.8744896480
 N   -1.9327242016   -0.5846476494   -1.3326912582
 C   -2.5435437740    0.5458366008   -2.0196195908
 C   -3.3587581729   -0.6251280952   -1.5642525559
 H    1.0745588468    1.8929611280   -0.0045445628
 H   -0.1118475613    1.7060594421   -1.3071575623
 H   -0.6451515833    2.0963451724    0.3515784451
 H    0.6656239556   -0.5128041652   -0.5956368002
 H   -0.2531646039   -0.7035717323    1.8383094270
 H   -2.6538233016    1.4754867973   -1.4691045932
 H   -2.2814854401    0.6588086034   -3.0678449809
 H   -3.6955928256   -1.3596093328   -2.2894413248
 H   -3.9992312247   -0.4965505279   -0.6965036334