22

 C    0.0603030972    1.6296722913    0.0434435602
 C    0.0511836471    0.0989671449    0.0825244763
 C    0.6635700469   -0.5159317037   -1.1802068370
 N    2.0922794358   -0.1644631341   -1.3154421072
 C    2.6903407768   -1.2430997542   -1.6028793714
 O    2.0035433652   -2.3999400655   -1.6980556323
 C    0.6204459560   -2.0826536739   -1.3103541590
 C    0.3528527936   -2.8486702547   -0.0156342357
 C   -0.2943260740   -2.5470920858   -2.4382481386
 H    1.0806082680    2.0034433115   -0.0710453072
 H   -0.5308205457    2.0066139589   -0.7988999160
 H   -0.3628615672    2.0479340221    0.9617732615
 H    0.6039151312   -0.2488564673    0.9620275054
 H   -0.9795132678   -0.2618077966    0.1914489627
 H    0.1387996429   -0.0800421691   -2.0429865070
 H    3.7548732979   -1.3372686066   -1.7923736779
 H    1.0391888273   -2.5407578961    0.7770241809
 H   -0.6712597172   -2.6880319704    0.3326666935
 H    0.4908926686   -3.9198762148   -0.1876081248
 H   -0.2315034965   -3.6304631199   -2.5768417042
 H   -1.3338896059   -2.2906938653   -2.2077539791
 H   -0.0222060402   -2.0610389506   -3.3793013530