18

 O   -0.0013628593    1.4363183098    0.0357060005
 C   -0.0019017083    0.0224265748   -0.0119743291
 C   -1.4116892106   -0.4713776649   -0.0349985111
 C   -2.5303890242    0.2500323199   -0.0500210151
 C   -3.7755290928   -0.5990931082   -0.0157647779
 C   -3.2443795069   -2.0202412381   -0.3203031464
 C   -1.7280422012   -1.9640271183    0.0382525427
 C   -0.8963625358   -2.7934856942   -0.8361963816
 N   -0.2323442717   -3.4395258935   -1.5280437471
 H    0.9040123368    1.7385778759   -0.0773629534
 H    0.5285437746   -0.3553293139   -0.9020340679
 H    0.5199028931   -0.4122733709    0.8604175807
 H   -2.5445782231    1.3322936259   -0.0415886113
 H   -4.2551315075   -0.5462447325    0.9717096035
 H   -4.5318161318   -0.2801027771   -0.7409465231
 H   -3.7634897355   -2.8104615696    0.2255228694
 H   -3.3455307271   -2.2332941572   -1.3873668418
 H   -1.5596123988   -2.3230834680    1.0646275189