21

 C   -0.1871357511    1.4924715064   -0.0360324483
 C   -0.0083983903   -0.0069146995    0.0324675626
 C   -0.7687101205   -0.8256131493    1.0348228119
 C    0.7354712759   -0.6498266976    1.1889405624
 C    1.6649139305   -1.7819162182    0.9271313402
 C    2.5078626097   -1.7927899698   -0.1060283786
 C    2.5839910894   -0.6475317211   -1.0862745977
 C    1.3022042780   -0.4770904728   -1.9282175869
 O    0.0911028314   -0.6543211847   -1.2084040565
 H    0.6894411012    1.9840328276   -0.4739068011
 H   -1.0581403616    1.7450403544   -0.6499232079
 H   -0.3362557084    1.9130964263    0.9627431655
 H   -1.4220435683   -0.3188831467    1.7369259184
 H   -1.1219653746   -1.7890252540    0.6852736379
 H    1.0336897693    0.0194555774    1.9960266542
 H    1.6464879319   -2.6156375419    1.6266898085
 H    3.1615094371   -2.6469037636   -0.2620952455
 H    2.7783620951    0.2834098776   -0.5400501606
 H    3.4219721382   -0.7754194702   -1.7792667273
 H    1.3263224606    0.5067310912   -2.4217740783
 H    1.2634349166   -1.2373928616   -2.7147245129