16

 N   -0.1384237334    1.4410763971   -0.1877222748
 C   -0.0526356744    0.0368008383   -0.0520145369
 C   -0.3007985601   -0.9007568899   -1.1963498567
 C   -1.1864679825   -0.9761832998    0.0267836278
 C   -0.4789738919   -1.6815029686    1.2123377510
 N    0.8532513660   -2.1558622829    0.8019034036
 C    0.6573104372   -0.7179198711    1.1520811784
 C    1.3557309280   -0.0759869706    2.2071087979
 N    1.9196486678    0.4872509998    3.0487135859
 H   -0.3501528254    1.8970995623    0.6945181215
 H    0.7283713318    1.8369423551   -0.5397096079
 H   -0.7733240168   -0.4094491791   -2.0400909501
 H    0.3857361498   -1.7017331221   -1.4360443575
 H   -2.2522200398   -0.7968576397   -0.0039932193
 H   -0.9700085841   -2.0748807778    2.0926228412
 H    1.2894644977   -2.6126846511    1.6037247160