19

 O    0.0986725616    1.1988045972   -0.4275768899
 C    0.0522194410   -0.1763953516   -0.0703052797
 C   -1.4072969955   -0.5743627444    0.0100584606
 C   -2.2350428810   -0.6198284468   -1.3102066989
 C   -2.7188663705   -2.0554843471   -0.9475125455
 O   -2.3017542193   -3.1164780763   -1.7850950667
 C   -0.9406030359   -3.3219195553   -1.4959782066
 O   -0.7423418451   -3.0186568678   -0.1264585866
 C   -1.7361063873   -2.0778385081    0.2579693728
 H    1.0210440175    1.4506396731   -0.5301050154
 H    0.5725466443   -0.7992837903   -0.8133417892
 H    0.5396885913   -0.3581692036    0.9008501739
 H   -1.8980774990    0.0493614663    0.7638750427
 H   -3.0212693070    0.1303555753   -1.4090874496
 H   -1.6237741303   -0.5974655641   -2.2162662572
 H   -3.7858659631   -2.1724368125   -0.7563116591
 H   -0.6927952774   -4.3730782906   -1.6711281836
 H   -0.3032865624   -2.6765411743   -2.1259516484
 H   -2.0903034619   -2.3511821691    1.2540369562