15

 C   -0.1183963851    1.4149089838    0.0187723237
 O   -0.0162675305   -0.0071788030    0.0219210308
 C   -1.1599078970   -0.6993171751    0.0071273777
 C   -1.3575935575   -2.0448013964   -0.0372588495
 C   -2.7872729263   -2.2178764607   -0.0212326937
 N   -3.4433322365   -3.4506425444   -0.1326718031
 C   -3.3341630742   -0.9727824557    0.0346812615
 O   -2.3201834567   -0.0208638385    0.0459490495
 H    0.9077727274    1.7835629794    0.0217221109
 H   -0.6401702640    1.7729761672   -0.8747066464
 H   -0.6465494354    1.7767752162    0.9067680401
 H   -0.5976394708   -2.8064091960   -0.0892082377
 H   -2.9700471200   -4.1888190109    0.3722705172
 H   -4.4100277407   -3.4112194725    0.1629964579
 H   -4.3375348928   -0.5869406834    0.0511178512