27

 C    0.8762030429    0.8165914826   -0.7343623891
 C    0.4387399980   -0.6337870255   -0.5182393074
 C   -1.0732218542   -0.7807979311   -0.2833434437
 O   -1.8118165075   -0.2064612074   -1.3651245669
 C   -1.4560089357   -2.2419240005   -0.0032548242
 C   -2.9202576485   -2.5696993182    0.3961275917
 C   -3.8841461791   -2.4116362398   -0.7959436848
 C   -2.9521056410   -4.0390622884    0.8614050952
 C   -3.3878832693   -1.6704957536    1.5551262959
 H    1.9459607099    0.8799102958   -0.9553661342
 H    0.3233633060    1.2653333598   -1.5635109505
 H    0.6830716462    1.4222618868    0.1581470687
 H    0.7177644134   -1.2433238563   -1.3906897847
 H    0.9739963349   -1.0652808210    0.3366918857
 H   -1.3463936384   -0.1620579570    0.5799623714
 H   -1.6467991660   -0.7464462844   -2.1466632769
 H   -1.1891945709   -2.8447708778   -0.8852898348
 H   -0.7993477409   -2.5939821346    0.8038597007
 H   -3.5899927373   -3.0638563953   -1.6273530441
 H   -4.9026871260   -2.6932897368   -0.5051376865
 H   -3.8984918783   -1.3831460038   -1.1598279975
 H   -2.3219580573   -4.1926393430    1.7447986179
 H   -3.9716924414   -4.3446548180    1.1205616473
 H   -2.5932911602   -4.7120290612    0.0742470103
 H   -3.4743458133   -0.6243082115    1.2472196956
 H   -4.3726285590   -1.9891808440    1.9139749584
 H   -2.6954634271   -1.7195276359    2.4037641268