17

 C    0.0280940140    1.1283892299   -0.3232718581
 O   -0.2174868391    0.0609152316    0.5828215623
 C   -1.3941556527   -0.6153197704    0.2982197412
 C   -1.4226904298   -1.6458274988   -0.7874836031
 O   -0.1835088254   -1.9788675430   -1.3657437823
 C    0.6683738741   -2.5809862294   -0.3991276955
 C   -0.1499676588   -2.7735426012    0.8822616757
 O    0.1901648187   -3.4136394963    1.8418265334
 C   -1.4667615436   -2.0901322959    0.6654161477
 H    0.9583502318    1.6033413941   -0.0050770888
 H    0.1354399296    0.7585360098   -1.3498529218
 H   -0.7809675460    1.8723430367   -0.2906245574
 H   -2.3105990548   -0.0484463121    0.4745089325
 H   -2.2536836485   -1.7443783906   -1.4768536370
 H    1.0222783219   -3.5493415155   -0.7710323301
 H    1.5340731875   -1.9432587956   -0.1863916521
 H   -2.3354751890   -2.4734953932    1.1839094232