22

 C   -0.0559644400    1.4975794384    0.0242317993
 C   -0.0088013172    0.0416696884    0.0065972197
 C    0.0371569248   -1.1624478939    0.0006601152
 C    0.0475896230   -2.6275160390   -0.0194227963
 C   -1.3953543487   -3.1561804870    0.1282056995
 C    0.7741638499   -3.1716719698   -1.2850634691
 C    2.2135223136   -2.6464164861   -1.3655891855
 C    0.7669859071   -4.7059144723   -1.3388107192
 H    0.7356215315    1.9156890486    0.6562549572
 H    0.0711366528    1.9138900230   -0.9814065270
 H   -1.0141033631    1.8614390676    0.4121062562
 H    0.6217434793   -2.9754212203    0.8534547173
 H   -1.9878572580   -2.9136361285   -0.7600267445
 H   -1.4107464371   -4.2395706453    0.2699162332
 H   -1.8818807363   -2.6941638352    0.9910042031
 H    0.2221860069   -2.7928307607   -2.1563282173
 H    2.8107890263   -3.0169369996   -0.5231783402
 H    2.6988385766   -2.9833524249   -2.2873071815
 H    2.2411630097   -1.5544938480   -1.3418663886
 H    1.2306992441   -5.1327019530   -0.4407351569
 H   -0.2414822391   -5.1183586854   -1.4247879499
 H    1.3403020538   -5.0583587569   -2.2023259050