17

 O    0.1807628352   -0.0267344800   -0.1469805555
 C    0.0370302443    1.1575664365   -0.0299354145
 C   -1.1564672035    2.1363611167    0.0886594112
 C   -0.0880783051    3.2695142706    0.0505886439
 C   -0.0319087158    4.1995349730    1.2568097340
 C    1.2229784635    5.0955035925    1.2440321601
 C    1.2695503432    6.0114651514    2.3811222127
 N    1.2886393659    6.7301736821    3.2855584910
 N    0.9326507174    2.2073024639    0.0213780281
 H   -1.8403801615    2.1036778119   -0.7606406597
 H   -1.7210399195    2.0580658101    1.0197767068
 H   -0.1177752509    3.8523267787   -0.8791217177
 H   -0.9274984167    4.8302913482    1.2627820641
 H   -0.0437023091    3.6054651498    2.1764620116
 H    2.1269804741    4.4756089828    1.2633280137
 H    1.2609925501    5.6864000247    0.3209015011
 H    1.9126874585    2.2287008071   -0.2224216009