18

 C    0.4315241263    1.3421181829    0.7645600281
 C   -0.0721763576    0.1187072680    0.0301080890
 C    0.4256841254   -0.2200171162   -1.3108811825
 O    0.8867996600   -0.9247821755   -0.1507753812
 C   -1.4358411826   -0.3585685186    0.4750165157
 C   -2.6647866333    0.5005646430    0.0944311941
 C   -3.0887980206   -0.7362437247   -0.6679476341
 N   -4.0820563186   -1.0517402484   -1.3619823488
 O   -1.9616402252   -1.4627468107   -0.3281428381
 H    1.4438830818    1.5850582821    0.4346451149
 H   -0.2119332840    2.2100101788    0.5868065933
 H    0.4611027016    1.1590319346    1.8444271732
 H   -0.1932200027   -0.8053101549   -1.9856234101
 H    1.1602234050    0.4310622418   -1.7832465296
 H   -1.3995336318   -0.6600014550    1.5272378917
 H   -3.3273063673    0.7926210689    0.9098508885
 H   -2.4542434141    1.3663950901   -0.5363074077
 H   -4.0031751923   -2.0081519863   -1.7120469464