13

 N    0.3494047991    1.2691825246    0.0036205017
 C    0.0731966459    0.0356020797    0.0013822778
 N   -1.2192575156   -0.4917677779    0.0127291959
 C   -2.4509641202    0.1036396942    0.0272237085
 N   -3.4843119186   -0.7525239601    0.0353843271
 C   -4.6554140314   -0.1442239584    0.0493407747
 N   -4.8549063012    1.1804417948    0.0553080487
 N   -3.7795321454    1.9518836536    0.0463563407
 N   -2.5656212151    1.4452834928    0.0323239977
 H    1.3603025366    1.3957417926   -0.0065668383
 H    0.7993483311   -0.7860775903   -0.0096792478
 H   -1.2868166024   -1.4994473859    0.0101117729
 H   -5.5494973927   -0.7628033998    0.0568181605