19

 O   -0.2381446603    1.2906399271   -0.7105213679
 C    0.0059981045    0.1429359091    0.0849732041
 C   -1.2807259722   -0.6036326751    0.3444826428
 O   -1.7922864926   -1.3758864628   -0.7552387061
 C   -1.4291092398   -2.0661567119    0.4603724269
 C   -0.2637248749   -3.0386946366    0.3668117346
 O   -0.5947674854   -4.2340989005   -0.3086643909
 C   -2.6487471705   -2.5904816882    1.2004907546
 O   -3.2239539100   -3.7139061235    0.5321120735
 H   -0.6029711855    0.9801672325   -1.5469673338
 H    0.7522723843   -0.5141359883   -0.3784762422
 H    0.4171900783    0.5090995953    1.0320918227
 H   -2.0386019518    0.0144577914    0.8313468686
 H    0.5645428045   -2.5893999122   -0.1853923686
 H    0.0932890176   -3.2357827862    1.3935853995
 H   -1.4663211078   -4.5103076801    0.0078811355
 H   -2.3710034718   -2.9445488024    2.1985619799
 H   -3.3882423833   -1.7871719427    1.3141939846
 H   -3.4684991333   -3.4118374449   -0.3516582679