17

 O    0.0672266132    1.3899144378    0.0603727318
 C    0.0129357791   -0.0252058054   -0.0267171364
 C   -1.4802662525   -0.5180508790   -0.1117218323
 C   -1.6121439817   -0.6831807487   -1.5883472996
 C   -0.4231489990   -0.6999647049   -2.2569756059
 C    0.7357284353   -0.5410280845   -1.3172105748
 N   -0.6000700002   -0.9164652850   -3.6009959224
 C   -1.9052418910   -1.0288434338   -3.7378771534
 N   -2.5752311766   -0.9027545471   -2.5423801838
 H   -0.2791075678    1.7401766401   -0.7690512140
 H    0.4953526225   -0.3829464240    0.8857901475
 H   -1.6246345170   -1.4623860577    0.4309947773
 H   -2.1325166201    0.2305095906    0.3493752400
 H    1.4957840803    0.1825496242   -1.6268039115
 H    1.2498281358   -1.4939129519   -1.1356070130
 H   -2.4311070444   -1.1916180522   -4.6671723354
 H   -3.5721909158   -0.9457119285   -2.4148130640