23

 O    0.0400390117    1.4363158031   -0.0623988484
 C    0.0582828771    0.0160763054   -0.0090306219
 C   -1.3843625442   -0.4953590458    0.0128638663
 C   -1.3877036076   -2.0281849638   -0.1081985525
 C   -2.7550207541   -2.6855827322   -0.3411963366
 C   -3.7484615521   -2.5784479723    0.8308041770
 C   -4.3215950767   -1.1998460005    1.0607791974
 C   -3.6174036923   -0.0833162096    1.2458093882
 C   -2.1119422551    0.0257219234    1.2721725565
 H    0.9439669425    1.7528530338    0.0188024619
 H    0.5804878278   -0.4005776917   -0.8850826495
 H    0.5895766307   -0.3397292983    0.8899854747
 H   -1.8840464773   -0.0714192546   -0.8686981878
 H   -0.7276650840   -2.3139279858   -0.9379569562
 H   -0.9354318070   -2.4580644848    0.7982815526
 H   -3.2165711398   -2.2622434843   -1.2421717392
 H   -2.5860382190   -3.7493710395   -0.5496318059
 H   -4.5711345769   -3.2793953727    0.6543935716
 H   -3.2489566083   -2.9313983420    1.7462974148
 H   -5.4070548855   -1.1292128497    1.0800330591
 H   -4.1641955987    0.8437002134    1.4045512785
 H   -1.7157284794   -0.5175114061    2.1451934436
 H   -1.8286579617    1.0717222345    1.4099836259