20

 C   -0.0305420018    1.3863093493    0.0091111293
 O    0.0338560321   -0.0194004010    0.0070032055
 C    0.6330976645   -0.5378955645   -1.1621153365
 C    0.6169925996   -2.0634845805   -1.0691562179
 C   -0.8263124285   -2.6069720126   -1.0213965897
 C    1.3670774809   -2.6791356587   -2.2489866681
 C    1.9474741357   -4.0664066111   -2.0408366932
 O    1.4913858572   -2.0881283697   -3.2988664749
 H    0.9712642429    1.8411511348   -0.0462192824
 H   -0.6257024615    1.7698549305   -0.8346601966
 H   -0.5053860810    1.6918402995    0.9447806256
 H    0.0910679968   -0.2101706827   -2.0620402443
 H    1.6678063231   -0.1715955937   -1.2609091950
 H    1.1224576655   -2.3580584105   -0.1403764263
 H   -0.8494919704   -3.6898483511   -0.8693048316
 H   -1.3644514053   -2.1303490347   -0.1997852029
 H   -1.3515552276   -2.3814963572   -1.9554690578
 H    1.2184335802   -4.7419868067   -1.5825722413
 H    2.2919245810   -4.4734414291   -2.9922391509
 H    2.7963421865   -4.0008825306   -1.3492002713