17

 C    0.0320356772    1.5785450138    0.1554695019
 O    1.4901057751    1.5886769167   -0.1388670217
 C    1.2151997112    0.3728857938   -0.9584105113
 C    1.3436001590   -1.2091461701   -1.0418565894
 C    1.6261849102   -1.6860346458    0.3760444236
 C    0.6426408326   -0.7311523632    1.1087479710
 C    0.0742832192    0.0435912201   -0.1021806103
 N   -0.2148447281   -1.1760249409   -1.0347153529
 H   -0.1756377036    1.9271044279    1.1702969588
 H   -0.5149651783    2.1712079356   -0.5860058376
 H    0.9409135361    0.7341739721   -1.9576756280
 H    1.8121383353   -1.7142290337   -1.8878962030
 H    1.3759597476   -2.7412804501    0.5004086986
 H    2.6700423159   -1.5334331225    0.6613539979
 H   -0.1602052313   -1.2633590715    1.6237994792
 H    1.1475993147   -0.0702522340    1.8139384689
 H   -0.5081270128   -0.8147752481   -1.9450873057