19

 C   -0.1541666062    1.4538084029   -0.0864581207
 O    1.1350607370    1.6909841530    0.5311031787
 C    1.5262232882    0.3047948522    0.3770279114
 C    1.3603557577   -0.5298844622    1.6608517724
 C   -0.1243754801   -0.8115927765    1.2728805232
 C   -0.4702372387   -2.2298848846    0.8025026175
 O   -0.0318424673   -2.3247045107   -0.5538241819
 C   -0.2712881133   -1.0560177093   -1.1558143890
 C    0.0876231539   -0.0531050311   -0.0847978912
 H   -0.9866744210    1.8329727377    0.5190014732
 H   -0.2050232728    1.9068469305   -1.0870496375
 H    2.4321559416    0.1937845547   -0.2267386147
 H    1.9798447422   -1.4323925639    1.6668392005
 H    1.5221972193    0.0264594643    2.5864513637
 H   -0.8752270326   -0.4029637272    1.9520937127
 H    0.0306116266   -3.0228651649    1.3653822645
 H   -1.5583493309   -2.3942236337    0.8630292977
 H    0.3456549977   -0.9935464166   -2.0569427311
 H   -1.3303257412   -0.9495458644   -1.4514630093