18

 C    0.0089430448    1.5124252879    0.0431470013
 C   -0.0107080349   -0.0156823996   -0.0040497055
 C    0.7146136108   -0.5567159916   -1.2552697836
 O    0.8500966175   -1.9581058200   -1.2090824782
 C    1.5589552698   -2.3679349076   -0.0471932302
 C    0.8362356538   -1.8889063877    1.2033933950
 O    0.6615313685   -0.4709074274    1.1651844297
 C   -1.4165156097   -0.4991317361    0.0032190115
 N   -2.5137782353   -0.8609283231    0.0165356059
 H    1.0460540778    1.8562499255    0.0543512177
 H   -0.5038421787    1.9337366937   -0.8251281066
 H   -0.4865566156    1.8629269816    0.9505887837
 H    0.1554781112   -0.3161284810   -2.1630993818
 H    1.7013895801   -0.0672147855   -1.2978539650
 H    1.6101512321   -3.4597102113   -0.0770187878
 H    2.5834941322   -1.9624827997   -0.0670058021
 H   -0.1398639058   -2.3866085559    1.2885445613
 H    1.4191167113   -2.0958972422    2.1047431348