20

 O    0.0175291722    1.4211569507   -0.0369635225
 C   -0.0124569651    0.0012157598    0.0208632525
 C   -1.4513430258   -0.4378488243   -0.0339163738
 C   -2.5377596494    0.0235055401    0.9902231629
 C   -3.4811020230   -0.5482988092   -0.1282669115
 C   -2.4503252126    0.0405330050   -1.1254232048
 C   -3.0795384812   -2.0271455232   -0.0246435967
 C   -2.1868831114   -2.6397461611   -1.0406802240
 N   -1.5970461786   -1.9285664142    0.1100941713
 H    0.9345722522    1.7029669319    0.0221906048
 H    0.5370432276   -0.4476156710   -0.8227672741
 H    0.4407148070   -0.3806212343    0.9480655147
 H   -2.5344826776   -0.4821975784    1.9591696324
 H   -2.5919666126    1.1067731495    1.1049788623
 H   -4.5432057867   -0.3107242465   -0.1776180935
 H   -2.4892530857    1.1289726215   -1.1531490821
 H   -2.3879071289   -0.3424328375   -2.1447450267
 H   -3.6005683409   -2.6543889760    0.6944857636
 H   -2.0267294183   -3.7137887462   -0.9936606146
 H   -2.1127682911   -2.2324826267   -2.0421716002