15

 N   -0.0289583700    1.2682985555   -0.0246328272
 C   -0.0306984698    0.0088017035   -0.0055649108
 O    1.0713189863   -0.8234497190   -0.0274754918
 C    0.4678862054   -2.1233389447    0.0110268394
 C   -0.7907928724   -2.1444467888   -0.8981149625
 C   -1.4614593860   -3.1296247312    0.0865751605
 C   -0.7314997348   -2.1158311196    0.9972695777
 C   -1.1851697510   -0.9449413844    0.0449483159
 H    0.9275277833    1.6263872077   -0.0599598541
 H    1.2249671550   -2.9044369765   -0.0008642816
 H   -0.8160621522   -2.1426877404   -1.9878864083
 H   -2.5525209878   -3.1100783210    0.1204115658
 H   -1.0867461413   -4.1572799569    0.0903680970
 H   -0.6886201568   -2.0811812851    2.0859404206
 H   -2.1963271880   -0.5482856591    0.0705917945