18

 O    0.0333722178    1.4316336807    0.0213667675
 C    0.0407013292    0.0163797727   -0.0080279868
 C    0.8016715431   -0.5670154731    1.1980201413
 C    0.5246541502   -2.0317768856    1.4181225633
 C   -0.4653741506   -2.6945450425    0.8180037516
 C   -1.4203923434   -2.0518992431   -0.1575628705
 C   -1.3953054762   -0.5240266328   -0.0588405371
 O   -2.1156083455   -0.0439750671    1.0831944222
 H   -0.6607758148    1.6685638847    0.6512061299
 H    0.5547026632   -0.2714084118   -0.9331651226
 H    1.8758673125   -0.3926324784    1.0695118373
 H    0.5257881836    0.0054554789    2.0961586138
 H    1.1749048713   -2.5551558528    2.1154384174
 H   -0.6068988797   -3.7530357621    1.0217966197
 H   -1.1713573205   -2.3593133925   -1.1831747798
 H   -2.4458098562   -2.4000806236    0.0173151161
 H   -1.9059490439   -0.0764090489   -0.9171701880
 H   -1.8570740604   -0.5892174325    1.8356781947