17

 C   -0.0349994356   -1.1911852572    0.0548492818
 C   -0.0281130051    0.0125670038    0.0186351954
 C    0.0071287719    1.4269168107   -0.0120686710
 C   -0.7300648289    2.5026673715    0.8055933488
 C    0.5788483039    3.2478306383    1.0674972736
 C    1.2359369431    2.3914898888   -0.0627025158
 O    1.1992781270    3.0424663660   -1.3165171352
 C   -0.1814772483    3.2712360542   -1.6260730513
 C   -0.9670513290    2.3666579441   -0.6837925614
 H   -0.0440633683   -2.2522066720    0.0834847811
 H   -1.5326488327    2.3409808413    1.5151018303
 H    0.6037977706    4.3327323076    0.9242868231
 H    0.9894283346    3.0004478029    2.0499874442
 H    2.2353092816    1.9938198075    0.1019766547
 H   -0.4308192535    4.3322833373   -1.4890212750
 H   -0.3505138111    3.0113828328   -2.6767355189
 H   -1.9262337604    1.9730399823   -0.9965139744