16

 C   -0.0320823329    1.5553678174    0.1065062301
 C   -0.0077385723    0.0332090535   -0.0256598885
 O    0.7857775603   -0.5899923644    0.9627469924
 C   -1.4436582530   -0.5287637664   -0.0260022071
 N   -1.4554931429   -1.9797312658   -0.1087171233
 N   -1.3366285453   -2.6603417203   -1.2375524307
 N   -1.3226617178   -3.9084459397   -0.8798713867
 N   -1.4286222515   -3.9814372358    0.4607214847
 N   -1.5075375955   -2.7793538208    0.9443486869
 H    0.9904332050    1.9394549478    0.1089011261
 H   -0.5765642981    2.0218276171   -0.7207443240
 H   -0.5149213429    1.8599600821    1.0432247910
 H    0.4607475278   -0.2471885987   -0.9756013637
 H    0.4443672645   -0.3545565093    1.8333521884
 H   -1.9640355078   -0.2678728386    0.8992908800
 H   -2.0130529476   -0.1457039880   -0.8753459554