16

 C   -0.0290087088    1.5541863435    0.0959639754
 C   -0.0236832549    0.0148759601   -0.0314990727
 C    0.7376499153   -0.5786459609    1.1564869680
 O    1.8343768258   -1.0630941134    1.0815554337
 C   -1.3974562761   -0.5598075019   -0.1008439622
 C   -2.0285635675   -1.4441570856   -0.9134640297
 N   -3.3372064431   -1.6259463511   -0.4809213836
 C   -3.4329065189   -0.8632588958    0.5558086450
 O   -2.3041570370   -0.1787394131    0.8609163699
 H    0.9947174777    1.9374070013    0.1096076625
 H   -0.5590996589    2.0011167609   -0.7491522853
 H   -0.5316200401    1.8680639923    1.0150017104
 H    0.5173442815   -0.2845934816   -0.9334433656
 H    0.1931898454   -0.5096373329    2.1252114339
 H   -1.6387459884   -1.9585810763   -1.7773924081
 H   -4.2842225220   -0.7036983256    1.1986086787