19

 C    0.0026824326    1.1520259906   -0.4420342400
 O   -0.0951868947    0.0474636880    0.4389487371
 C   -1.3044120694   -0.6354081416    0.3144049994
 C   -1.5517857011   -1.6669069344   -0.7428078988
 C   -0.2627085155   -2.4461764052   -1.0339617069
 C   -0.2042476225   -2.9150828927    0.4630121235
 C    1.0604109937   -2.6754709406    1.2551389060
 O    1.6503890625   -3.5495186757    1.8428388587
 C   -1.4445660799   -2.0485139220    0.7615492964
 H    0.9792712366    1.6111100976   -0.2749438337
 H   -0.0781958878    0.8410744694   -1.4928920148
 H   -0.7811637377    1.8966754330   -0.2387748776
 H   -2.1769886638   -0.0191278906    0.5434382224
 H   -2.4256382351   -1.6454479642   -1.3831078648
 H   -0.4012525908   -3.2885320233   -1.7123545144
 H    0.5812822281   -1.8451559761   -1.3846103581
 H   -0.4472405177   -3.9768148797    0.5428439232
 H    1.4208852463   -1.6275449738    1.2588622365
 H   -2.2206991738   -2.3397056487    1.4597549158