13

 O    0.0461598985    0.3127163757    1.0971341694
 C    0.0176378057    1.1000398489    0.1971924605
 C   -1.2673292408    1.8349765506   -0.1812481802
 O   -1.4664545890    2.0026141234   -1.5901803902
 C   -0.6580472139    2.8367964108   -2.2593764078
 O   -0.8005348753    3.1083283211   -3.4062967921
 O    0.3242369320    3.3785859145   -1.4529160247
 C    1.4290534509    2.5467661716   -1.2053347724
 O    1.1237410992    1.3120938319   -0.5632967015
 H   -2.0952284716    1.2143893403    0.1578816280
 H   -1.3067507971    2.8005534328    0.3318734005
 H    1.9321050105    2.2744234154   -2.1382782232
 H    2.0914936110    3.1258438431   -0.5578800363