23

 C   -0.2622765920    1.1550057589   -1.2866075406
 C    0.3057088276   -0.1605573813   -0.7889481349
 O    1.7014330336   -0.3298446070   -1.1386903183
 C    2.0981550797   -0.5681986400    0.2472581276
 C    2.5959547017   -1.9994900487    0.4167827532
 C    3.1361733566    0.4555629907    0.6878543205
 C    0.6470609452   -0.3144743168    0.6927188631
 C    0.1468096408    0.4979868133    1.8474122529
 C   -0.1462513966   -0.9843344418    1.7692329363
 H    0.2948634093    2.0028219754   -0.8779431910
 H   -0.2051563884    1.1973822455   -2.3789606356
 H   -1.3152603729    1.2561492119   -0.9998333077
 H   -0.2908212093   -0.9968489151   -1.1843708912
 H    3.5014289926   -2.1539347545   -0.1789393942
 H    2.8379561290   -2.2127078510    1.4639118159
 H    1.8393596508   -2.7154258096    0.0851910675
 H    2.7602092803    1.4726016306    0.5525125849
 H    3.4014223230    0.3193401715    1.7421322796
 H    4.0483444509    0.3429586659    0.0927404613
 H    0.8647662648    0.8375411823    2.5872000337
 H   -0.6676385300    1.1934495646    1.6706199953
 H   -1.1602789931   -1.2960857051    1.5370580823
 H    0.3726036864   -1.6442104696    2.4574729194