21

 C   -0.0922274585    1.6009429149    0.0052897622
 C    0.0091576940    0.0931088822   -0.0228606907
 C    0.6839654618   -0.6718017899   -1.1470792907
 C    1.4098644449    0.0472043766   -2.2821993839
 C    2.9355594332    0.0241080446   -2.1223668839
 O    3.4550895914    0.9489389050   -3.0758175486
 C    3.3474638228    0.3782620856   -0.7092641130
 C    2.6073193863    0.0719380195    0.3567655190
 C    1.3156781051   -0.6479244887    0.2280733265
 H    0.8467120300    2.0810220351   -0.2806591411
 H   -0.8752675242    1.9572839584   -0.6737880802
 H   -0.3449183503    1.9496156271    1.0126692055
 H   -0.8656121810   -0.4059562500    0.3877532907
 H    0.2006557234   -1.6008580204   -1.4324215593
 H    1.1431613015   -0.3990274953   -3.2446767825
 H    1.1178363427    1.1005283154   -2.3399588297
 H    3.3048478356   -0.9904853066   -2.3545564729
 H    4.4155405156    0.8912252491   -3.0558634969
 H    4.2997210568    0.8930332861   -0.5967767026
 H    2.9459115710    0.3379127253    1.3559466974
 H    1.2340441479   -1.5479209342    0.8330922646