17

 C   -0.0955284406    1.5671375392   -0.0607361950
 C   -0.0063022798    0.0535245966   -0.0050378805
 N    1.0040028089   -0.5553122980   -0.8872643840
 C    1.7811591486   -1.0966460067    0.0896758474
 O    2.8273894527   -1.6850263180    0.1068793757
 C    0.7981111577   -0.5894124046    1.2066168969
 N    1.4841374863    0.3527255530    2.0817190638
 C    0.0717734714   -1.6440479995    1.8960871167
 C   -0.5329089018   -2.4981441787    2.4897309906
 H    0.8734569248    2.0209965903    0.1531115606
 H   -0.4384538330    1.8921152189   -1.0491371959
 H   -0.8173344663    1.9311540466    0.6774723065
 H   -0.9915236224   -0.4068279332   -0.1291179613
 H    1.1485478341   -0.4965689967   -1.8847814358
 H    0.9614886349    0.4773383404    2.9430661404
 H    2.3846768077   -0.0443557840    2.3361199840
 H   -1.0537965632   -3.2620750456    3.0123274198