18

 C   -0.2784074944    1.2415404253    0.0262958247
 O    0.1447841088   -0.1031083340    0.0521772471
 C    0.7853463147   -0.5288853416   -1.1469708853
 C    1.3300571577   -1.9569773752   -0.9030423217
 N    0.4749159317   -2.8219953043   -1.7282514548
 C    0.4840276157   -4.1876295028   -1.7288278680
 O   -0.2037863893   -4.8835558276   -2.4446943952
 C   -0.3234524189   -2.0282220958   -2.5541555541
 C   -0.1615125475   -0.7245788056   -2.3139341781
 H    0.5571143492    1.9260194982   -0.1916613991
 H   -1.0711863180    1.4169570085   -0.7149036590
 H   -0.6729119180    1.4730302604    1.0184045352
 H    1.5994189026    0.1760949568   -1.3753744346
 H    2.3737462656   -2.0447548917   -1.2200930632
 H    1.2529574153   -2.2058019972    0.1573895359
 H    1.2020325213   -4.5930140704   -0.9901897539
 H   -0.9534223973   -2.5339545122   -3.2712050500
 H   -0.6661711091    0.0740555091   -2.8361666859