17

 C   -0.0606542960    1.4748503121    0.1107095754
 C    1.4113626360    1.8651372979    0.0254136528
 C    2.1667372033    0.9236509224   -0.5474108856
 C    1.3237251955   -0.2486653009   -1.0041637453
 C    1.6303264990   -1.7111131436   -0.6952012195
 O    1.7589752889   -2.0621108134    0.6780204345
 C    0.4681686472   -2.2515470187    0.0407694926
 C   -0.4533290601   -1.1072095708    0.3263591020
 C    0.0444643028    0.0078558782   -0.2116295434
 H   -0.5063316518    1.6700927400    1.0918888467
 H   -0.6549560733    2.0371010143   -0.6258955313
 H    1.7727465028    2.8235957478    0.3814123804
 H    3.2318104452    1.0016660288   -0.7315064225
 H    1.1571609238   -0.1800884086   -2.0924859068
 H    2.2151605069   -2.3096213148   -1.3886855032
 H    0.1405308051   -3.2847287210   -0.0215919374
 H   -1.2895613954   -1.1727290397    1.0120209804