16

 O   -0.2574451559    1.3484066575   -1.6961978024
 C   -0.1117768268    1.6060435706   -0.5180521277
 C   -1.3034973540    1.6120125573    0.4398849252
 C   -1.4755770574    2.9277994197    1.1606283540
 C   -0.5859379669    3.4256408068    2.0134930906
 C    0.7142582460    2.7459130046    2.3831140505
 C    1.5923082958    2.2950146028    1.2425666564
 C    1.2442961689    1.8537735847    0.0264465527
 H   -2.1871497068    1.3554455407   -0.1460289211
 H   -1.1420024515    0.8065246606    1.1719138361
 H   -2.3801830231    3.4877606416    0.9427066458
 H   -0.7859926066    4.3756453789    2.5007148616
 H    1.3038736028    3.4120825921    3.0202631119
 H    0.5000014644    1.8697372811    3.0205719290
 H    2.6592528938    2.3520110875    1.4532156852
 H    2.0265550273    1.6169788135   -0.6902296178