21

 C   -0.2654828001    1.5439322330   -0.0792506093
 C    0.0366176182    0.0385296812   -0.0279921981
 C    0.9204739983   -0.4194398747   -1.1648857628
 C    1.9289775666   -1.2097134421   -0.7823390882
 C    1.8890742077   -1.4000044390    0.6818092871
 O    2.6122219372   -2.1038016077    1.3509542142
 C    0.7476068579   -0.5180035493    1.2493198875
 C    1.4115192918    0.5605687638    2.1263063945
 C   -0.1847911093   -1.3829904053    2.1103703556
 H    0.6445932943    2.1477637645   -0.0285788650
 H   -0.7781958282    1.7931797163   -1.0143900720
 H   -0.9186445611    1.8445499588    0.7452300273
 H   -0.9291400236   -0.4772331997   -0.1354419739
 H    0.7129344625   -0.1237885725   -2.1894672659
 H    2.6741605967   -1.6770028239   -1.4134797264
 H    2.0969601535    1.1927952993    1.5536127109
 H    0.6643014778    1.2062290837    2.5975098773
 H    1.9919438667    0.0709451600    2.9131683246
 H    0.3876158968   -1.8766309862    2.9005807927
 H   -0.9668967367   -0.7726580803    2.5748483090
 H   -0.6722599072   -2.1611057501    1.5132752710