18

 C    0.1448371468    1.3297564642    0.1106376452
 N    0.2175121447   -0.1163212892    0.1120170557
 C    0.5848713097   -0.6760316289   -0.9509495202
 O    0.6538576523   -2.0250078173   -1.0309353671
 C    1.1985191557   -2.5520291746   -2.2419094382
 O    2.5973727426   -2.4218849841   -2.2848751281
 C    3.2139830783   -3.6939805987   -2.0775718269
 C    2.0842031002   -4.6801435591   -2.1453278070
 C    0.9326693684   -4.0313604089   -2.2654407672
 H    0.4340373427    1.7939202639   -0.8467954724
 H   -0.8763081336    1.6471732056    0.3515106618
 H    0.7952364126    1.7307996185    0.8963534784
 H    0.8630511541   -0.1504190022   -1.8775717115
 H    0.7760491094   -1.9844074293   -3.0829112914
 H    3.9664628361   -3.8456933894   -2.8622397738
 H    3.7321690074   -3.7237516276   -1.1076818974
 H    2.2279322633   -5.7509570774   -2.0832691808
 H   -0.0653593706   -4.4432015456   -2.3141918090