15

 C   -0.0382025040    1.5483759726    0.0333816700
 C    0.0992528661    0.0494165814    0.0130124879
 N   -0.7778123405   -0.8149925507    0.8515877354
 C    0.7006646366   -0.7665349619    1.0907002006
 C    1.4314165645   -1.9212770219    0.4241042823
 O    2.1208910138   -2.7503453706    0.9674102957
 C    1.1560874561   -1.7789279900   -1.0363166192
 C    0.4370764148   -0.6734912512   -1.2655745338
 H    0.8630178271    2.0311937116   -0.3584036480
 H   -0.8858795996    1.8731673734   -0.5807270635
 H   -0.1997663040    1.9132176250    1.0524824545
 H   -1.2171357562   -0.2333048991    1.5676781040
 H    1.0753609201   -0.3571589840    2.0213044659
 H    1.4922807950   -2.5067126107   -1.7631659374
 H    0.0841174901   -0.3309301336   -2.2323045944