17

 C    0.0163219755    1.5117849509    0.0276453644
 C    0.0125572616    0.0080915890   -0.0065288817
 C   -0.1352350848   -0.7195429218   -1.1842798717
 N   -0.1151774548   -2.0532234541   -1.2307419081
 C    0.0489804126   -2.6864209517   -0.0671601519
 C    0.1024197470   -4.1954017474   -0.0954948191
 O    1.4373289793   -4.5883041558    0.1968953307
 N    0.1726101036   -2.1006387888    1.1301847436
 C    0.1570997247   -0.7714858613    1.1441553654
 H    1.0335390982    1.9046356746    0.1405520103
 H   -0.3968901428    1.9290491772   -0.8947760493
 H   -0.5727873020    1.8939959778    0.8671024480
 H   -0.2778951094   -0.2054525303   -2.1341075129
 H   -0.5994238199   -4.5832622525    0.6573930522
 H   -0.2161260734   -4.5343426995   -1.0895509324
 H    1.4420546677   -5.5432395401    0.3113302607
 H    0.2544095869   -0.2965694461    2.1201739018