16

 O   -0.0304176671    1.4082036858   -0.3000087367
 C    0.0363642111    0.0426650241    0.0996545784
 C   -1.3761675950   -0.4950140007    0.0765264087
 C   -2.0051449892   -0.8570261647   -1.2953361943
 O   -1.1057099096   -2.0291882166   -1.3931835311
 C   -1.5928876619   -2.0316134720    0.0059511624
 C   -3.0106107383   -1.8064379395   -0.5649246711
 O   -3.9816968766   -1.3164304198    0.3131897224
 H    0.8673055269    1.7501329877   -0.3406170411
 H    0.6640002831   -0.5483197444   -0.5790198219
 H    0.4476121421   -0.0518939304    1.1180589177
 H   -2.0365021605    0.0412146309    0.7601770918
 H   -2.1289432627   -0.2425759592   -2.1869486082
 H   -1.2304284138   -2.8217916301    0.6645857039
 H   -3.3583388589   -2.6315656466   -1.1953753986
 H   -4.7748519796   -1.1141056245   -0.1925477722