19

 O    0.0140813198    0.0694144585   -0.0547832750
 C   -0.0171464686    1.2680734246    0.0233759293
 C   -1.2191185999    2.2047255818    0.0665526851
 C   -0.7113879828    3.2447980148    1.0704028795
 O    0.7247766991    3.2914914293    0.9123266920
 C    1.1438753928    2.2573197319    0.0212636713
 C    1.2471317863    2.7923670759   -1.4261044209
 C   -0.0487752390    3.5451524161   -1.7864861133
 C   -1.3252838116    2.7805522704   -1.3764008187
 H   -2.1387726548    1.7043424692    0.3713879835
 H   -1.1141180767    4.2488706472    0.8946749198
 H   -0.9512153081    2.9530480035    2.1012278501
 H    2.0806157755    1.8260728064    0.3804021470
 H    2.1118675031    3.4576722867   -1.5161912826
 H    1.4172391935    1.9431855134   -2.1000323118
 H   -0.0317160169    4.5133974914   -1.2762284928
 H   -0.0753048380    3.7605514346   -2.8593145138
 H   -1.5095050574    1.9473177673   -2.0648935916
 H   -2.1955311663    3.4432892370   -1.4403553771