16

 N    0.0088073093    1.3653945747    0.2257867956
 C   -0.0183589584   -0.0164710984    0.0741883157
 C   -1.2077530732   -0.7319419441   -0.0695917820
 N   -1.2129669995   -2.0696555314   -0.1239251345
 C   -0.0551591834   -2.6996164835   -0.0558735332
 N   -0.0120873428   -4.1033607811   -0.1532716414
 C    1.1561824418   -1.9716463929    0.0430867550
 N    2.3612426454   -2.6554091510    0.1071930122
 N    1.1655730580   -0.6486016362    0.1128536691
 H    0.9110345512    1.7648194596    0.0090545305
 H   -0.7536745689    1.8623582673   -0.2102833598
 H   -2.1677922799   -0.2273661300   -0.1304663271
 H   -0.9533879657   -4.4791726197   -0.1492860721
 H    0.5320828554   -4.5262479131    0.5920647066
 H    2.3856076339   -3.4927930013   -0.4605855656
 H    3.1604887869   -2.0529358290   -0.0357434890