11

 O   -0.0227585717   -0.0079448443   -0.0006370324
 C    0.0057229193    1.1935811576    0.0084351423
 C    1.2617067988    1.9874734076    0.0018742117
 N    1.3463733901    3.2840439220    0.0112157906
 C    2.7115824743    3.4795961436   -0.0015345509
 N    3.4125858480    2.3597552536   -0.0165703603
 O    2.4499785822    1.3691363785   -0.0148866125
 C    3.3258894996    4.7550543421    0.0027830373
 C    3.8403675133    5.8402743934    0.0065492728
 H   -0.8964661758    1.8331701842    0.0224892470
 H    4.2965846118    6.8002515316    0.0098512744