27

 C    0.0618619016    1.6135448811   -0.1115191760
 C   -0.0121647304    0.1035157470    0.1490760640
 C   -1.4346834948   -0.5086262196    0.0655194897
 C   -2.3364949469    0.1037102580    1.1457724422
 O   -2.0569805988   -0.1122458773   -1.1681547127
 C   -1.4027884309   -2.0905666829    0.1416851519
 C   -0.6379665084   -2.5933642670    1.3830992589
 C   -2.8432963857   -2.6429032613    0.1895673862
 C   -0.7263906823   -2.6840746261   -1.1145132616
 H    1.1057823252    1.9348892973   -0.1804520127
 H   -0.4402883273    1.8767450957   -1.0461612035
 H   -0.4045377472    2.1939546230    0.6895109381
 H    0.6362338167   -0.4026452123   -0.5761857164
 H    0.4136220094   -0.1144071846    1.1340212055
 H   -2.3259676449    1.1923873878    1.0661710740
 H   -3.3703210051   -0.2191433701    1.0172337958
 H   -2.0059768057   -0.1689024506    2.1512197413
 H   -1.4623097929   -0.3431226416   -1.8887933787
 H   -1.0327148099   -2.1668169580    2.3102426189
 H   -0.7335067718   -3.6819216385    1.4611054331
 H    0.4306458444   -2.3650099842    1.3339060841
 H   -3.4547713581   -2.1976176321   -0.5996044099
 H   -2.8347992969   -3.7285994344    0.0456557247
 H   -3.3253238334   -2.4474903353    1.1513077219
 H    0.3056470189   -2.3447852479   -1.2443680390
 H   -0.6950971451   -3.7755073563   -1.0343176165
 H   -1.2863168999   -2.4499826099   -2.0257663332