20

 C   -0.3399610685    1.4904125374    0.0286749179
 C    0.2120089785    0.0688878010   -0.0928393515
 N    0.8819094863   -0.1754326265   -1.3533914979
 C    0.2238271360   -0.4893469894   -2.6431812092
 C    0.6608709557   -1.9655080208   -2.8889896552
 C    2.0717701549   -1.2730009752   -2.9321392029
 C    1.3428837266   -0.0818244490   -3.6380946252
 C    2.1296924292   -0.7592546758   -1.4797104347
 O    2.9936800932   -0.8647603375   -0.6403771671
 H    0.4648070436    2.2247268716   -0.0670992609
 H   -1.0839572048    1.6990140027   -0.7475109980
 H   -0.8239513758    1.6297320170    1.0006091131
 H    0.9611720135   -0.1172034557    0.6827203695
 H   -0.5976373857   -0.6621514381    0.0536944378
 H   -0.8037772438   -0.1356984496   -2.7086472989
 H    0.4664912308   -2.6889239358   -2.0930822744
 H    0.3537122806   -2.3634467590   -3.8591411263
 H    2.9704881805   -1.7506498667   -3.3134082114
 H    1.0982005223   -0.2993812641   -4.6800318245
 H    1.7648633570    0.9193564836   -3.5298787300