21

 C   -0.0439405963    1.5024667541    0.0503024324
 C   -0.0654815640    0.0107372378   -0.0154904060
 C   -0.0844467324   -0.7767199054   -1.0947723875
 C    0.0256387218   -2.2357488926   -0.6741977533
 C   -0.6210134203   -2.1727798750    0.7260503814
 C    0.0461762925   -0.8768077010    1.2267584632
 C    1.5354730770   -1.2084266592    1.4869486040
 O    2.2048955233   -1.6329327382    0.3080326507
 C    1.5144756701   -2.6052104801   -0.4659686246
 H    0.8755515878    1.8653800099    0.5279349435
 H   -0.1031938852    1.9506453099   -0.9454324341
 H   -0.8781731738    1.8888770771    0.6501616979
 H   -0.0750106149   -0.4408966627   -2.1257710353
 H   -0.4415089645   -2.9517116454   -1.3569620793
 H   -1.7063877665   -2.0588886639    0.6556283923
 H   -0.3971583108   -3.0458953947    1.3492644991
 H   -0.4020292297   -0.4524797665    2.1311477071
 H    2.0898420634   -0.3304697205    1.8345899508
 H    1.6001137377   -1.9808680381    2.2723896963
 H    1.5788826186   -3.5981461757    0.0112704334
 H    2.0524960762   -2.6527682098   -1.4180144221