19

 C   -0.1364924543    1.5342326530    0.0173299446
 C   -0.0275350243    0.0268937009    0.0173255055
 C   -0.8199529916   -0.7749545482    1.0580894066
 C    0.6862826595   -0.6587516302    1.1344337307
 O    1.5245120452   -1.7687905971    0.8868464973
 C    1.5539899474   -2.3533721004   -0.3450641875
 N    2.4014459342   -3.2466727058   -0.6350198689
 C    0.4863462161   -1.9484255124   -1.3334733936
 N    0.2350141853   -0.5103670432   -1.2968959201
 H    0.7527178132    1.9816062889   -0.4365778184
 H   -1.0127024605    1.8594945577   -0.5569308903
 H   -0.2477860064    1.9229475446    1.0333629850
 H   -1.4107272446   -0.2425797208    1.7959558236
 H   -1.2263546835   -1.7380688379    0.7706988216
 H    1.1235547845   -0.0662408134    1.9301573325
 H    3.0125503001   -3.4228842943    0.1656278714
 H    0.8409599850   -2.2332576956   -2.3246852656
 H   -0.4121211490   -2.5568576026   -1.1225845041
 H   -0.5293172864   -0.2810896633   -1.9246674303