17

 C   -0.0455014535    1.5680807557   -0.0708225973
 C    1.4677664894    1.8112405126    0.0193644093
 O    1.9123344327    0.9263200423   -1.0267449337
 C    1.4871191190   -0.2868486958   -0.4021947464
 C    2.2551078336   -0.3003095583    0.9261591413
 C    1.2270118697    0.0190541574    1.9526846010
 O   -0.0625985868   -0.2643663696    1.4750134177
 C   -0.0032760027    0.0324605070    0.0835731062
 C    2.0240655888    1.1568091720    1.3187404352
 H   -0.6466576467    2.0141723453    0.7230809873
 H   -0.4121634447    1.8900825732   -1.0478340683
 H    1.8272930933    2.8215664819   -0.1718759950
 H    1.6209306397   -1.1320227456   -1.0734377707
 H    3.1687726482   -0.8600691639    1.0725716313
 H    1.3323394517   -0.1980797780    3.0088885119
 H   -0.7913333815   -0.5232966205   -0.4226476787
 H    2.7322145796    1.6987287246    1.9334637687