20

 C   -0.2394205784    1.3507131797    0.0804293887
 O    0.1546783503   -0.0029803374   -0.0621893132
 C    0.7612068841   -0.5548786888    1.0825161971
 C   -0.2276702734   -0.6805392331    2.1817592067
 N   -1.0080743288   -0.7598881549    3.0306814339
 C    1.3729061369   -1.9164561868    0.6965923133
 C    2.3999333985   -1.7387401514   -0.4267204204
 C    1.9887585589   -2.6092775556    1.9160124943
 O    2.4562793872   -3.8792016117    1.4909461474
 H    0.6191675069    1.9929252433    0.3264806174
 H   -0.6528074183    1.6586291172   -0.8816074112
 H   -1.0062400086    1.4712257624    0.8571938363
 H    1.5629041568    0.1109654448    1.4478052531
 H    0.5516937573   -2.5479301663    0.3376604970
 H    3.2199790672   -1.0848707751   -0.1043710083
 H    2.8263019747   -2.7082894513   -0.6888223738
 H    1.9385411565   -1.2968091385   -1.3109715843
 H    2.8144807610   -1.9932399239    2.3126077972
 H    1.2380961761   -2.7110318502    2.7123778260
 H    2.7979228051   -4.3461510524    2.2586510529