20

 O   -0.1194370455    1.4553062647   -0.0270901178
 C    0.0074277997    0.0386423212    0.0200037236
 C   -1.4271960019   -0.4861273244    0.0942017611
 C   -1.5790810239   -2.0058486118    0.2166470548
 C   -0.9953870874   -2.7986658438   -0.9624153407
 N    0.4571923305   -2.8936827321   -0.9606618745
 C    1.3634695158   -1.8752251810   -1.0495216251
 O    2.5626128355   -2.0844707698   -0.9894792976
 C    0.7950990886   -0.4694305040   -1.2074028342
 H    0.7652656865    1.8344327867   -0.0377806246
 H    0.5513363654   -0.2623419842    0.9309193692
 H   -1.9122940008    0.0014445995    0.9461021371
 H   -1.9538644586   -0.1353485336   -0.8034301255
 H   -1.1167858472   -2.3671190900    1.1435465509
 H   -2.6485004670   -2.2375319941    0.2867830922
 H   -1.3713977022   -3.8247330520   -0.9329874043
 H   -1.3512043346   -2.3672857235   -1.9089004491
 H    0.8794643772   -3.8003142985   -0.8290697401
 H    0.1586437496   -0.3984598464   -2.0981877522
 H    1.6643600102    0.1728424571   -1.3683743232