20

 C   -0.1543859543    1.5841521765   -0.0460196924
 C    0.0406296289    0.0749553237    0.0209539817
 C    1.0583204254   -0.6155613393   -0.9118985356
 O    0.7095228568   -1.1832713899   -2.1251986042
 C    2.4796854256   -0.2809331394   -0.5568893706
 C    1.7286744558   -1.3076760551    0.2683871759
 C    0.7944642418   -0.5765877104    1.2086617895
 C    1.0489386540   -0.0243616610    2.5569791246
 N    0.1768337564   -1.2081213427    2.3657815385
 H    0.7971545687    2.1182590860    0.0387343500
 H   -0.6224549639    1.8755223307   -0.9929471043
 H   -0.8066290951    1.9382426228    0.7605046969
 H   -0.9211694205   -0.4383502085   -0.1017883842
 H    0.9048932546   -0.5501655914   -2.8243329893
 H    3.2109880775   -0.7045092397   -1.2384590615
 H    2.7618009963    0.6769803830   -0.1259406707
 H    2.0605038571   -2.3320637061    0.3774248466
 H    1.9872431490   -0.2278324315    3.0663532184
 H    0.5863910588    0.9237574014    2.8213027442
 H   -0.8011640728   -0.9342570694    2.4358850666