16

 O    0.1641748009    1.1901042015    0.4977564097
 C   -0.0599405696   -0.1763419898    0.3405268232
 C   -1.4400801694   -0.4591781790   -0.2235329288
 O   -2.2077350765    0.4595676599   -0.4174629944
 C   -1.8065263148   -1.9025908320   -0.5317394854
 C   -3.1989604322   -2.2453811218   -0.0496433986
 C   -3.5826356217   -3.6216736530    0.2786868092
 O   -3.3009008352   -2.6721443250    1.3095806503
 H   -0.6773101985    1.6124255141    0.2611869379
 H    0.6898740869   -0.6317817517   -0.3282444640
 H    0.0171765604   -0.7208531088    1.2989909697
 H   -1.7599270264   -2.0142032254   -1.6238379396
 H   -1.0764353863   -2.5924310620   -0.0972544246
 H   -3.9703446029   -1.5423392050   -0.3599293768
 H   -4.6240756701   -3.9277599412    0.1940957197
 H   -2.8533193146   -4.4238771407    0.1708234425