17

 C   -0.1397779705    1.4935382390   -0.0351472003
 C    0.0280850523   -0.0036975510   -0.0043163051
 O    1.0862979328   -0.5841032920    0.0044281955
 N   -1.1744849234   -0.7456275789    0.0152639633
 C   -1.2740501046   -2.1132233300    0.0446506511
 C   -2.6070680007   -2.4061163362    0.0553485570
 C   -3.2711445316   -1.1402062584    0.0307520105
 C   -4.7419959792   -0.8731213822    0.0300378602
 N   -2.4007836508   -0.1454410618    0.0066987466
 H    0.8509417493    1.9464046522   -0.0510033421
 H   -0.7144994063    1.7964685046   -0.9138464780
 H   -0.7027156224    1.8333159411    0.8377715886
 H   -0.3849006815   -2.7206207250    0.0545602670
 H   -3.0590469625   -3.3850480644    0.0776117135
 H   -5.2202640377   -1.2917393275    0.9222149058
 H   -4.9280168260    0.2022537813    0.0080073287
 H   -5.2261483671   -1.3288594508   -0.8405157723