9

 O   -0.0001322600   -0.0342171709   -0.1897216942
 C   -0.0138625321    1.1666475049    0.0019439132
 C   -1.2310349357    1.9690513460    0.1483714029
 N   -1.2469234448    3.2401906665    0.3513021968
 O   -0.0451379043    3.9022750956    0.4386413874
 N    1.1714170761    3.2728622148    0.3198271375
 C    1.1845910520    2.0016866784    0.1169317226
 H   -2.2051126976    1.4912411358    0.0869644101
 H    2.1692908162    1.5503377208    0.0300309723