20

 C   -0.0727839768    1.5325575505    0.0395667661
 C    0.0260134644    0.0197428055    0.0308806905
 C   -1.1822808767   -0.6478546211   -0.6088989501
 C    1.3314081035   -0.6907389999   -0.2395456264
 O    2.5366009703    0.0547160827   -0.1019325847
 C    2.5748699661    0.4111844981    1.2078269181
 N    1.6439038088    0.0230633496    1.9803186150
 C    0.7235363201   -0.7533797047    1.1616756515
 C    0.1280639043   -1.9445650142    1.8700239445
 H    0.7433534706    2.0124096241    0.5800725295
 H   -0.0760626678    1.9210917143   -0.9849581834
 H   -1.0091134468    1.8433088560    0.5163642184
 H   -1.3751197446   -0.2053821030   -1.5927598986
 H   -1.0428512367   -1.7220625525   -0.7566792686
 H   -2.0813717082   -0.5088076574    0.0017360661
 H    1.4199676499   -1.4927625921   -0.9631783458
 H    3.4275028422    1.0179538295    1.4884889693
 H   -0.4786650873   -1.6118145061    2.7184256622
 H   -0.5040732277   -2.5445157985    1.2130071381
 H    0.9222141024   -2.5876885708    2.2619862180