23

 C    0.0888709111    1.5189412672   -0.0791090497
 C   -0.0599384842   -0.0019433653    0.0412747045
 C   -1.5079968870   -0.5337545003    0.0466585129
 C   -2.2907454035    0.0048416074    1.2495969961
 C   -2.2342251992   -0.3315826961   -1.3359207175
 C   -2.3494372037   -1.8157778258   -1.7408556601
 C   -2.9006555337   -2.5076260706   -0.4780663556
 C   -1.4862213670   -2.0918629159   -0.0177835236
 O   -1.0263937221   -2.3353201975   -1.3870768068
 H    1.1461784413    1.7953653553   -0.1399962002
 H   -0.4021726031    1.9048661737   -0.9790305665
 H   -0.3362847740    2.0451890391    0.7811678435
 H    0.4682589096   -0.4865179820   -0.7854384165
 H    0.4346056742   -0.3342766498    0.9649555047
 H   -2.3786677862    1.0947283298    1.2105052922
 H   -3.3061492256   -0.3979780273    1.2985052644
 H   -1.7858533723   -0.2495641132    2.1893773411
 H   -3.2078496114    0.1592233715   -1.2461587842
 H   -1.6293625987    0.2291569955   -2.0519049177
 H   -2.6701018562   -2.0656951009   -2.7525250529
 H   -3.7848865835   -2.1031594229    0.0183719099
 H   -2.9770165615   -3.5874181785   -0.6085372806
 H   -0.9182881532   -2.6287242832    0.7440366826