19

 C   -0.0287842496    1.5588743706    0.0905687274
 C   -0.0353275982    0.0588732436    0.1102717223
 C    1.1420478137   -0.7865893480   -0.3608012241
 C    0.6451887764   -0.9963921980    1.0196940506
 O    1.4500701166   -0.8866328347    2.1259482172
 C   -0.6176310714   -1.8561269261    1.0238283796
 O   -1.2310659582   -1.8542655263    2.2944338352
 C   -1.2901036150   -0.8124168034    0.0417460281
 O   -2.3916430647   -0.1576960429    0.6612196669
 H    0.9243680754    1.9415536884    0.4693917089
 H   -0.1663211610    1.9536381790   -0.9238073931
 H   -0.8303337765    1.9614299642    0.7164339856
 H    1.0311322179   -1.5487630636   -1.1329865866
 H    2.0741970104   -0.2320736041   -0.4196366863
 H    0.8542490477   -0.9962382128    2.8813300233
 H   -0.5195841994   -2.8950049816    0.6854850287
 H   -1.8505283928   -1.1060261392    2.2760457679
 H   -1.5753363372   -1.1863838521   -0.9505421270
 H   -3.1935399442   -0.6404066229    0.4361476851