19

 C   -0.1566505751    1.4783446225    0.1407384384
 C    0.0092112720   -0.0404484799    0.0743065338
 C   -1.3289058274   -0.7663796730    0.1593840298
 O   -2.3920050140   -0.2079207286    0.2643092068
 C    0.7636123577   -0.5014609988   -1.1843032990
 C    2.2493539147   -0.0652195102   -1.4127852382
 C    2.6247004287   -1.5202927513   -1.8249009160
 C    1.2651272456   -1.9581338645   -1.2631016639
 O    0.8144704755   -3.0037415453   -0.8903834231
 H    0.8156065362    1.9790248373    0.1332581254
 H   -0.7399337873    1.8418989671   -0.7104340002
 H   -0.6910450782    1.7689429481    1.0481981624
 H    0.5888995348   -0.3918243158    0.9434525631
 H   -1.2552001900   -1.8722898037    0.1118557515
 H    0.1656920627   -0.2800738040   -2.0788931014
 H    2.4131090037    0.7100315103   -2.1611980445
 H    2.7319945914    0.2341532342   -0.4791664049
 H    2.6743277078   -1.6631465667   -2.9092620009
 H    3.5051976009   -1.9819282775   -1.3724137789