16

 C   -0.0767225467    1.4636734228   -0.0375793841
 N   -0.0083767709    0.0071131910    0.0335168465
 C   -0.0130826923   -0.6066499505    1.2874928081
 N   -0.0751708350    0.0737004466    2.3585124232
 C    0.0628832447   -0.8319426331   -1.0879572714
 O    0.1190870928   -2.0339463464   -1.0127854005
 N    0.0619520599   -0.1297083977   -2.3023821762
 C    0.1243179053   -0.6808435045   -3.5818265996
 O    0.1889794958   -1.8417095057   -3.8683949665
 H    0.8138540142    1.8831545543   -0.5186014755
 H   -0.9763485715    1.7968197080   -0.5668710510
 H   -0.1219244963    1.8282158191    0.9881924324
 H    0.0416565260   -1.6906022773    1.1978971129
 H   -0.0674390393   -0.5443568469    3.1666273795
 H    0.0125162868    0.8759508461   -2.2738786402
 H    0.1052874566    0.1344199341   -4.3340604476