19

 C   -0.7248480076   -1.0502990550   -0.8161965573
 C   -0.3404978160    0.0223088839   -0.4330088918
 C    0.1065970373    1.3231129189    0.0365912978
 C   -0.1365975901    1.6644692926    1.5301685592
 C    1.3999765512    1.7753805137    1.6132314509
 C    2.0651305736    3.0763778369    2.1156352202
 C    2.4223559365    2.3286074753    3.4306170913
 C    2.1909229231    0.9878457701    2.6791708023
 O    1.5414148883    1.4112626803    0.2267693095
 H   -1.0587800366   -1.9983752025   -1.1590875216
 H   -0.2360978168    2.1022659092   -0.6561125833
 H   -0.6921787722    2.5870341668    1.7060737863
 H   -0.5756197696    0.8518399543    2.1098235530
 H    2.9554936525    3.2920946318    1.5178609204
 H    1.4478102635    3.9769748574    2.1732480372
 H    3.4144927113    2.5021526316    3.8504106061
 H    1.6787773985    2.4954096826    4.2143278076
 H    1.6762540488    0.1745361070    3.1972733519
 H    3.1169779942    0.6024180752    2.2428331002