22

 C   -0.2342734446    1.4298752819   -0.2177963967
 C   -0.0265955988   -0.0467858704    0.0194079897
 N    1.3483032889   -0.5617635892   -0.1424713829
 C    0.7071977591   -0.6536700710    1.1621059811
 C    1.2234572932   -0.0842556020    2.4993508921
 C    1.0404219900    1.3776120797    2.8791736935
 C    0.3370737107   -1.1486060752    3.2160964401
 C    0.2433507069   -1.9321499755    1.8797216828
 O   -0.9544688267   -2.5617772130    1.4962757923
 H    0.6238120867    2.0074524171    0.1299579279
 H   -0.3569877297    1.6235454171   -1.2891473273
 H   -1.1325654071    1.7951260591    0.2921534926
 H   -0.8208509960   -0.6802699287   -0.3782012689
 H    1.3419213625   -1.4707228823   -0.6015268201
 H    2.2807914310   -0.3572540481    2.6001975617
 H   -0.0010315180    1.6949945891    2.7638564548
 H    1.3226925596    1.5360563167    3.9259608640
 H    1.6651567764    2.0354442037    2.2669767207
 H    0.7504155140   -1.6666902952    4.0836714326
 H   -0.6386616162   -0.7276653151    3.4863867935
 H    1.0115531216   -2.7120041851    1.8234598211
 H   -1.6644123034   -1.9156840936    1.5787811455