21

 C   -0.5467583775    1.4278006204   -0.0908815407
 C   -0.0363765264   -0.0040856281   -0.0261955594
 C    1.1050450729   -0.5068456270   -0.9619430441
 C    2.3497332301    0.4144656278   -1.1326863515
 C    3.1055439935   -0.3795420165   -0.0241516308
 C    1.8192728709   -1.1912824828    0.2648517223
 C    0.8024760981   -0.4824805384    1.1702811494
 C    1.0093679160    0.1286028199    2.4865190556
 O    0.2304392474   -1.0655349555    2.3289974391
 H    0.2599108685    2.1570562366    0.0324704304
 H   -1.0353944215    1.6281823497   -1.0505397100
 H   -1.2832365856    1.6126192459    0.6987182494
 H   -0.8821597862   -0.6960647583   -0.1248234746
 H    0.7947211261   -1.0586244321   -1.8494707015
 H    2.8130295064    0.3563342355   -2.1200537547
 H    2.1762196309    1.4704707861   -0.9101431291
 H    3.9078215129   -1.0009271581   -0.4301390684
 H    3.5110952760    0.1978384345    0.8117192636
 H    1.8917402741   -2.2707162321    0.4047428852
 H    1.9610777992    0.0003477162    3.0016814165
 H    0.4467380342    1.0173444064    2.7705302336