16

 C   -0.0487217549    1.5702474602   -0.0557487665
 C   -0.0082808024    0.0210172509   -0.0353992094
 C    0.7776640687   -0.5015402997    1.2213915201
 C    2.1511293722   -0.0274710769    1.2901605428
 C    3.2842176194    0.3686199406    1.3395479490
 C   -1.3701422267   -0.5227474370    0.0103034015
 C   -2.4876403660   -0.9540201032    0.0897179829
 C    0.6609847156   -0.4621315795   -1.2605544427
 N    1.1882922305   -0.8294725903   -2.2201910576
 H    0.9678221497    1.9676084831   -0.0711756051
 H   -0.5888261269    1.9243442564   -0.9353654844
 H   -0.5626056011    1.9278686938    0.8399995998
 H    0.2152532510   -0.1786250295    2.1044769061
 H    0.7535245229   -1.5958480696    1.2123206067
 H    4.2904050372    0.7062282089    1.3826534905
 H   -3.4761256490   -1.3401913582    0.1415782962