22

 C    0.2600261698    1.6683590038   -0.0937082583
 C    0.0994234256    0.1435972797   -0.0191170998
 C    0.6799999205   -0.5666881547   -1.2563773874
 C    2.2092424508   -0.6692946677   -0.9664316920
 C    2.3370028953   -0.6308084016    0.5946243437
 C    0.8901893399   -0.5288354908    1.1320112024
 C    0.7850261349    0.1283663368    2.5073368848
 C    2.8174514641   -1.8505316123   -1.5700945515
 N    3.2920049960   -2.7930052060   -2.0432933867
 H    1.3104588468    1.9727517910   -0.1637859003
 H   -0.2551500999    2.0642017281   -0.9748418089
 H   -0.1652602275    2.1602122644    0.7856988692
 H   -0.9686193543   -0.0825971514    0.0765229401
 H    0.2591552273   -1.5730509573   -1.3406167020
 H    0.4782679557   -0.0464836472   -2.1962632297
 H    2.7179516909    0.2009811085   -1.3924639092
 H    2.8576373075   -1.5087366059    0.9823713992
 H    2.9239064759    0.2437985471    0.8913634142
 H    0.4981484393   -1.5512489848    1.2165614627
 H    1.2016834201    1.1408839885    2.5040800921
 H   -0.2572803798    0.1946930919    2.8371194530
 H    1.3326262112   -0.4499996401    3.2587194043