14

 C   -0.0078658766    1.4041914461    0.1226156247
 N    0.1148143441   -0.0318225371   -0.0471516143
 C    0.5870760366   -0.5711060893   -1.1868639632
 O    0.9609786286   -0.0154072800   -2.1836917828
 N    0.6096443278   -2.0333510130   -1.1029712433
 N    1.0318273693   -2.8115830081   -2.0922667040
 C    0.8684826568   -4.0125734321   -1.5653865737
 N    0.3658159550   -3.9737921562   -0.3020029022
 N    0.2069300002   -2.7138163140   -0.0228023026
 H    0.6038491586    1.7510837581    0.9614364699
 H    0.3389168030    1.8818595698   -0.7937920472
 H   -1.0496332906    1.6879137687    0.3026828146
 H   -0.1553376820   -0.6613308497    0.6939313612
 H    1.1090705494   -4.9254415233   -2.0851278871