22

 C   -0.1548281075    1.5306864597    0.0931888421
 C   -0.0034837046    0.0038360187    0.0481115170
 C    0.6931483688   -0.5083917917   -1.1900772787
 C    0.0967740693   -0.3759518900   -2.6064612393
 N    0.8189782044   -1.6194314173   -3.0295090510
 C    2.1372895118   -1.5702514732   -2.2938934932
 C    0.9153309916   -2.0234486456   -1.5987978717
 C    2.2313411358   -0.3016704919   -1.4471314039
 C    2.8087420835    0.9832652040   -2.0310610214
 H    0.8176767548    2.0312722431    0.1204590658
 H   -0.6951972437    1.9025561379   -0.7838594140
 H   -0.7120768402    1.8403628820    0.9824118946
 H    0.5395228216   -0.3386419270    0.9388376259
 H   -0.9986319702   -0.4577172877    0.1045804758
 H   -0.9771122710   -0.5851370984   -2.6279644508
 H    0.3045894354    0.5208760919   -3.2005238850
 H    2.9366977040   -2.1584500269   -2.7268001582
 H    0.5886176757   -2.9769264506   -1.2040916037
 H    2.7597645816   -0.5561157536   -0.5199694918
 H    2.3111133085    1.2824091227   -2.9573394038
 H    2.7359909196    1.8156069658   -1.3234526216
 H    3.8706971309    0.8445797682   -2.2639369531