13

 N   -0.0118420601   -1.0836612335    0.0347684699
 C   -0.0461547928    0.0712226013    0.0279138126
 C   -0.0672762678    1.5106633020   -0.0159746364
 O   -1.0078693500    2.1638841927    0.8606200640
 C   -0.8540059269    3.3141464604   -0.0056401429
 C    0.6448333677    3.7083341466   -0.0003740191
 C    1.2464023649    2.3503359802   -0.0224315502
 N    0.9592037579    3.0490238088   -1.3159561311
 C   -0.4404235399    2.4389283397   -1.2169731248
 H   -1.6535692937    4.0455835849    0.0660978436
 H    1.1430639227    4.6072799101    0.3365757557
 H    2.2432693789    2.0783463347    0.2960534238
 H   -1.0192692110    2.1718259520   -2.0965854651