14

 C   -0.1296934005    1.4425021255   -0.0045377751
 C   -0.0125861789   -0.0054711182   -0.0058340283
 C    0.0825083213   -1.2088079207   -0.0073671245
 C    0.1759603072   -2.6058307593   -0.0128012856
 C    1.2089973716   -3.4480819038    0.1950135565
 N    0.7101566366   -4.7344474502    0.0636005818
 C   -0.6404130817   -4.6989679036   -0.2276420923
 O   -1.4077185370   -5.6019839379   -0.4100429729
 O   -0.9675926992   -3.3601847473   -0.2737935723
 H    0.5188334781    1.8971654096   -0.7617665907
 H   -1.1593801136    1.7454567902   -0.2227133324
 H    0.1427139337    1.8652274247    0.9690137025
 H    2.2388748888   -3.2355418408    0.4214970508
 H    1.2155972836   -5.5976004981    0.1570059923