16

 C    0.2125205076    1.3515958331    0.1821143169
 C   -0.0860693034   -0.1041469466    0.0718190683
 N    0.0757978442   -0.8245904364   -0.9698205608
 C   -0.3709375599   -2.1454625333   -0.6432149826
 C    0.1997643665   -2.9251579956    0.6081086208
 N    1.1961979823   -2.3227518615    1.4457403999
 C    0.7220351896   -1.1960965973    1.7993952845
 N   -0.5932358203   -0.8273181041    1.2655784131
 C   -1.0618821185   -2.1177696816    0.6852774688
 H    0.9344477975    1.5602583749    0.9778422320
 H    0.6124355479    1.7175800715   -0.7638309510
 H   -0.7040927802    1.8963969477    0.4325390674
 H   -0.6898863371   -2.7700849300   -1.4671578293
 H    0.2156414815   -4.0033006757    0.5197996929
 H    1.2586219437   -0.4716726630    2.4013650097
 H   -2.0599703613   -2.4629735423    0.9273096596