20

 C   -0.0573454119    1.5903010875   -0.0084797866
 C    0.0136895207    0.0598578400    0.0538770561
 C    0.7486550265   -0.5806881795   -1.1726741718
 C    1.5335801523   -1.8331761120   -0.6648380240
 C    1.6637604365   -1.5447240584    0.8054683029
 C    0.8337112840   -0.5168729403    1.1670118341
 N    0.9283771890   -0.3328811262    2.5198455582
 C    1.8373081621   -1.2432608099    3.0233237158
 C    2.3082592962   -2.0168917223    1.9819707984
 H    0.9470249243    2.0252676616   -0.0478191267
 H   -0.6065505595    1.9201292078   -0.8968012519
 H   -0.5713475793    2.0060786483    0.8658569041
 H   -1.0180181411   -0.3233129653    0.1028489562
 H    0.0565623499   -0.8169677668   -1.9860604205
 H    1.4636940106    0.1531180171   -1.5614661103
 H    0.9679264715   -2.7569244964   -0.8493432643
 H    2.4891499425   -1.9465313239   -1.1889250776
 H    0.4528975978    0.3656167896    3.0634458079
 H    2.0812414579   -1.2524651037    4.0739914460
 H    3.0301324898   -2.8144508472    2.0740128738