19

 C    0.3832237784    1.5249637608    0.2382040673
 N   -0.1197462938    0.2348955612   -0.2207575667
 C    0.6818668358   -0.4209331676   -1.2345693309
 C    2.1088424234   -0.5804208955   -0.8348533556
 N    3.2070369499   -0.6788952112   -0.4869133753
 C    0.1269033886   -1.8038419251   -1.6030039392
 O   -0.6400589247   -2.4746850800   -0.6087930566
 C   -1.2872562135   -2.1282678327   -1.8508026872
 C   -2.4475433887   -1.1686058815   -1.8252517597
 H    1.4022796152    1.4889866926    0.6528677223
 H    0.3828373411    2.2349770988   -0.5963505040
 H   -0.2916923286    1.9115625349    1.0056989948
 H   -0.2671161323   -0.4113384021    0.5468574455
 H    0.6835370169    0.2021012386   -2.1405304649
 H    0.8746986748   -2.4296238694   -2.0924266720
 H   -1.4470468311   -3.0035243666   -2.4847494297
 H   -2.2290470139   -0.2985446585   -1.2072758551
 H   -2.6710235795   -0.8382172101   -2.8459173181
 H   -3.3391081580   -1.6755127166   -1.4412785550