20

 C    0.0946187440    1.5642334808   -0.0988246350
 C    0.0000833968    0.0393627204   -0.0074458430
 C    0.7513390366   -0.6799862802   -1.1422603519
 C    1.2698703914   -1.8287604430   -0.6940524458
 C    2.7149562307   -2.2662207122   -0.4963326940
 N    2.5143060485   -1.9392240436    0.9763707399
 C    2.2964640924   -0.4617013228    1.2564502880
 C    0.7232793275   -0.5896949922    1.2171022348
 C    1.0084317586   -2.0342426624    0.7859988595
 H    1.1366106073    1.8993280596   -0.1450848781
 H   -0.4133676532    1.9373329269   -0.9941361320
 H   -0.3723944454    2.0378499441    0.7712107544
 H   -1.0665461686   -0.2308824001    0.0325909490
 H    1.0587677991   -0.1595673571   -2.0438808100
 H    2.9225885571   -3.3369753294   -0.5771751534
 H    3.4899601062   -1.6969541757   -1.0183098813
 H    2.6972020286   -0.2118378563    2.2409682758
 H    2.7423929271    0.2073263661    0.5141633380
 H    0.2351621419   -0.4096529887    2.1782024422
 H    0.4904405032   -2.9154183746    1.1692738227