23

 C   -0.0641000239    1.5146962682    0.0418156711
 C    1.2909262044    0.8554988358   -0.0843703257
 C    0.0410032597    0.0127134141   -0.0040609192
 C   -0.2752286050   -0.7709210171    1.2734117218
 C   -0.2302621426   -2.3041422880    1.0522339819
 C   -0.6217081772   -2.6625992548   -0.3919700008
 C    0.4226831744   -2.0573774516   -1.3691925027
 C   -0.3876148345   -0.7341810942   -1.2611020050
 C   -1.6327450212   -1.6256601943   -0.9694258470
 H   -0.3171468786    1.9797418935    0.9898901093
 H   -0.4637522742    2.0310520246   -0.8252465187
 H    1.8033154054    0.9252096227   -1.0390545387
 H    1.9525666104    0.8808241253    0.7757009739
 H    0.3926706101   -0.4739256424    2.0886585330
 H   -1.2866100841   -0.5003028644    1.5993193585
 H    0.7741375229   -2.6978440301    1.2517478853
 H   -0.9035160296   -2.7907788176    1.7671111078
 H   -0.8596442896   -3.7245720180   -0.4919749902
 H    1.4701741022   -2.0386786106   -1.0528523620
 H    0.3504277816   -2.4974497105   -2.3679724529
 H   -0.4124537812   -0.0728508007   -2.1317632031
 H   -2.0851472342   -1.9874531677   -1.8965979223
 H   -2.4199724754   -1.2331217222   -0.3198737841