16

 N   -0.0287844389   -1.1891903545   -0.0064367328
 C   -0.0241020937   -0.0314065539    0.0022360817
 C   -0.0239152691    1.3938883724    0.0223296264
 C   -0.6652193552    2.3498362309    1.1223942516
 C    0.7275851228    3.0069340067    1.3128469128
 C    1.2079139084    2.3627923541   -0.0057098951
 O    0.6890965791    3.0483042103   -1.1618182908
 C   -0.5822871120    2.3779291614   -1.0624970922
 C   -1.4965548043    3.0257362817   -0.0001000080
 H   -1.1872704353    1.9772791847    2.0014168799
 H    0.7784368330    4.0966191248    1.3709511427
 H    1.2524814456    2.5670993693    2.1666424130
 H    2.2491798509    2.0647304825   -0.1308084411
 H   -0.9795164987    2.0920312425   -2.0367643416
 H   -2.5031205613    2.5988431940   -0.0503555953
 H   -1.5583329214    4.1163731433   -0.0084782612