12

 O   -0.0441569194    0.0457713383    0.0092551950
 C   -0.0573434369    1.2335294933    0.0752067957
 C   -1.0967072128    2.3067284652    0.0529845489
 C   -0.3785113513    3.5344485985    0.6231205808
 O    0.8968888263    3.1265008658    1.1316001717
 C    1.0435773199    2.3509396121   -0.0913481542
 C    2.3823669492    2.1103231677   -0.5450173264
 N    3.4446840380    1.8894768108   -0.9421778446
 C   -0.1034126304    3.1852144383   -0.7831003289
 H   -2.1684913453    2.2236458307   -0.0514245399
 H   -0.8915477137    4.3639170658    1.0894786444
 H   -0.2209209437    3.6329558434   -1.7576997323