20

 C    0.3881983963    1.8181143338    0.4444311637
 C    0.1680271164    0.3285380061    0.2395534035
 C    0.7062327155   -0.4552938439   -0.9901658922
 C    1.2623373953   -1.4633318911    0.0157509507
 C    2.2295653696   -0.8575118266    0.9481514646
 C    3.2729148277    0.1856599309    0.5833154717
 C    3.6261970776    1.0810378436    1.7527834767
 O    3.6255447659    2.2846405716    1.7166646133
 N    0.7871659043   -0.6501391143    1.2202783510
 H    1.4265133092    2.1394072443    0.3540116022
 H   -0.2038312674    2.3780559401   -0.2883620181
 H    0.0402616502    2.1077443235    1.4417839721
 H   -0.9066994134    0.1386507910    0.3222487104
 H   -0.0837059625   -0.8557170310   -1.6273445099
 H    1.4435903543    0.0412274177   -1.6284249853
 H    1.1068491243   -2.5368192756   -0.0376711374
 H    2.6063860779   -1.5570195305    1.6943185887
 H    4.1888848487   -0.3620156267    0.3129731655
 H    2.9981416633    0.8060437890   -0.2689226323
 H    3.9019211269    0.5368339980    2.6853689710