15

 O   -0.0378688286    0.0409464885    0.2565269502
 C   -0.0113451976    1.2080267900    0.0078582874
 O   -1.1447817718    1.9472426729   -0.1925694849
 C   -0.8103010662    3.2698626373   -0.5512364787
 C   -0.0049159533    4.1115685525    0.4234951736
 O    0.3679518224    3.5369034260    1.6466653742
 C    1.4467918335    2.6282060249    1.3984441216
 C    1.2060543614    2.1445979592   -0.0472789008
 C    0.6800449480    3.4134517230   -0.7256890825
 H   -1.5436085728    3.7201056453   -1.2078778692
 H   -0.1635829395    5.1840320898    0.4554647609
 H    2.4149477446    3.1426433503    1.4799217670
 H    1.3965651099    1.8266249535    2.1393095319
 H    2.0680702762    1.6633107209   -0.5059137740
 H    1.1741242639    3.8875573260   -1.5626176467