16

 C   -0.0837293241    1.5177339390    0.0441729016
 C    0.1958858601    0.0562451273   -0.0458854808
 O   -0.6524273786   -0.8551755581    0.6734581365
 C    0.7673487427   -0.9241596158    0.9161194136
 C    1.3652297344   -1.7894076345   -0.1961035157
 C    0.7326984587   -0.7814163398   -1.2328877435
 O   -0.2253409701   -1.2557864531   -2.1295702803
 C    1.2312340716   -0.7319155049    2.2543645554
 N    1.6434870487   -0.5822961764    3.3245768437
 H    0.7813629079    2.0952150604   -0.2948675252
 H   -0.9352413263    1.7772427747   -0.5937379571
 H   -0.3199105015    1.8017439866    1.0725924569
 H    2.4565812776   -1.7923477266   -0.2126828388
 H    0.9856500922   -2.8125143785   -0.2309668132
 H    1.4947585365   -0.2586199913   -1.8152941444
 H   -0.9432001498   -1.6222083089   -1.5969223788