25

 C   -0.5850867265    0.2835001013   -2.7699804321
 C   -0.3051142829   -0.5519115471   -1.5098390297
 C    0.8286635844    0.0701285158   -0.6789882445
 C   -1.5779684333   -0.7883136387   -0.6864760139
 C   -2.2552119161    0.4636539462   -0.1487010681
 C   -2.4963894537   -1.9170573992   -1.1416203223
 C   -1.7060589891   -2.0523009980    0.1421182555
 C   -0.6110777092   -3.0905082241    0.2718815853
 O   -2.4143028869   -1.8838093325    1.3500350333
 H    0.3060761716    0.3305027334   -3.4046066998
 H   -1.3986033941   -0.1495642307   -3.3608397865
 H   -0.8622769726    1.3127932525   -2.5201053216
 H    0.0464918687   -1.5301739248   -1.8579904240
 H    1.7467478995    0.1417515887   -1.2717752899
 H    0.5752084507    1.0825602172   -0.3481909901
 H    1.0476321326   -0.5267180473    0.2116068344
 H   -2.5843065357    1.1125633065   -0.9667141331
 H   -3.1247470407    0.2039944005    0.4547154446
 H   -1.5799120381    1.0439809456    0.4885495152
 H   -3.5669264357   -1.7627596076   -1.0509086633
 H   -2.1954942195   -2.5129781432   -1.9988161399
 H   -0.0481997966   -3.2313928923   -0.6528406754
 H    0.0874098583   -2.8188047994    1.0697341090
 H   -1.0511362038   -4.0616163804    0.5332303230
 H   -2.9075689813   -2.6955166024    1.5122708240