23

 C   -0.0029572586    1.5388285595    0.0366691362
 C   -0.0265416023    0.0370809996    0.0001014211
 C   -0.8591774489   -0.7815893878   -1.0029741554
 C   -1.1961189970   -1.8100013616    0.1241194287
 C   -0.3533468651   -0.9868961274    1.1046843805
 C    1.0613640358   -0.8173049029    0.6035404556
 C    1.8630418918   -1.8632755067   -0.1079890871
 C    3.3035836815   -1.5885352528   -0.4699078676
 C    2.9760652596   -2.5794127286    0.6194859486
 H    0.5540719159    1.9498066174   -0.8148731005
 H   -1.0162691349    1.9566632636   -0.0012194034
 H    0.4759517640    1.9076373398    0.9501204316
 H   -1.7468696040   -0.2392512006   -1.3391115636
 H   -0.3333364464   -1.1549318375   -1.8881469405
 H   -2.2590334259   -1.8071861810    0.3753269902
 H   -0.8862981224   -2.8480508384   -0.0357812244
 H   -0.6061501695   -0.8102920060    2.1448370854
 H    1.6660343183   -0.2452738226    1.3079839913
 H    1.3120550206   -2.4664183235   -0.8215286368
 H    3.6821078760   -1.9644870914   -1.4142268981
 H    3.7235188563   -0.6320057577   -0.1751780418
 H    3.1746114116   -2.2883419514    1.6460815432
 H    3.1295031035   -3.6347847121    0.4221976770