23

 C   -0.1505791857    1.5151131264    0.1202845837
 C   -0.0891091823    0.0010264670    0.2194432706
 O   -1.3248085299   -0.5270297399   -0.2521845833
 C   -1.4052647049   -1.9017686033   -0.2023955013
 C   -1.6483102588   -2.6439481388    1.0880327947
 C   -2.6631329794   -2.7425538955   -0.0365144098
 C   -4.0999259309   -2.3393159382    0.1222117879
 C   -2.1284260601   -3.7395180830   -1.0787911241
 C   -0.8544719989   -2.8493987226   -1.2743842440
 H    0.7839114822    1.9589116589    0.4766680986
 H   -0.3100098477    1.8264232589   -0.9160064013
 H   -0.9740897358    1.9060754497    0.7248161750
 H    0.7443274954   -0.3924827045   -0.3825938022
 H    0.0789950140   -0.3193492073    1.2588479226
 H   -1.0445132451   -3.5019976109    1.3795142838
 H   -1.9571001660   -2.0066995221    1.9114368786
 H   -4.1879281377   -1.4406594484    0.7407657861
 H   -4.5605908781   -2.1222454033   -0.8483924793
 H   -4.6878422193   -3.1328330937    0.5992514381
 H   -1.9574318742   -4.7590473568   -0.7173324051
 H   -2.7448178298   -3.7867913134   -1.9802520107
 H   -0.8318605403   -2.3813139818   -2.2614088061
 H    0.1173168132   -3.3139310372   -1.0767499323