13

 O    0.0272610151    0.0657901473    0.3877377936
 C    0.1384141992    1.1951096222    0.0281747634
 O    0.8913951696    2.0995689623    0.6976510270
 C    0.9339581797    3.4376116311    0.1981304149
 C    2.3592856322    3.8790754707    0.1033229441
 N    2.7276277284    5.0954436824    0.4027584832
 O    4.0705094906    5.1450891019    0.1727929932
 N    4.5471088384    3.9414071322   -0.2620271085
 C    3.5113663047    3.1519345571   -0.3119761716
 H   -0.3436045621    1.6233277023   -0.8726154029
 H    0.4507255587    3.4868924907   -0.7871498717
 H    0.3877378841    4.0960952208    0.8785300008
 H    3.6059080412    2.1216531292   -0.6160185855