14

 O   -0.0682111103   -0.0016518874   -0.2852788566
 C    0.0287666196    1.2033365794   -0.2426295349
 C    1.2684504038    1.9175541917   -0.0767527634
 C    2.2928033399    2.5431238113    0.0558429531
 C    3.5251294651    3.3003419338    0.2251367258
 C    3.3035748547    4.8036795267    0.2620940564
 C    4.3296109312    5.7348817839   -0.2186396372
 O    3.1625961252    5.4533676326   -0.9955542485
 H   -0.8616852555    1.8584912785   -0.3313247334
 H    4.0163255876    2.9827256175    1.1550852918
 H    4.2155011067    3.0615716872   -0.5929680551
 H    2.6062140258    5.1456569770    1.0271706740
 H    4.3870455564    6.7389988747    0.1977168574
 H    5.2635519097    5.3444407732   -0.6213069894