16

 C   -0.0769756800    1.5402709120    0.0387615472
 C    0.0818824903    0.0543207416    0.0203749533
 N   -0.8210452856   -0.8882256538    0.7186324919
 C    0.6284707869   -0.9033761431    1.0075344649
 C    1.3460563455   -1.6998521998   -0.1364458879
 N    0.3296798422   -2.1385035752   -1.1346341925
 C    0.7805550102   -0.7437695671   -1.1400389807
 C    2.6483224824   -2.2595250980   -0.0665998418
 N    3.7134445772   -2.7090734459    0.0105594835
 H    0.8422059576    2.0385878233   -0.2882257998
 H   -0.8874752307    1.8604378865   -0.6260436121
 H   -0.3075584952    1.8939870753    1.0489637844
 H   -1.2613934098   -0.3669624314    1.4779130140
 H    1.0365011250   -0.7528950609    1.9979842819
 H    0.8365313978   -2.6247101894   -1.8761643283
 H    1.2795448862   -0.2975641241   -1.9908188481