19

 C   -0.0778300474    1.5327541136   -0.0299987438
 C    0.1217038132    0.0341431513    0.0328391599
 O    1.2100784231   -0.4548551074   -0.8054603748
 C    1.7645249923   -1.1970862453    0.2831849633
 C    2.2596694633   -2.5776212481    0.0097547142
 C    2.2221261987   -0.2632605301    1.3509195886
 C    0.7374129259   -0.6284688371    1.2764329168
 C    0.0160853754   -1.2300290672    2.3388363747
 C   -0.6152138981   -1.7368322815    3.2307342349
 H    0.8126430308    2.0735503488    0.3004327227
 H   -0.3038799626    1.8389936962   -1.0562669474
 H   -0.9200089329    1.8233693686    0.6065465402
 H   -0.8003771072   -0.4896990513   -0.2468564895
 H    3.1444423713   -2.5442927343   -0.6361320122
 H    2.5374425970   -3.0751514832    0.9428737020
 H    1.4924447098   -3.1740310872   -0.4925004383
 H    2.7318968640   -0.7197152141    2.1928052875
 H    2.5557604149    0.7374138349    1.0923219686
 H   -1.1682900214   -2.1848191865    4.0184023126