13

 N    0.0188364606    1.1618508519   -0.6570862209
 C   -0.0030456364    0.0049819989   -0.1264255135
 C    1.1924592053   -0.6837239238    0.4181559463
 N    1.5268326911   -1.9081107093    0.2732003662
 C    0.7297235658   -2.8663938668   -0.3168532566
 N   -0.5523778918   -3.0004922554   -0.3510701565
 N   -1.3901665694   -2.0436118514    0.1344041996
 C   -1.3554365832   -0.6490663364    0.0705525825
 O   -2.3676431083   -0.0124267276    0.2290448725
 H    0.9735734025    1.5350726150   -0.6727047399
 H    1.8892740112   -0.0381725167    0.9598800789
 H    1.2770899263   -3.7107384682   -0.7241808918
 H   -2.3450296139   -2.3790342902    0.1810976732