18

 C   -0.0995258468    1.5461698930    0.0270710195
 C   -0.0428784478    0.0334285341    0.0496638817
 C    1.2522864088   -0.7057315783   -0.2339570610
 C    0.7196850352   -0.7095306629    1.1771841918
 C    1.4237010199    0.0786022193    2.2747103793
 C    0.1586272229   -1.9535792090    1.6577983307
 N   -0.2647059064   -2.9458790001    2.0757920505
 C   -1.2769917445   -0.6346810179   -0.4724405084
 O   -2.2301568907   -0.0296483760   -0.8932776640
 H    0.8660567852    2.0005003530    0.2539098311
 H   -0.4102227179    1.8782834547   -0.9667815811
 H   -0.8394732460    1.9222447344    0.7391175892
 H    1.2032767680   -1.6294685781   -0.8003797259
 H    2.1314588802   -0.1003442964   -0.4255733491
 H    1.9255737478    0.9585263783    1.8704279281
 H    0.7145100295    0.4039629632    3.0407658082
 H    2.1780147764   -0.5503525909    2.7560321741
 H   -1.2533420338   -1.7450636404   -0.4645633847