17

 C   -0.0525937761    1.3532997627    0.0427233817
 O   -0.0515694027   -0.0740952479    0.0403142526
 C   -1.2656177520   -0.6402045986    0.0038570188
 N   -2.4276712989   -0.0250047454   -0.0296223081
 C   -3.3464979763   -1.0472916601   -0.0579760400
 O   -4.6720448620   -0.7827201912   -0.0967293300
 C   -2.7456012556   -2.2710436274   -0.0417942116
 N   -1.3700794510   -1.9887895828   -0.0009053584
 C   -0.2899998821   -2.9502535577    0.0294711279
 H    0.9961123490    1.6508181523    0.0728197675
 H   -0.5340552745    1.7421192107   -0.8593754522
 H   -0.5841098887    1.7390777922    0.9176414534
 H   -4.7527713165    0.1782392236   -0.0972038035
 H   -3.1245540690   -3.2768009638   -0.0545331929
 H   -0.3091956498   -3.5858528001   -0.8621775805
 H    0.6563935846   -2.4105538224    0.0582529518
 H   -0.3617125484   -3.5886108340    0.9164567033