20

 C   -0.0786998990    1.5573239665   -0.3082139765
 C   -0.0375023950    0.0582700410   -0.1349589289
 C    0.3715913374   -0.9785728280   -1.1777462487
 N    0.0506347431   -1.8969889681   -0.0099361648
 C    0.6315417252   -0.8413092409    0.9681067811
 C   -0.6203099315   -0.9585926098    1.8503557129
 C   -1.0166974834    0.1220316010    2.8327251103
 O   -2.3693416235   -0.1213351202    3.1990656793
 C   -1.1160297025   -0.9557436069    0.3971394595
 H    0.9134992410    1.9374116163   -0.5776017296
 H   -0.7658395812    1.8274380732   -1.1182096740
 H   -0.4042822171    2.0838823925    0.5924533159
 H   -0.2847238283   -1.1270785362   -2.0430026483
 H    1.4229437724   -1.0146790207   -1.4863733791
 H    1.6883678314   -0.8779618689    1.2449176846
 H   -0.7174203684   -1.9447360361    2.3176438060
 H   -0.3509249266    0.0723898902    3.7100589149
 H   -0.9010971691    1.1234040962    2.3954383439
 H   -2.6211364578    0.5238365269    3.8662051662
 H   -2.1201997269   -1.1262244881    0.0044511151