17

 O   -0.0747909174    1.3591863013    0.0546225269
 C    0.0532930412   -0.0254304532    0.0577477673
 C    0.8885404410   -0.7730770894    1.0902654796
 C    0.4451356443   -2.1206447316    0.5113959815
 O   -0.9737136462   -2.0694769775    0.5983288600
 C   -1.3136162283   -0.7997159510    0.0140697086
 C   -1.1927476614   -0.8893019496   -1.5247355351
 C    0.3336468699   -0.7847540177   -1.3039219856
 O    0.8472302965   -2.0498482971   -0.8539304441
 H    0.7931447606    1.7466851740   -0.1025862088
 H    1.9651438315   -0.6092994347    0.9989228515
 H    0.5528390505   -0.6183857217    2.1171265720
 H    0.8036942860   -3.0511499694    0.9461023662
 H   -2.2051069368   -0.3954525002    0.4941609905
 H   -1.5668918620   -1.7954531045   -2.0029863157
 H   -1.5912019438    0.0057661149   -2.0100327246
 H    0.9919729145   -0.3721495525   -2.0709785201