21

 O   -0.7560088418    1.1717157167    1.0619558116
 C   -0.0923176655    0.2918317677    0.1527614490
 C    0.9372702641   -0.6414891375    0.8711824731
 C    0.1497674579   -1.8831006488    1.2283465823
 C   -1.1845476555   -1.7453793118    1.9106762094
 C   -1.1442713589   -1.8875416087    0.4136321782
 C   -0.9071666445   -3.3547202603    0.0071067540
 C    0.4204825095   -3.3506069731    0.8433287873
 C   -1.1776476575   -0.6459884460   -0.4528019923
 H   -0.0853927249    1.7118906396    1.4920278238
 H    0.3993329690    0.8866287439   -0.6306137164
 H    1.7423776510   -0.9026411034    0.1729277541
 H    1.4047631555   -0.1179221911    1.7151605031
 H   -1.5576398596   -2.5718878714    2.5110144169
 H   -1.4305890424   -0.7599994026    2.2862081390
 H   -1.6806896808   -4.0706834818    0.3045055623
 H   -0.7232417235   -3.4754282107   -1.0637275612
 H    1.3074064104   -3.4691481700    0.2152632492
 H    0.4897228864   -4.0637975860    1.6716494404
 H   -2.1348955817   -0.1165890923   -0.4886528408
 H   -0.9041116574   -0.9059099325   -1.4819811229