13

 N    0.0262248734    1.3473775938    0.0094474452
 N    1.2907471014    1.8337307796   -0.0003464978
 C    2.0997107368    0.7906517955   -0.0138730556
 C    1.3544573594   -0.4260731824   -0.0130648938
 C    0.0016909678   -0.0134540020    0.0024139402
 C   -0.9848143901   -1.0020381465    0.0067986349
 N   -0.6254674922   -2.2764284843   -0.0035455145
 C    0.6973011340   -2.5653181639   -0.0180660908
 N    1.7158395479   -1.7194796035   -0.0235321173
 H   -0.7412269895    1.9970224031    0.0204912756
 H    3.1699223452    0.9280143699   -0.0236420274
 H   -2.0491187531   -0.7756940538    0.0184494868
 H    0.9419049092   -3.6238226055   -0.0261324555