20

 C   -0.1275765491    1.6102038144    0.1200262915
 C   -0.0100276185    0.0834299914    0.1638269296
 O    0.4603189216   -0.3574558125    1.4293104224
 C   -1.3530672899   -0.5786914414   -0.1243822673
 C   -1.6479678129   -2.0561598337    0.0403796792
 C   -0.6482856080   -3.0745723211    0.5396028152
 N   -2.2325906659   -1.0622623443    0.9148684689
 C   -2.1549126747   -0.9710381349    2.2877330617
 O   -2.2840404788   -1.9045930907    3.0438461402
 H    0.8468538315    2.0753079251    0.3084605845
 H   -0.4708876399    1.9513255199   -0.8616030146
 H   -0.8312771659    1.9653005975    0.8788950215
 H    0.6847891351   -0.2379065833   -0.6308745932
 H    1.2651931232    0.1262982520    1.6387616238
 H   -1.8713118951   -0.0772261919   -0.9429108568
 H   -2.3666036198   -2.4617295368   -0.6732099303
 H    0.1065648072   -2.6204949685    1.1794663410
 H   -1.1647857027   -3.8503051773    1.1113116809
 H   -0.1537207907   -3.5496204472   -0.3146113345
 H   -2.0578817869    0.0765981733    2.6270520259