18

 C    0.1222925054    1.4248162210    0.1613461757
 N   -0.0224194362   -0.0132332314    0.0297465680
 C   -1.1443307516   -0.6035755294   -0.0587516757
 N   -1.1622824141   -1.9975670185   -0.0743370731
 C   -2.2485282937   -2.6996095811   -0.7338827691
 C   -3.5577196520   -2.2171212685   -0.1265434574
 N   -3.5944344767   -0.7656245666   -0.1946112915
 C   -2.5141034752    0.0679905372   -0.0954709185
 O   -2.6430468213    1.2783372452   -0.0585659802
 H    1.1862620496    1.6471199264    0.2878831194
 H   -0.2437270427    1.9593080510   -0.7222436465
 H   -0.4284335262    1.8294755882    1.0170350976
 H   -0.2322087389   -2.3737125522   -0.2045150331
 H   -2.2664399727   -2.5351905204   -1.8239065259
 H   -2.1332732525   -3.7724862419   -0.5581382206
 H   -4.4070324930   -2.6203813882   -0.6864863486
 H   -3.6350055623   -2.5699522841    0.9115749230
 H   -4.4836520862   -0.2898537067   -0.1381735035