16

 O   -0.1745835659    1.3843706900    0.0043548738
 C   -0.0981456234   -0.0159401837    0.0512727803
 C   -0.4369422177   -0.8082533632    1.2787101201
 C   -1.3555299907   -0.8120836399    0.0303575450
 C   -2.4537939369   -0.0940192999    0.8106388967
 O   -3.5532609649   -0.9749588988    0.9871817495
 C   -1.5234483131   -0.0751307656    2.0902011823
 O   -2.0617463365   -0.7976614016    3.1633963344
 H    0.5688963921    1.7393875566    0.5030735618
 H    0.7045113085   -0.4406463068   -0.5527215004
 H    0.2071729276   -1.5837948771    1.6775301290
 H   -1.5500559384   -1.5850006337   -0.7036154697
 H   -2.7815587814    0.8737067744    0.4166199671
 H   -4.2507647716   -0.4839608689    1.4347339804
 H   -1.2402975042    0.9110082060    2.4681739249
 H   -2.6343279336   -1.4686799278    2.7627049148