17

 C   -0.0520687121    1.4912075691   -0.0110285718
 N   -0.0435890538    0.0286239561    0.0275892273
 C    0.1485329136   -0.6110563102    1.2562980257
 N    0.3133505963    0.0485426578    2.3290842786
 C   -0.2156636371   -0.7641098186   -1.1022582085
 O   -0.2501164951   -1.9785931013   -1.0450706085
 C   -0.3716142958   -0.0331478534   -2.4301161586
 C   -0.0524618626   -0.9286563270   -3.6205903405
 O    0.4466329743   -0.5081541643   -4.6310512049
 H    0.8657355747    1.8864015820   -0.4579278600
 H   -0.9134726667    1.8604482550   -0.5712288110
 H   -0.1140069108    1.8380379427    1.0193308592
 H    0.1345098805   -1.6945175158    1.1467704855
 H    0.4350971650   -0.5871008158    3.1147593934
 H   -1.4259421733    0.2684279728   -2.5256257805
 H    0.2238864947    0.8781237114   -2.5051107213
 H   -0.3261282918   -1.9920250004   -3.4894752541