16

 C    0.2200510406    1.0765268904    0.1004056877
 C    0.1175995771   -0.4206167072   -0.2674165119
 N   -1.2697194358   -0.8651770978   -0.1505494509
 C   -1.6945910593   -1.2978420408    0.9705548132
 N   -1.0472668863   -1.3930642007    2.1876292424
 C   -3.0860931140   -1.7156825898    1.0351265504
 N   -4.1835552791   -2.0669742876    1.1211959934
 C    0.5953422060   -0.6584767582   -1.6318301867
 C    1.0213992421   -0.8350725628   -2.7405465614
 H    1.2466784992    1.4277441922   -0.0293347577
 H   -0.4376248979    1.6587908304   -0.5482125159
 H   -0.0825315647    1.2328358476    1.1396394383
 H    0.7890582937   -0.9844194213    0.4050807312
 H   -0.0407253510   -1.3460271759    2.1903308352
 H   -1.4441227018   -2.0161176238    2.8734504411
 H    1.3850633114   -0.9997776346   -3.7246576486