17

 C   -0.2366951370    1.4554633725    0.1753273807
 C    0.0160097066   -0.0237344511   -0.0349100715
 C    0.6914301114   -0.6201256118   -1.2277698621
 C    1.4870619142    0.3000659414   -2.1457616432
 C    2.5842785917    0.9163653271   -1.2794824528
 O    3.3378731792    1.8031620508   -1.5719687944
 C    2.5934757884    0.1635518931    0.0915639081
 O    3.4834348180    0.2535801931    0.8976563150
 C    1.3859665395   -0.6974567989    0.1397155805
 H    0.5458133067    2.0947779750   -0.2406460673
 H   -1.1828230290    1.7471774722   -0.2930696364
 H   -0.3085641579    1.6842890154    1.2431378915
 H   -0.7752404857   -0.6484306571    0.3722423203
 H    0.2738175519   -1.5236077586   -1.6567232587
 H    1.9779651494   -0.2788802502   -2.9376063317
 H    0.8930898196    1.0752375326   -2.6388767088
 H    1.4341646529   -1.6032016455    0.7308963110