16

 C   -0.1489400285    1.5853666813    0.0108400994
 C    0.0556727624    0.0697212075    0.0581551215
 C    0.7646748442   -0.4749076387   -1.1852044017
 O    2.0675759231    0.0902121348   -1.2369094648
 C    2.7719529474   -0.0498063523   -2.3849954164
 O    3.8931565175    0.3397732624   -2.4920337429
 C    0.8264510273   -1.9991803991   -1.1764084988
 O    1.8222404120   -2.6337462139   -1.3947424491
 H    0.8091300844    2.1026237573   -0.0795624271
 H   -0.7732302942    1.8734746517   -0.8420937540
 H   -0.6426754413    1.9356311712    0.9213055783
 H    0.6486257594   -0.2062583224    0.9375930302
 H   -0.9096745870   -0.4420314181    0.1494758730
 H    0.1858071933   -0.1883119988   -2.0807626075
 H    2.1902019817   -0.5240955516   -3.1962534672
 H   -0.1505108119   -2.4890022014   -0.9650151529