17

 N    0.0043154520   -1.1641064393    0.0136594912
 C    0.0177444461   -0.0090250762   -0.0161777901
 C    0.0046083993    1.4566613480    0.0108392734
 C   -0.7648206176    1.9797803114    1.2581904931
 N   -0.7209511043    3.4318997264    1.3670104178
 C    0.6446830961    3.9575811078    1.2738911546
 C    1.4033503712    3.4389603600    0.0430595296
 N    1.3759418364    1.9757544073   -0.0797872593
 H   -0.5307138875    1.8015112803   -0.8861299920
 H   -1.8071666033    1.6470199562    1.2306371574
 H   -0.3039178913    1.5457465017    2.1550798819
 H   -1.2984167154    3.8487289876    0.6422277567
 H    0.6001421399    5.0520907589    1.2728426430
 H    1.1819260274    3.6569401803    2.1845669926
 H    0.9530052736    3.8584016361   -0.8678496724
 H    2.4504789274    3.7594503761    0.0603014020
 H    1.9363817100    1.5583508674    0.6589966105