18

 C    0.0809242458    1.5298586355    0.0374065128
 C   -0.0227124087    0.0473486962   -0.0795868802
 C    0.8181659199   -0.9738674969   -0.7640301324
 C   -0.3512410678   -1.9866423704   -0.7685708462
 C   -0.3628132373   -1.8800396102    0.7369309521
 N    0.8122037078   -0.9016232374    0.7450840792
 C   -1.2283275075   -0.9445377554   -0.0619499029
 C   -2.7092972072   -0.7776351656   -0.1077554367
 O   -3.2777035069   -2.0805301556   -0.0764098664
 H    1.1345689899    1.8216883662    0.0911715221
 H   -0.3707913374    2.0325099952   -0.8251549890
 H   -0.4143831939    1.8934177205    0.9448490017
 H    1.7312857906   -0.8820468669   -1.3416715585
 H   -0.6534701834   -2.7886738218   -1.4255092002
 H   -0.5863412729   -2.5933161775    1.5196919255
 H   -3.0498742418   -0.1740154608    0.7503877227
 H   -3.0024518440   -0.2353294404   -1.0228947799
 H   -4.2348398352   -1.9900817048   -0.0664044038