15

 O    0.0177309046    1.4696656298   -0.1394715802
 C    1.2663061802    0.8085763152    0.0053523237
 C    0.0083936236    0.0414297869   -0.0263838947
 C   -0.0550842189   -0.7145640318   -1.3926228560
 N   -0.8198905447    0.1608265312   -2.3079279121
 C    0.0485372619    0.9596218829   -2.7810950679
 N    1.4425760898    0.6274524226   -2.6373306696
 C    2.0427027543    0.4954448661   -1.2611834745
 C    1.3978407186   -0.6620082960   -1.9294276422
 H    1.8290826206    1.0472459792    0.9052749224
 H   -0.5051720385   -0.3478362294    0.8478606039
 H   -0.4955887743   -1.7062609059   -1.2971512846
 H   -0.1959000937    1.8282649164   -3.3830022065
 H    3.1162228095    0.6519774418   -1.2507863272
 H    1.9136541470   -1.5111579190   -2.3671662443