17

 C    0.0952706667    1.4611138604    0.0098862108
 N    0.0137239205    0.0143136147    0.0020072673
 C   -0.0124676332   -0.8198772187   -1.0908039244
 C   -0.0074639262   -0.3567099810   -2.5061165367
 N   -0.0466329622   -2.0693192896   -0.6996738433
 N   -0.0381221539   -2.0772302600    0.6804635570
 C    0.0009530061   -0.8323457941    1.0854231546
 C    0.0234512413   -0.3853389617    2.5057479794
 H    1.1348138650    1.8078812995    0.0072959555
 H   -0.4081864356    1.8653745982   -0.8705346405
 H   -0.4004779475    1.8554237345    0.8991714004
 H    0.8914375219    0.2218249722   -2.7480403003
 H   -0.0365490737   -1.2360572798   -3.1508663459
 H   -0.8770547363    0.2695009133   -2.7381353283
 H    0.9253110049    0.1904764603    2.7431159525
 H   -0.8431509359    0.2381615156    2.7555715686
 H    0.0022550681   -1.2719552738    3.1407764234