16

 O    0.0401434382    1.4343199725   -0.1204389227
 C    0.0196352164    0.0537520012    0.0772202232
 C   -0.2315651366   -0.4999342761    1.4987926859
 O   -1.3409749819   -1.3020752513    1.0330394350
 C   -1.2719213097   -0.7491435051   -0.2956313467
 C   -2.4721529322    0.0913023436   -0.6505803069
 C   -3.6855591417    0.0692007098    0.1747157153
 O   -2.7645340530    1.1648521140    0.2591254227
 H   -0.7763608975    1.7947409967    0.2496618526
 H    0.9218611685   -0.3418997627   -0.3935406005
 H    0.5598024169   -1.1150048886    1.9413404743
 H   -0.5493364157    0.2647880000    2.2183277412
 H   -1.1420133980   -1.5346408135   -1.0521757964
 H   -2.5543638579    0.3651232117   -1.7025694710
 H   -4.6459441215    0.3123891116   -0.2754198470
 H   -3.7044356743   -0.5796798938    1.0453972409