16

 O   -0.0040438475   -0.1287936884    0.0681360889
 C    0.0280835497    1.0727224256    0.1805944500
 C    1.2757955924    1.8750944347    0.0674963650
 C    2.6672818634    1.3174027303   -0.3425725655
 N    3.0310338502    2.7518588768   -0.6897972257
 C    1.5784908347    2.9074450527   -1.0824486133
 C    3.0100687846    3.3670485226    0.6620631764
 C    1.7049562116    2.7685212566    1.2458744978
 O    1.1724325325    2.9534679682    2.3022051161
 H   -0.8958305318    1.6626604086    0.3674506358
 H    3.2958430018    0.8484461280    0.4176467254
 H    2.6284334071    0.6993291435   -1.2404913393
 H    1.4029295090    2.4925003128   -2.0766188859
 H    1.1752234556    3.9207550572   -1.0090330232
 H    3.8883664935    3.0785391388    1.2456685498
 H    2.9685163333    4.4582846421    0.6068543076