19

 C    0.2560635508    1.5713774570   -0.2159555841
 C    0.1518055400    0.0868819790    0.0405476871
 N    1.4027813507   -0.6958303469    0.1017487395
 C    0.5516639735   -0.6093748550    1.2964962324
 C    1.1439999314    0.0170848566    2.5376976249
 C    2.3796918646   -0.7152476187    3.1214327171
 C    3.1349222508    0.5769220387    2.7582310546
 O    1.9188592532    1.2149009186    2.3148188946
 H    1.1098146106    1.9946789633    0.3106362663
 H    0.3647893135    1.7594132080   -1.2899919834
 H   -0.6530035044    2.0819162041    0.1214922514
 H   -0.6777331613   -0.3912137825   -0.4825749165
 H    1.2888999829   -1.5949610209   -0.3573881130
 H   -0.0430633010   -1.4891202245    1.5524934682
 H    0.3376074557    0.2069359882    3.2599888179
 H    2.3241518609   -0.9382699509    4.1878408108
 H    2.6848161227   -1.6070044688    2.5723490846
 H    3.5951657779    1.1204246927    3.5916986672
 H    3.8590514675    0.4792723921    1.9419862104