11

 N   -0.0623244311    1.3151899809    0.0084678317
 C   -0.0056683189    0.0579209823    0.0011414721
 N   -1.1118254262   -0.7843225596    0.0030712288
 C   -0.7790320933   -2.1189254444   -0.0063456654
 O   -1.5170304452   -3.0692528719   -0.0072133245
 C    0.7495264765   -2.1058808962   -0.0153756543
 O    1.1155290046   -0.7228879353   -0.0098923961
 H    0.8727853514    1.7173068868    0.0051166334
 H   -2.0542875502   -0.4282680491    0.0106685212
 H    1.1520550048   -2.6057402967    0.8709402415
 H    1.1414444276   -2.5958637668   -0.9119018283