20

 C    0.0515340221    1.5902625722    0.4408844757
 C    0.0504268585    0.1489819337    0.2366819565
 C    0.0477092219   -1.0450701204    0.0713328282
 C    0.0699910695   -2.4706821210   -0.1542593509
 C   -0.6169032623   -3.3382944743    0.8541356789
 N   -1.2171334261   -3.1402501886   -0.4709782844
 C    1.2692381173   -2.9814665793   -0.9111822561
 C    1.2243326352   -4.3072260502   -1.6227532893
 C    1.2468936121   -3.0252159108   -2.4175123223
 H    0.9662624020    2.0434113582    0.0430541514
 H   -0.7973753292    2.0655520626   -0.0633353629
 H   -0.0088751151    1.8455322557    1.5047907193
 H   -0.2272617395   -4.3371143559    1.0299234917
 H   -1.0722119814   -2.8566718702    1.7140710687
 H   -1.9678512853   -2.4574689386   -0.4121851500
 H    2.2119311463   -2.7047335898   -0.4483956611
 H    2.1170764606   -4.9224538256   -1.6028784957
 H    0.2871106892   -4.8506256928   -1.5982855534
 H    0.3228246143   -2.7348092092   -2.9048691541
 H    2.1491933600   -2.7555621456   -2.9548056501