16

 C   -0.0659373687    1.4603421303   -0.1402906084
 C   -0.0088359350   -0.0553011102   -0.0758319405
 O    0.9370222308   -0.7086437894   -0.4622462704
 N   -1.0985308030   -0.6485111869    0.5573060532
 C   -2.5591973241   -0.4153482810    0.2064333274
 C   -2.3828525380   -1.4241955165   -0.9760083501
 C   -1.5588283665   -2.0434877387    0.2053951753
 C   -2.7920096365   -1.6830584833    1.0781241426
 O   -3.5272049586   -2.1305863132    1.8908131979
 H    0.9453668647    1.8454255977   -0.2720982027
 H   -0.6692492795    1.7722555441   -1.0007778448
 H   -0.5170212090    1.8867346804    0.7589334007
 H   -3.0221720087    0.5678418875    0.2252104765
 H   -3.2658837103   -1.9619321132   -1.3306271924
 H   -1.7597776742   -1.0556938419   -1.7916354390
 H   -0.8832632032   -2.8924415156    0.2082009847