16

 N   -0.0322812569   -1.1495928373   -0.0449068852
 C    0.0152642378    0.0042902573   -0.0304195679
 C    0.0015688306    1.4702917648    0.0211573720
 C   -0.7549760866    1.9870933956    1.2698520525
 N   -0.6742884113    3.4370083362    1.3913501718
 C    0.7090173468    3.9094431615    1.2801458493
 C    1.4186559645    3.3485931477    0.0473438972
 O    1.3443247548    1.9251541035    0.0213725554
 H   -0.5183283704    1.8370984448   -0.8822726804
 H   -1.8025471898    1.6748292377    1.2302148834
 H   -0.2985870866    1.5311898471    2.1559663174
 H   -1.2455389947    3.8753392980    0.6740403114
 H    0.7143928158    5.0040135143    1.2602764978
 H    1.2497524551    3.5899382889    2.1796750071
 H    0.9667266097    3.7621756428   -0.8709691661
 H    2.4850862612    3.5908419273    0.0450828443