17

 C    0.7071839067    0.9848688338    0.2753340505
 C    0.3046342056   -0.4127492711    0.2234843141
 C   -0.0477680576   -1.5636168081    0.1880186804
 C   -0.4439171800   -2.9790275660    0.1436216314
 C   -1.8152870222   -3.1028876144   -0.3941374296
 N   -2.8901135259   -3.1953336137   -0.8052054360
 N    0.4255419304   -3.9018073066   -0.6075276612
 C    1.0787738914   -3.4095229630   -1.8178037059
 C    1.8661827063   -3.6589674089   -0.5780966911
 H    1.7976027199    1.0830910986    0.2539437702
 H    0.3023244580    1.5441090434   -0.5744707736
 H    0.3471168435    1.4612154889    1.1932842292
 H   -0.4724861600   -3.3647462861    1.1722568171
 H    1.0994725881   -4.1142766014   -2.6427656789
 H    0.9251381550   -2.3695940563   -2.0944409446
 H    2.2276206090   -2.7815846699   -0.0475760354
 H    2.4754529018   -4.5515167991   -0.4744474165