13

 O    0.1856598660    1.3757256593   -0.0351699763
 C    0.0325007922   -0.0078145710   -0.0664889330
 C   -1.4004556855   -0.4400437064   -0.0445231019
 N   -2.3358183176    0.4235693543   -0.0013585267
 C   -3.6510149312   -0.0319608534    0.0173145113
 N   -4.6275113756    0.7615511955    0.0604931516
 O   -3.8380800535   -1.4125826420   -0.0142784969
 N   -2.7287485258   -2.3148797245   -0.0619011039
 N   -1.5906810160   -1.8505474196   -0.0756670083
 H   -0.7022313907    1.7613844702   -0.0051372737
 H    0.4957479839   -0.4461746729   -0.9670405750
 H    0.5359802097   -0.4903867420    0.7887160312
 H   -5.5117276459    0.2528617126    0.0678921316