15

 N   -0.2341636015    1.4225156729    0.0164255112
 C    0.0239175142    0.0255730607   -0.0125995097
 C   -0.9644351783   -0.9300495263   -0.0019430804
 N   -2.3146044974   -0.6994106040    0.0368708428
 C   -3.3722164271   -1.5893662022    0.0519678606
 N   -3.2333879855   -2.8504549709    0.0297110932
 O   -0.4501169173   -2.1542775565   -0.0350526462
 N    0.9631950121   -2.0457408265   -0.0700841655
 C    1.2057436704   -0.7582847447   -0.0561671200
 H    0.1756612712    1.8694123222    0.8305314258
 H    0.1339414587    1.8956246025   -0.8027807089
 H   -2.5237988057    0.2889342546    0.0577181475
 H   -4.3239074824   -1.0454879730    0.0851869527
 H   -4.1448100050   -3.3025715077    0.0472147701
 H    2.2349507036   -0.4246098312   -0.0778053430