18

 O   -0.1219090030    1.4800870392    0.0644242288
 C    0.0293750579    0.0755920607   -0.0517323983
 C   -1.3688907579   -0.5290285216    0.0104369865
 C   -1.3805204703   -2.0706376878   -0.0168690139
 C   -2.8261930076   -2.6219015909    0.1346782172
 C   -2.8828031571   -4.0714101279    0.2558196603
 C   -2.9041945099   -5.2674592263    0.3636877689
 C   -0.7581365482   -2.5813586220   -1.2436851004
 N   -0.2656833882   -2.9554695801   -2.2200702426
 H    0.7374987023    1.8887049948   -0.0730930012
 H    0.5151173375   -0.2027830790   -0.9981827290
 H    0.6464417104   -0.3307962539    0.7672740452
 H   -1.8514879104   -0.1973517131    0.9362128424
 H   -1.9634731645   -0.1377027298   -0.8220923129
 H   -0.7887607111   -2.4488319310    0.8258644613
 H   -3.2663499721   -2.1555096653    1.0240090196
 H   -3.4251340389   -2.2902294781   -0.7216563839
 H   -2.9309661888   -6.3258087378    0.4475038621