21

 C   -0.2467971939    1.4230493886   -0.0298922859
 C    0.0375829626   -0.0739304596    0.0131110624
 C    1.2500298724   -0.5510917758   -0.8473047121
 C    2.1489767620   -0.3364248734    0.4031729918
 C    0.8617794087   -0.5647462343    1.2451191258
 C    0.6407321857   -2.0660505977    1.4434258634
 C    0.8019905482   -2.8583936778    0.1367792587
 O    0.6854607187   -4.0596975182    0.1073173331
 C    1.1183518027   -2.0492524169   -1.1306369681
 H    0.6553066497    2.0193747702    0.1417897215
 H   -0.6549967694    1.7153209833   -1.0035597162
 H   -0.9783897327    1.7038439628    0.7356145919
 H   -0.8962031303   -0.6233957974   -0.1637352743
 H    1.4825436117    0.0145701610   -1.7538231564
 H    2.9831739145   -1.0296171808    0.5534396847
 H    2.5247347432    0.6853568386    0.4795588123
 H    0.7522871358   -0.0111139848    2.1817690607
 H    1.3455064769   -2.4881478413    2.1703859806
 H   -0.3632822676   -2.2782866640    1.8320527973
 H    0.3210800671   -2.2542172621   -1.8562175427
 H    2.0379896040   -2.4637911805   -1.5616449682