16

 O    0.2710352508    0.0544264750   -0.2556390332
 C    0.3031577515    1.2447025946   -0.3329436878
 O    0.7762276234    2.0284489820    0.6544185807
 C    0.8084470819    3.4433134880    0.4363202054
 C    2.2396594586    3.9154028673    0.2064648435
 C    2.3178991825    5.4494784401    0.0728593808
 C    3.6772306960    5.9243072499   -0.1508106265
 C    4.8063246692    6.2912932434   -0.3354609370
 H   -0.0540572539    1.8260837952   -1.2066975112
 H    0.1650499246    3.7064852038   -0.4145296032
 H    0.3811356079    3.9030376918    1.3332180022
 H    2.8656459023    3.5838399327    1.0403590251
 H    2.6401134128    3.4463485964   -0.6985784486
 H    1.6753540104    5.7822699221   -0.7534701258
 H    1.9118820491    5.9180750823    0.9792961173
 H    5.8008363030    6.6259510753   -0.4979845317