22

 C   -0.1417581029    1.6198569367    0.1923180702
 C   -0.0864807455    0.0908011590    0.1822420223
 C   -1.4585384770   -0.5732031342   -0.0845094839
 C   -1.9612419928   -0.2095727282   -1.4178595121
 N   -2.3421610731    0.0688562099   -2.4734117796
 C   -1.4493832780   -2.0986003922    0.0850422926
 C   -0.5411463889   -2.8673702925   -0.8563800002
 C   -1.6251652186   -2.6109225754    1.4948306843
 C   -2.7511287015   -2.7417965490    0.4959344046
 H    0.8475474126    2.0413348283    0.3922091842
 H   -0.4853950813    2.0108709694   -0.7702452228
 H   -0.8239053790    1.9878879366    0.9667242344
 H    0.6309874463   -0.2493327547   -0.5713622510
 H    0.2682305434   -0.2823182361    1.1494627220
 H   -2.1741165032   -0.1614175675    0.6398977411
 H    0.5136502274   -2.6164064131   -0.7026230172
 H   -0.6487473155   -3.9440089190   -0.6967053296
 H   -0.7904428489   -2.6572568971   -1.9020141490
 H   -1.0824635815   -3.5059144079    1.7794110117
 H   -1.7384260828   -1.8898054694    2.2980831149
 H   -3.6227172731   -2.1084368974    0.6233031626
 H   -2.9751513960   -3.7260911062    0.0999389104