21

 C    0.0345299503    1.3033972162    0.1899116922
 O   -0.0724768069   -0.0818374249   -0.0406037895
 C    0.6027277914   -0.5499519101   -1.2056288501
 C    2.1252984573   -0.6105574096   -0.9988449210
 C    0.0272246782   -1.9012051209   -1.5148178792
 C   -0.3539225491   -2.3868277821   -2.6918374789
 C   -0.8380003141   -3.7999307605   -2.5366567371
 O   -0.7060358630   -4.0892987300   -1.1482528127
 C   -0.1893397344   -2.9552698591   -0.4562668433
 H    1.0590948523    1.6181357549    0.4355300998
 H   -0.3055418887    1.8866320159   -0.6804261749
 H   -0.6103204203    1.5360676276    1.0410134786
 H    0.3880810510    0.1283537807   -2.0475143294
 H    2.6111729174   -0.9970028058   -1.8992639747
 H    2.5370904117    0.3814675688   -0.7926294128
 H    2.3730131386   -1.2671573069   -0.1600208823
 H   -0.3352159769   -1.8670358625   -3.6421606202
 H   -1.8887490081   -3.9191669762   -2.8479425869
 H   -0.2459652930   -4.5180324181   -3.1273334559
 H    0.7414046894   -3.2306690909    0.0645341301
 H   -0.9011118631   -2.6174219764    0.3098551781