17

 C    0.4177908866    1.5155174919    0.4028134279
 C    0.0644166959    0.1115200759   -0.0915337891
 C    0.9659317727   -0.3429883751   -1.2451150754
 O    2.2973388403   -0.4334077594   -0.7505213712
 C    3.2904914904   -0.6546022545   -1.7294549947
 C    3.4592058658    0.4993660394   -2.6320310922
 N    3.5673664539    1.4103007629   -3.3341898539
 C    0.5333464166   -1.6478577914   -1.7900207493
 N    0.2161902503   -2.6726469387   -2.2194810069
 H    1.4505507420    1.5576678145    0.7557676768
 H    0.3005342225    2.2576658905   -0.3939644988
 H   -0.2389517540    1.8032000355    1.2280046304
 H    0.1547126265   -0.6210205751    0.7172207369
 H   -0.9715823121    0.0740840034   -0.4441682661
 H    0.9180118169    0.3931793711   -2.0620241823
 H    4.2241500808   -0.8260110508   -1.1873748632
 H    3.0774928849   -1.5488446801   -2.3320155189