16

 N   -0.0022819990    1.1869044034   -0.0525353054
 C    0.0523444545   -0.1624221531    0.0202746235
 O    1.0516491034   -0.8376305516    0.1267507394
 C   -1.3701033160   -0.7653533619   -0.0478075199
 O   -2.3733900784   -0.0960423770   -0.1157570750
 O   -1.3278126299   -2.0918513608   -0.0193436186
 C   -2.5968044140   -2.7843923521   -0.0295257859
 C   -2.2588805407   -4.2647562224   -0.0121970938
 O   -1.5314756847   -4.6278581143    1.1410899021
 H    0.8482479480    1.7214831512   -0.0048466261
 H   -0.8977942145    1.6416993564   -0.1211884883
 H   -3.1621722386   -2.4917805682    0.8600478838
 H   -3.1632006492   -2.4965883905   -0.9207170610
 H   -3.1905836502   -4.8398236711    0.0011075469
 H   -1.7179685962   -4.5235687994   -0.9355731468
 H   -0.7224349145   -4.1032698885    1.1386800651