21

 C   -0.0371899975    1.5939740947   -0.0065424987
 C    0.0048264963    0.0639762881   -0.0156683383
 C    0.7317471714   -0.5015604646   -1.2390822338
 C    0.7144511941   -2.0417537454   -1.2666103765
 O   -0.5999097294   -2.5446215724   -1.2808255882
 C    1.4590710772   -2.5713419178   -2.4855298794
 O    0.9088035944   -3.1752051384   -3.3780911846
 O    2.7646234646   -2.2860722296   -2.4594784884
 C    3.5228739870   -2.7385410286   -3.5926318107
 H    0.9718786947    2.0216638884   -0.0046137012
 H   -0.5574746816    1.9810178520   -0.8898013918
 H   -0.5598904916    1.9708966824    0.8780342012
 H    0.5003283832   -0.2968581486    0.8957290348
 H   -1.0120249810   -0.3410549463    0.0048059183
 H    0.2526588358   -0.1358716831   -2.1570670852
 H    1.7731192488   -0.1594908923   -1.2575623657
 H    1.2355308286   -2.4134533385   -0.3710051142
 H   -0.7085882242   -2.9701036239   -2.1446023283
 H    3.1462172309   -2.2833723653   -4.5116835976
 H    4.5498524205   -2.4275982519   -3.4036636397
 H    3.4605524678   -3.8254266287   -3.6839803819