19

 C   -0.3855808910    1.3723094968    0.1408070493
 C    0.2726541932    0.0068683538    0.1354726096
 C    0.8199496832   -0.5226173913   -1.2079839651
 C    2.2107922685   -0.3895705987   -0.5427337391
 O    1.6135913350    0.0427023338    0.7032912326
 C    3.0343730338   -1.6428079606   -0.3806165160
 C    3.8220085394   -1.8577400919    0.8546295046
 N    2.6207549619   -2.6739284355    0.5797609306
 H    0.2136826242    2.0981262612   -0.4180944034
 H   -1.3801455039    1.3173015583   -0.3156208705
 H   -0.4991917802    1.7380987272    1.1659796747
 H   -0.3488511072   -0.7134953813    0.6831038155
 H    0.5334712153   -1.5465510174   -1.4535158758
 H    0.6427637346    0.1227727898   -2.0702453128
 H    2.8355238060    0.4050017595   -0.9743010660
 H    3.4168955874   -2.0366958969   -1.3215696951
 H    4.7653045240   -2.3945071583    0.8143754393
 H    3.7493292326   -1.0997939467    1.6291851675
 H    1.8617383931   -2.2874982618    1.1399897601