17

 O    0.0078672913   -0.0313298061   -0.2440402932
 C    0.0948001268    1.1700359242   -0.3557873658
 C    1.3155253717    1.9614855699   -0.0780014298
 C    1.1823406694    3.3232180572   -0.1068677652
 C    2.1675374346    4.2885116030    0.2982291983
 C    3.5031084650    4.1131411295    0.2372978063
 C    4.1347966130    2.9335063172   -0.4548170902
 C    3.7548695613    1.6767147648    0.2918274067
 C    2.4879485478    1.2390483385    0.3732832995
 H   -0.7779664585    1.7807828973   -0.6814721857
 H    0.1908992265    3.7088924419   -0.3429251824
 H    1.7841540235    5.2235116304    0.7005431336
 H    4.1564874410    4.8613642436    0.6778600063
 H    3.7694608191    2.8735094792   -1.4890528728
 H    5.2201301369    3.0460621078   -0.4980791606
 H    4.5497063752    1.1009640145    0.7576741677
 H    2.2828546554    0.2664034570    0.8114171272