20

 C    0.0758370240    1.5277185264   -0.0943264649
 C   -0.0106170309   -0.0009762082    0.0609337353
 C   -1.4143552361   -0.5363248000    0.0315504286
 C   -2.1415727513   -0.9714247248    1.1176056403
 N   -3.3795947869   -1.3657833372    0.6779976546
 C   -3.4636058276   -1.1931823451   -0.6796826008
 C   -2.2640704757   -0.6800399976   -1.1146748142
 C   -1.9298337631   -0.3436558770   -2.5339052109
 O   -2.8930201065   -0.9486256457   -3.3882624913
 H    1.1162779490    1.8690790487   -0.0693562883
 H   -0.3617652079    1.8566741386   -1.0424285387
 H   -0.4691375641    2.0305397777    0.7106968664
 H    0.5853924473   -0.4724082040   -0.7323425288
 H    0.4644260673   -0.2913546213    1.0054146157
 H   -1.8706220757   -1.0361255077    2.1598835545
 H   -4.1052565097   -1.7483741786    1.2570654724
 H   -4.3474244408   -1.4595098664   -1.2336942325
 H   -1.9203683546    0.7502444518   -2.6809794214
 H   -0.9118194722   -0.6963657625   -2.7737870858
 H   -2.7443293444   -0.6199963871   -4.2792434503