15

 C   -0.0078101710    1.4081447269    0.0219500466
 C    1.4292899622    1.9807387285    0.0098675214
 C    2.1587827487    1.2329975430   -1.0467118507
 C    1.7166091264    0.0836963797   -1.6189157033
 C    0.4359136199   -0.5784003981   -1.2202013682
 O   -0.0158168627   -0.0105513633    0.0042923878
 N    2.6492701180   -0.2802078769   -2.5563667067
 N    3.5995792813    0.5404871551   -2.5823910768
 O    3.3190406079    1.5722599501   -1.5892381713
 H   -0.5299275469    1.7022910462    0.9351537958
 H   -0.5671418943    1.8081215623   -0.8382753425
 H    1.4157294003    3.0570634559   -0.1918638392
 H    1.9116090756    1.8351607452    0.9835914268
 H   -0.3302426333   -0.4684727939   -2.0051875003
 H    0.5701874778   -1.6477962708   -1.0340985994