15

 O    0.0409262005    1.4658216024    0.0389433478
 C    0.0517048322    0.0487694748    0.0383061395
 C   -1.3343558721   -0.5253966070   -0.0476465457
 O   -2.1435383841   -0.3712035834    1.1661086876
 C   -3.0690278594   -1.3343744728    0.5909953360
 C   -3.4688613190   -0.6871320978   -0.7152177757
 C   -2.3126745716   -0.1436909722   -1.1384121224
 C   -1.7439412169   -2.0685471832    0.0962772110
 O   -1.2657954696   -3.1449907287    0.0213009999
 H   -0.5065983757    1.7457899887    0.7809578310
 H    0.6238423943   -0.2611054190   -0.8421512518
 H    0.5570131917   -0.3591687164    0.9253029805
 H   -3.7963966362   -1.7487375295    1.2836693910
 H   -4.4300001241   -0.7529178469   -1.2029015046
 H   -2.0719019702    0.3656179409   -2.0594480042