17

 C    0.0419076288    1.3448967088    0.0923945327
 O    0.0143873850   -0.0660198471    0.0372291636
 C   -1.2277647461   -0.6169656104    0.0118224061
 C   -2.4610727011   -0.0088393393    0.0315502663
 N   -3.4138435667   -1.0333645644   -0.0113736280
 C   -2.7808796236   -2.2315333437   -0.0559969872
 O   -3.4763748287   -3.3867763560   -0.1031971849
 C   -1.4198013804   -2.0367482321   -0.0440772763
 N   -0.4978902091   -3.1221084864   -0.0834301875
 H    1.0919603670    1.6427541710    0.1074298240
 H   -0.4505865944    1.7869468152   -0.7851126854
 H   -0.4563833370    1.7173174056    0.9984760154
 H   -2.7598206826    1.0227466628    0.0707633293
 H   -4.4100504412   -0.9122491087   -0.0098899868
 H   -2.7988502263   -4.0792425268   -0.1281466994
 H    0.1098475723   -3.1214012492    0.7312172317
 H    0.1153971242   -3.0578444094   -0.8913532438