15

 C   -0.0264462380    1.4672628638    0.0107693999
 C    0.0104017765    0.0145305571    0.0025920111
 C    0.0546492397   -1.1908060611   -0.0042422408
 C    0.0676537001   -2.6157625676   -0.0119818713
 N    1.2511377826   -3.2551977675   -0.0223363498
 C    1.2032420331   -4.5853196113   -0.0292293341
 C    0.0022623205   -5.2911303526   -0.0260216597
 N   -1.1783854566   -4.6665851379   -0.0157706268
 C   -1.1400030951   -3.3383113034   -0.0088370737
 H    0.9848482198    1.8871313353    0.0035389484
 H   -0.5571154152    1.8537791122   -0.8664303761
 H   -0.5404622149    1.8442158062    0.9019419585
 H    2.1559011428   -5.1094675050   -0.0376152938
 H   -0.0100617346   -6.3776107200   -0.0318031370
 H   -2.0889915408   -2.8094758982   -0.0004532847