20

 C    0.0590107189    1.3976498634    0.0308091724
 N    0.0107415438   -0.0195440454   -0.2684266263
 C    1.1854478770   -0.7820700570    0.1175738466
 C   -1.2149114059   -0.6547004509   -0.1214601129
 N   -1.2851583885   -1.9705501702    0.0826084660
 N   -2.6205089308   -2.2306701171    0.1041926724
 C   -3.3894793834   -1.1287301888   -0.0548556128
 C   -4.8827968359   -1.1752806276   -0.0527038739
 C   -2.5122375087   -0.0735782876   -0.2040430971
 H    1.0277271833    1.7952471584   -0.2850904257
 H   -0.7142879871    1.9321663625   -0.5270635032
 H   -0.0716061719    1.6250913149    1.1030988422
 H    1.2758032462   -0.9095165229    1.2092419147
 H    1.1367118870   -1.7757889157   -0.3293422427
 H    2.0790480302   -0.2675323015   -0.2479386412
 H   -2.9232886136   -3.1761409383    0.2589894646
 H   -5.2771413030   -1.5716015104    0.8902599487
 H   -5.2892374716   -0.1708519764   -0.1870567554
 H   -5.2718880754   -1.8036801071   -0.8622270093
 H   -2.7807910707    0.9584441877   -0.3537726670