17

 C    0.0749338348    1.4765619450   -0.1179617700
 C   -0.0312529144   -0.0155871199    0.0318501804
 C   -1.3269457693   -0.7075408618    0.5212264278
 N   -0.5401716249   -1.6600144376    1.3747523533
 C    0.6291585941   -2.1502315992    0.5607846355
 C    0.6751533539   -0.8069862112    1.1685200905
 C    0.6252718459   -1.9810772088   -0.9198609309
 N    0.8756038616   -2.8812773936   -1.7688373290
 O    0.3627431689   -0.6629596821   -1.1992236766
 H    1.1021555591    1.7652145080   -0.3595396119
 H   -0.5781011311    1.8283635405   -0.9220452948
 H   -0.2188885132    1.9740310988    0.8104079694
 H   -1.9270279935   -0.0796678821    1.1840691774
 H   -1.9591238580   -1.1648934055   -0.2461113051
 H    1.1163625539   -3.0155397274    0.9878341648
 H    1.3211275016   -0.4603519164    1.9660834339
 H    0.8531933005   -2.4987842768   -2.7158470248