19

 O    0.0482171214   -0.0126703995    0.2116300924
 C   -0.0135895786    1.1828618420    0.0562572982
 C   -1.3527306944    1.9141341261    0.0084301227
 C   -1.4726063048    2.9150000881   -1.1643099652
 C   -1.1372043603    2.2609973986   -2.4794270700
 C    0.0912741884    2.1579379917   -2.9897931325
 C    1.3462240053    2.7211427487   -2.3607560011
 O    1.9037281183    1.9013558740   -1.3332949902
 C    1.2906373835    2.0089243630   -0.0627473342
 H   -2.1320618789    1.1485784762   -0.0412744579
 H   -1.4797724008    2.4525048088    0.9587502404
 H   -2.4930932546    3.3104230201   -1.1824935125
 H   -0.8124229611    3.7695761532   -0.9828308111
 H   -1.9610487372    1.7760245491   -2.9992424690
 H    0.2299280310    1.5991200364   -3.9115203989
 H    2.1349976693    2.7967279625   -3.1140790955
 H    1.1692979202    3.7339337921   -1.9671541743
 H    1.1216729197    3.0648948553    0.2012081255
 H    1.9989094636    1.5753168236    0.6487867932