15

 C    0.0647701145    1.5064740131    0.0111545795
 C    0.0045409086    0.0059834459    0.0020043757
 C   -1.1903914191   -0.6760615586    0.0325924557
 N   -2.4315523309   -0.1301654182    0.1048108413
 C   -1.1616028738   -2.1334526464    0.0140159798
 O   -2.1526103575   -2.8514820003    0.0179660679
 N    0.1289883477   -2.6153480980   -0.0173107835
 N    1.2954812799   -1.9154472140   -0.0387980901
 N    1.2136691446   -0.6454631230   -0.0305827765
 H    1.1064530794    1.8296122500    0.0143406171
 H   -0.4255864522    1.9371105249   -0.8718959785
 H   -0.4339014172    1.9212142738    0.8959166962
 H   -2.5803134482    0.8342994213   -0.1348421195
 H   -3.1921882900   -0.7798307294   -0.0342619334
 H    0.2538452242   -3.6191828010   -0.0345013815