22

 C   -0.2819655249    1.4372188057   -1.0503339853
 C   -0.2253698396    0.0130496680   -0.7522113268
 C   -0.1739928141   -1.1653402382   -0.5000881976
 C   -0.0822810607   -2.5871536378   -0.2687198898
 C    0.9468826789   -3.3001788520   -1.1305950129
 C   -0.4032807103   -3.1158152045    1.1096068043
 C   -0.7417038747   -2.2142338843    2.2753047712
 N   -1.3112727815   -3.3688610539   -0.0058400222
 C   -2.6134832764   -2.7184352537   -0.0505189676
 H    0.7111516380    1.8956454467   -0.9847878187
 H   -0.6645025509    1.6200280841   -2.0607977234
 H   -0.9360358934    1.9657786321   -0.3480771726
 H    1.9490555608   -2.8976849625   -0.9519085413
 H    0.9455201773   -4.3690848126   -0.9038276981
 H    0.7143185574   -3.1733777547   -2.1925899737
 H    0.1465390886   -4.0115895573    1.4024786179
 H   -1.1264905089   -1.2446282624    1.9551888931
 H   -1.4834401362   -2.6865063831    2.9291038118
 H    0.1572215363   -2.0332452770    2.8738112674
 H   -2.6141382581   -1.6576096610    0.2312754794
 H   -3.0040577075   -2.7935350944   -1.0702939958
 H   -3.2973493403   -3.2590426771    0.6117628208