17

 C   -0.0770957056    1.6188861350   -0.0099582564
 C   -0.0667837302    0.0792523972   -0.0240165630
 C    0.6202640024   -0.4800544421   -1.1821358113
 C    1.1976589618   -0.9298421609   -2.1395770488
 C    1.8620231343   -1.4300185410   -3.3116426468
 O    3.2272641425   -1.8358028717   -3.2011465158
 C    2.2691048898   -2.8565902723   -3.4786458695
 C    2.0283024570   -3.8356698806   -2.3742904929
 O    1.6421477618   -4.9601339117   -2.5651383329
 H    0.9418467516    2.0143464216    0.0044073404
 H   -0.5807607390    2.0128258093   -0.8966204686
 H   -0.6026246366    1.9848371757    0.8766143261
 H    0.4112028860   -0.2966000965    0.8893938277
 H   -1.0968978223   -0.2987122684   -0.0020875416
 H    1.6375662104   -0.8999098013   -4.2374159191
 H    2.2865914683   -3.2770689659   -4.4831325645
 H    2.2419872880   -3.4341023164   -1.3622183128