18

 C    0.1004317256    1.3039529082    0.1921626309
 O    0.1981995411   -0.1076689887    0.0761172728
 C    0.5916020798   -0.5558437785   -1.1746737623
 O    1.9590771638   -0.1353371975   -1.3912551730
 C    2.8339006923   -0.9567722908   -2.0230299250
 N    2.7149908256   -2.1829305770   -2.3063256187
 C    1.5204401081   -2.8454950889   -1.8899589575
 C    1.2323553987   -2.9644275175   -0.4101172118
 C    0.4000122105   -2.0443625738   -1.2616404925
 H    1.0793448673    1.7856406365    0.0948676308
 H   -0.5774965490    1.7184022463   -0.5685537853
 H   -0.3079803724    1.5099595901    1.1833321598
 H    0.0077629603   -0.0504335737   -1.9612767696
 H    3.7373500761   -0.4080183899   -2.2797791325
 H    1.2574131592   -3.6904528184   -2.5168507903
 H    0.7677737622   -3.8742186440   -0.0473918807
 H    1.9496497769   -2.5172401602    0.2688129911
 H   -0.6243408763   -2.3344791423   -1.4701192162