16

 C    0.0203890100    1.4295726189    0.0302709637
 N   -0.0747402556   -0.0099125515    0.1323462064
 C   -1.4293973251   -0.5555102674    0.2178849666
 C   -1.2298598296   -1.8552647091    0.9388365321
 C   -0.0045083293   -1.9035742141    1.4730068096
 C    0.7525227168   -0.6271570341    1.1676789947
 C    0.5377225869   -2.9534898990    2.2584159258
 N    1.0072971713   -3.7934179360    2.9034051724
 H    1.0626636455    1.7236685373   -0.1285441513
 H   -0.5578516276    1.7793963359   -0.8308270982
 H   -0.3504098193    1.9594667268    0.9287293448
 H   -2.1271312071    0.0885502265    0.7927329002
 H   -1.8737608162   -0.6810911072   -0.7794377553
 H   -1.9911259131   -2.6188227523    1.0279667405
 H    1.7734018111   -0.8114872851    0.8094255677
 H    0.8393156113   -0.0131882596    2.0856840203