14

 O    0.0623480787    0.0395313110   -0.1567135337
 C   -0.0038172912    1.2224357655    0.0198790271
 C   -1.1093992054    2.2617869752   -0.0439573473
 N   -0.8861174385    3.1735869107    1.1306938428
 C   -0.0600269837    3.3474493478   -0.0718243916
 C    1.0567757557    2.3240411250    0.0759334191
 C    2.3603787851    2.3327592235    0.7684513902
 N    2.2878682268    2.2759416260   -0.7015356447
 H   -2.0738541162    2.1999221931   -0.5301011610
 H   -1.6431175389    3.8577362174    1.0921475085
 H   -0.0517719053    4.2501958440   -0.6670373686
 H    2.7436334545    3.2658415974    1.1708716264
 H    2.6423408712    1.4369751189    1.3157169575
 H    2.4359538573    1.3207562842   -1.0259755646