15

 O   -0.0469389139   -0.0413274660   -0.0871761441
 C   -0.0407064858    1.1400928850    0.0474593698
 C   -0.9675791744    2.3773863778    0.0705064192
 C   -0.0069167301    2.9864334048    1.1267857248
 C    0.9276447262    2.3585604969    0.0553114433
 C    2.4300586679    2.4610167669   -0.0623382766
 C    2.9221715462    1.9027359864   -1.3217948920
 N    3.2887372171    1.4728655018   -2.3292017483
 N   -0.0215303752    2.9690127811   -0.9745997171
 H   -2.0468431712    2.4773960316   -0.0087705848
 H    0.0017214572    4.0777426870    1.1159227180
 H   -0.0026154334    2.5557473391    2.1286509207
 H    2.7387689348    3.5105150116    0.0017459968
 H    2.8987265411    1.9302619208    0.7739418542
 H   -0.0284329664    2.4185348651   -1.8390887639