21

 C   -0.0525954432    1.5756496157    0.1384861347
 C    0.0259023023    0.0369787958    0.0655533323
 C    0.6609050057   -0.4792407371   -1.2496147078
 C   -0.0988781517   -0.0930761081   -2.5137379361
 C    0.1584652594    1.2797675723   -3.1835387959
 O    0.4803446397    0.6584912476   -4.4424535219
 C    0.4267460391   -0.6562928327   -3.8546855093
 C    0.7493460908   -0.4964543765    1.2192077371
 C    1.3656636301   -0.9262279918    2.1578561950
 H    0.9452096819    2.0184000578    0.0632293276
 H   -0.6717915621    1.9735052898   -0.6704574121
 H   -0.4908560256    1.8928634704    1.0880471275
 H   -1.0019403172   -0.3524125046    0.1064963609
 H    1.6970472859   -0.1230860596   -1.3129956039
 H    0.7158247689   -1.5729342091   -1.1912183713
 H   -1.1682106920   -0.2896182694   -2.3852818490
 H   -0.6963320755    1.9613544530   -3.2688153655
 H    1.0135151388    1.8331126889   -2.7709510541
 H    1.4226853130   -1.1177719570   -3.7904915162
 H   -0.2406230601   -1.3290452244   -4.4059206007
 H    1.8992111119   -1.3099922311    2.9918204087