16

 C    0.1606521613    1.5900578432   -0.0765151295
 C    0.0035829964    0.0739206454    0.0818866171
 N    0.5571239646   -0.6787176066   -1.0329766286
 C    1.8472086882   -1.1012438885   -0.7740445912
 O    2.6609872189   -1.5194962783   -1.5439960798
 O    2.0661291308   -0.9840092296    0.5766762063
 C    0.8725867639   -0.5610947663    1.2168226554
 C    1.1600633481    0.3796190095    2.3711113035
 O    2.2294601598    0.8630507857    2.6168681327
 H    1.2164231120    1.8722207145   -0.1253870952
 H   -0.3299637374    1.9246715115   -0.9958794970
 H   -0.3026219367    2.1257553823    0.7580382408
 H   -1.0498165888   -0.1798937174    0.2347055572
 H    0.3502071770   -0.4217094752   -1.9858768015
 H    0.3486299554   -1.4395788333    1.6233984880
 H    0.2585694466    0.5879525231    2.9929060220