19

 C   -0.0454852698    1.5031482773    0.0352082555
 C   -0.0230262732    0.0086644212    0.0023233031
 C   -0.3138588460   -0.7866423422   -1.0318309234
 C   -0.1403812672   -2.2237107772   -0.7038655173
 C   -0.7892411478   -3.3112573874   -1.4777950669
 N    0.6669102314   -3.1072891744   -1.5812327255
 C    0.1103301593   -2.2737008301    0.8081568815
 C    0.3898564541   -0.8034376054    1.2154486180
 H    0.9414866674    1.9057532841    0.2980262691
 H   -0.3403834564    1.9277144051   -0.9282704630
 H   -0.7421414644    1.8727601360    0.7986823253
 H   -0.6135379726   -0.4476748465   -2.0192285426
 H   -1.0844366982   -4.2286983043   -0.9734343813
 H   -1.4219152631   -3.0398258033   -2.3202654968
 H    0.8867724825   -2.6212376840   -2.4485780815
 H   -0.7819354832   -2.6449758463    1.3222849322
 H    0.9338250512   -2.9511949901    1.0428461812
 H    1.4494702484   -0.6280780610    1.4481327343
 H   -0.1671967626   -0.5082370214    2.1130341482