19

 O    0.0460317155    1.4389238583    0.0592210922
 C   -0.0316731702    0.0200859454    0.0372901507
 C    0.6013448916   -0.5703779229    1.3080311853
 C   -0.2187677556   -1.8459464546    1.6169596841
 C   -1.5242583761   -1.5877371308    0.9017737373
 C   -1.4448766763   -0.5512876875    0.0651397385
 C   -2.5198962330   -0.0121435225   -0.7946985712
 C   -2.9500864217    1.3982672497   -0.7186245308
 O   -2.1252640662    0.9479131472   -1.7975963506
 H   -0.2822259446    1.7312705275   -0.8001392589
 H    0.4788444712   -0.3548193485   -0.8655983142
 H    1.6727151112   -0.7547610912    1.2034987257
 H    0.4630814289    0.1678367787    2.1044176051
 H    0.2703624415   -2.7466517271    1.2197324504
 H   -0.3493250197   -2.0190559857    2.6910060927
 H   -2.4055544790   -2.2042341639    1.0503532128
 H   -3.2606412579   -0.7293520433   -1.1483601955
 H   -3.9699196049    1.6602621735   -0.9952399993
 H   -2.4588215549    2.0550745878   -0.0052505643