20

 C    0.9583635118    0.2044895753    0.6180246480
 N    2.2446875241   -0.3548929313    0.2105416664
 C    2.4022130041   -0.8855120087   -1.2344132507
 C    2.4011795272    0.5505237259   -1.7924125649
 C    3.2606045455    0.5332796572   -0.4882561670
 C    4.3998242391    1.4605819810   -0.1640484385
 O    5.3791204646    1.0877375591   -1.1560495340
 C    5.0861830946   -0.2002128486   -1.7763617151
 C    3.9359309262   -0.7660478495   -0.9622118333
 H    0.2721252655   -0.6253753434    0.8157701545
 H    0.4668438745    0.8888960721   -0.0892326705
 H    1.1033865027    0.7429949143    1.5601293442
 H    1.8343384993   -1.7582200295   -1.5629379271
 H    1.4617086232    1.1003203531   -1.7600575383
 H    2.9096693668    0.7305015614   -2.7404459087
 H    4.7824385104    1.2879390101    0.8519298184
 H    4.1876287531    2.5266055059   -0.2925233113
 H    5.9858165819   -0.8191228649   -1.7041731942
 H    4.8712603010   -0.0358379961   -2.8378277294
 H    4.2603776842   -1.3976758333   -0.1339328783