19

 C    0.0493613023    1.5087856097    0.0555681185
 C   -0.0399060284   -0.0175721071   -0.0275446075
 C   -1.4817719324   -0.5307493354   -0.0304966093
 N    0.6730307959   -0.5010670928   -1.2195862408
 N    0.2860906458   -0.2254853319   -2.4542080100
 N    1.1555182757   -0.8001068653   -3.2499764796
 C    2.0591451475   -1.4156871159   -2.4475851421
 C    3.2268227585   -2.1947227012   -2.9470683209
 N    1.7763751233   -1.2407715179   -1.1581271380
 H    1.0914322359    1.8391947330    0.0647059407
 H   -0.4542800844    1.9699002412   -0.7980068632
 H   -0.4317109631    1.8567242669    0.9740337732
 H    0.5125741087   -0.4660574265    0.8011006082
 H   -2.0304781534   -0.1316332897   -0.8871532176
 H   -1.5085431645   -1.6225448754   -0.0789635622
 H   -1.9863411009   -0.2127775550    0.8861835210
 H    3.8838657859   -1.5628176132   -3.5519896917
 H    3.7969455516   -2.5957068890   -2.1077343108
 H    2.8969238060   -3.0236630245   -3.5801401878