16

 N    0.1002183169    1.3543455534    0.2244374755
 C   -0.0127749016    0.0018280262    0.0327487661
 C   -1.1941640964   -0.6599884789   -0.0434972886
 C   -1.2990814873   -2.1074487708   -0.1339133609
 O   -2.3624335385   -2.6763782432   -0.3145466214
 C   -0.0248593178   -2.9434594549    0.0627451617
 C    1.2781747240   -2.1986870298   -0.0586706707
 O    1.5090041417   -1.4685932884   -1.2643866942
 C    1.2840134206   -0.7279821219   -0.0546746019
 H    0.9393811652    1.8078947957   -0.1015018744
 H   -0.7365702707    1.9100768473    0.1345538215
 H   -2.1347829979   -0.1175256240   -0.0582606365
 H   -0.0850493920   -3.3858031009    1.0656615173
 H   -0.0590109848   -3.7800451543   -0.6421661750
 H    2.1636252392   -2.7084355825    0.3220540723
 H    2.1567857896   -0.1922009732    0.3183760893