18

 O   -0.0412244851   -0.0492196818    0.2884873022
 C   -0.0545782253    1.1544202208    0.1050161394
 N   -1.2095269173    1.8734483880   -0.0119272586
 C   -1.2925754658    3.3253218794   -0.1265480024
 C   -0.2048923604    3.9799217727    0.7310540310
 C    1.1655796798    3.4808536820    0.2756481641
 O    2.1200810536    3.3357597727    1.3488779411
 C    2.2125590937    1.9051841905    1.1505511547
 C    1.2219168402    1.9647871591   -0.0310687807
 H   -2.0574566656    1.3299718486    0.0489586281
 H   -1.1979740683    3.6463670901   -1.1749325207
 H   -2.2851939444    3.6371318508    0.2096360938
 H   -0.2735065151    5.0703118310    0.6716515973
 H   -0.3506628619    3.6893772608    1.7765239495
 H    1.5658203461    4.1182321906   -0.5231907825
 H    3.2318460934    1.5931688350    0.8998874963
 H    1.8660506258    1.3373180943    2.0209281276
 H    1.6722505964    1.7159669055   -0.9945237102