15

 O   -0.0300332456    1.4575312992   -0.0660926505
 C    0.0549743735    0.0452298983   -0.0386643929
 C    0.7527674394   -0.4942195848    1.2036446710
 C   -0.0173316749   -1.3270372974    1.9034061883
 C   -1.3565667635   -1.4605294530    1.2502596121
 O   -2.0865696364   -0.1989715444    1.1494807752
 C   -1.3274488277   -0.6258710469    0.0271860170
 C   -2.2215223006   -2.6613565580    1.3772837396
 O   -1.8618179822   -3.6873936673    1.8970590469
 H   -0.5921613222    1.7066183076    0.6791198254
 H    0.5797976259   -0.2402288572   -0.9570732569
 H    1.7435248376   -0.1531578279    1.4800494252
 H    0.2311330832   -1.8375323128    2.8241712630
 H   -1.8939515338   -0.8474184047   -0.8732265453
 H   -3.2385291128   -2.5272800609    0.9509027418