20

 C    0.1149577844    1.3196358098   -0.2951782560
 N    0.0265245278   -0.0919019119    0.0518759593
 C   -1.2777575837   -0.4827200598    0.7069446979
 C   -1.5233870050   -1.9569478219    0.3828706068
 C   -0.1802865527   -2.7029486784    0.6060341406
 C    0.5672892557   -1.9396381278    1.6952689091
 O   -0.3869132125   -1.6346160592    2.7653515782
 C   -0.6159513327   -0.3651083699    2.1455594749
 C    0.6848041052   -0.4084617070    1.3389446183
 H    1.1385977521    1.5549114987   -0.6057007273
 H   -0.5470933339    1.5253788119   -1.1424365798
 H   -0.1571607268    2.0124789738    0.5227032899
 H   -2.1192366852    0.1744739121    0.4745940021
 H   -2.2948148560   -2.3533469888    1.0493751213
 H   -1.8716845728   -2.0701503685   -0.6474538222
 H   -0.3468662991   -3.7395127290    0.9131440344
 H    0.4165677544   -2.7094593027   -0.3102377045
 H    1.4558946202   -2.4427054800    2.0833771815
 H   -0.9676134986    0.4031313584    2.8361774476
 H    1.6214311092    0.0997689902    1.5737183180