19

 N   -2.1241849260    0.8639618465   -1.6795260290
 C   -2.1352689483   -0.5041990222   -1.4190453777
 O   -2.5755228223   -1.3201981390   -2.2059384287
 N   -1.5742752620   -0.8373412512   -0.2000794200
 C   -1.3171074070   -2.2127368654    0.1439066457
 C   -0.2175833971   -2.8842739119   -0.6593360554
 O    1.0185015953   -2.1838182899   -0.5652390008
 C   -1.4811763339   -2.5537418857    1.6034416575
 C   -2.4909483506   -3.0384478180    0.5926538166
 H   -2.7221834784    1.1064040239   -2.4554779725
 H   -2.2142079170    1.4862247190   -0.8896278477
 H   -0.9509364165   -0.1619087841    0.2169416581
 H   -0.0398599576   -3.8900610610   -0.2638095306
 H   -0.5430342235   -2.9806498593   -1.7022191557
 H    0.9960575238   -1.4729283082   -1.2119556310
 H   -0.7860976710   -3.2672694516    2.0317288863
 H   -1.7830030642   -1.7571873170    2.2742863058
 H   -3.4635824075   -2.5633893092    0.5728804196
 H   -2.4965218161   -4.0895440057    0.3256652396