17

 N    0.1966041379    1.3664480123    0.0712106835
 C    0.0038176825   -0.0267702318    0.0432283319
 C   -1.1243344620   -0.8144705984   -0.0171778253
 C   -0.6885461817   -2.1690543122   -0.1137096735
 C    0.6820106098   -2.1673842267   -0.0977792971
 N    1.1041238638   -0.8529282508   -0.0211896068
 C    2.4784961896   -0.3900528635   -0.0020052932
 C    2.9273561782    0.0575677383    1.3192603838
 C    3.2763936295    0.4498217071    2.4001497692
 H    0.6272775226    1.6813022278    0.9365611047
 H   -0.6834615534    1.8520290026   -0.0451482039
 H   -2.1427098004   -0.4576281836    0.0109574418
 H   -1.3170808294   -3.0439220902   -0.1786270032
 H    1.4006636234   -2.9704042726   -0.1255692542
 H    3.1139171298   -1.2063832552   -0.3588990052
 H    2.5776940986    0.4382835106   -0.7134392691
 H    3.5947097211    0.7793754264    3.3583854366