16

 C    0.0091708030    1.5567764905   -0.0265482206
 C    0.0247558478    0.0564449285   -0.0244857724
 C   -1.1167837785   -0.6949499411   -0.0660747868
 N   -2.3814815860   -0.1635071045   -0.1407557163
 N   -1.1363644736   -2.0916523465   -0.0809525252
 N   -0.0428120035   -2.7295393463   -0.0552315044
 N    1.1039752727   -2.0436060321   -0.0119547445
 C    1.2858425912   -0.6451167977    0.0167502788
 N    2.4326967735   -0.0704279138    0.0705220106
 H    1.0197563539    1.9323472073   -0.1889426178
 H   -0.6487340185    1.9447181861   -0.8133526626
 H   -0.3476812276    1.9620840421    0.9304722758
 H   -2.5206155307    0.7644963368    0.2237066313
 H   -3.1206214024   -0.8202122539    0.0587510183
 H    1.9161055102   -2.6440244370    0.0109694087
 H    3.1992884185   -0.7428556483    0.0851593472