23

 C   -0.0606494696    1.5730651265    0.0210858814
 C    0.0312128260    0.0457385341    0.0026683957
 C    0.7256894629   -0.4744390204   -1.2668942111
 C    0.8036732024   -2.0074316631   -1.2838522167
 C    1.4780679553   -2.5679349582   -0.0251710676
 O    2.8664892843   -2.1922548014    0.0390983589
 C    0.8213860003   -2.0261551091    1.2487050149
 C    0.7501561096   -0.4895879131    1.2645687759
 O    2.0390900938    0.0911658051    1.4234460190
 H    0.9393413584    2.0117495880    0.0766300654
 H   -0.5589075460    1.9514891197   -0.8777983007
 H   -0.6259194429    1.9241760379    0.8913456603
 H   -0.9896956495   -0.3664321020    0.0222686632
 H    0.1974998371   -0.1180775774   -2.1581200490
 H    1.7367367085   -0.0520555846   -1.3153789155
 H   -0.2068340632   -2.4326614662   -1.3462396625
 H    1.3377796118   -2.3624049113   -2.1760862235
 H    1.4094342500   -3.6657830368   -0.0322139277
 H    3.2728697194   -2.3812318248   -0.8129543671
 H   -0.1911714359   -2.4406183065    1.3178072914
 H    1.3811061376   -2.3753093845    2.1224238828
 H    0.1730566339   -0.1750351826    2.1441376506
 H    2.6595606957   -0.4709076291    0.9394357118