17

 C    0.0266496583    1.4897183113    0.0382538617
 C   -0.0085744667   -0.0125211016   -0.0095878402
 C   -0.1758282821   -0.7185411949   -1.1891691736
 N   -0.1739192270   -2.0634741392   -1.2327262322
 C   -0.0253690330   -2.7027826313   -0.0897720004
 N   -0.0475403719   -4.0976735222   -0.0704397014
 C    0.1003524513   -1.9891384886    1.1352524020
 N    0.2575426738   -2.6986750232    2.3222296337
 N    0.1192402192   -0.6707808246    1.1629335798
 H    0.9882888663    1.8443625424    0.4250144047
 H   -0.1256971076    1.9220527238   -0.9540001173
 H   -0.7488319174    1.8753446904    0.7084247569
 H   -0.3046762160   -0.2034432606   -2.1365977696
 H    0.0026861842   -4.4798207905   -1.0066646212
 H    0.6535012974   -4.5037511721    0.5379880401
 H   -0.3323215891   -3.5191557035    2.3878247604
 H    0.1724650803   -2.0988631757    3.1328973567