16

 C    0.1414278856    1.5322691781   -0.1064605499
 N    1.5431150540    1.4628507829    0.3771888771
 C    1.5109848951   -0.0227218003    0.4632850659
 C   -0.0226697601    0.0007257979    0.0794299686
 N    0.3353199741   -0.7916853510   -1.1146552908
 C    0.1840738474   -1.0480826472   -2.4600761262
 C    1.4809469435   -1.2366324701   -2.9006743259
 N    2.4219918174   -1.0127667249   -1.9056436995
 C    1.6721084749   -0.7560289948   -0.8604267844
 H   -0.4907172387    2.1284981585    0.5595750792
 H   -0.0055986750    1.8708617374   -1.1372183241
 H    2.2414798682    1.8192743073   -0.2662103102
 H    1.9340603391   -0.4428456637    1.3756047416
 H   -0.8400725163   -0.3900453383    0.6823576849
 H   -0.7662561180   -1.1633940201   -2.9533888316
 H    1.7891142988   -1.5499080716   -3.8878725048