15

 O   -0.1810003893   -0.0810813197    0.0043362965
 C   -0.1281290718    1.1197431492    0.1200437894
 C   -1.2686402431    2.1711526723   -0.0690928228
 C   -0.6368348468    3.5298621671    0.2030050183
 C    0.6395239626    3.2729927912    0.4932972029
 C    2.0698061293    3.6358198581    0.8757248734
 C    2.3656741529    2.0882696032    0.8151778358
 N    0.9482042504    1.9140401037    0.4513190281
 H   -1.6706779338    2.0718469972   -1.0841692969
 H   -2.0879172286    1.9253004293    0.6166178374
 H   -1.1459645114    4.4795653689    0.1606495527
 H    2.6109492708    4.2349459490    0.1410712229
 H    2.1882677780    4.0869457784    1.8626118220
 H    3.0641645616    1.7716691545    0.0364992869
 H    2.6385402691    1.6228023577    1.7656352735