21

 O   -0.1872815460    1.5095872435    0.1273177842
 C   -0.0490876554    0.1871788745   -0.3495261222
 C   -1.2835182712   -0.6301589698   -0.0023311514
 C   -1.1363158585   -2.1625418338    0.0211410689
 C   -1.2483325006   -2.0199314313    1.5584300180
 O   -1.5031116135   -0.5902696571    1.4337900845
 C   -2.3523321430   -2.7458232806    2.2623543062
 C   -2.0632139075   -4.0747631354    2.9216473983
 C   -2.3404478846   -2.8597253238    3.7661759354
 H   -0.4616101777    1.4215066466    1.0493972501
 H    0.0823135353    0.2418501831   -1.4364400912
 H    0.8447395378   -0.3036592164    0.0726507788
 H   -2.1561974215   -0.2316087184   -0.5334577575
 H   -1.9643499382   -2.7088724937   -0.4335693478
 H   -0.1917955332   -2.5580831037   -0.3583459833
 H   -0.2988118230   -2.1946067386    2.0847558288
 H   -3.3252960371   -2.6357750781    1.7909119324
 H   -2.8197526176   -4.8484912018    2.8593293815
 H   -1.0447520360   -4.4480036094    2.8868959697
 H   -1.5093258691   -2.4102795275    4.2993946404
 H   -3.2883195793   -2.7976106582    4.2883160564