17

 O   -0.1060852840   -0.0067615770    0.0189545031
 C   -0.0277358372    1.1993196391   -0.0588697528
 C    1.2320635662    1.9466690791    0.0034410178
 C    1.3164558650    3.2838503408   -0.0938072668
 C    2.7249262904    3.7797383572    0.0244460977
 C    3.1592116908    4.1923498557    1.4548450447
 O    3.7123251848    2.8860433195    1.7012228021
 C    3.5350957906    2.4845770976    0.3217691535
 C    2.5861104414    1.2885205030    0.1654327471
 H   -0.9358840604    1.8295397793   -0.1898293611
 H    0.4637094363    3.9438707144   -0.2213500235
 H    3.0359513085    4.4455201725   -0.7836016292
 H    3.9286019066    4.9753954257    1.4770973085
 H    2.3616412258    4.4466603958    2.1619892464
 H    4.4996906142    2.3575315691   -0.1803856089
 H    2.6330739921    0.6427530162    1.0480075143
 H    2.8314186091    0.6636206621   -0.7013345029