23

 C    0.5915495837   -0.0543828190    1.2560288859
 C    0.0260317289   -0.1613760822   -0.1622165641
 O    0.9110054584   -0.9069609045   -0.9959400312
 C   -1.4077287635   -0.7132344079   -0.1992236756
 C   -2.4513943283    0.0768728302    0.5790897507
 C   -2.6649091988    1.5033292263    0.0773173940
 O   -3.7447299284    2.0544416645    0.8180784654
 C   -1.8672182680   -1.3746514248   -1.4760692377
 C   -1.5906509415   -2.2122879130   -0.2499485446
 H    1.6270175404    0.2949100254    1.2152837377
 H    0.0197369133    0.6435131357    1.8735749403
 H    0.5719693977   -1.0314044219    1.7548252477
 H    0.0192003842    0.8381621761   -0.6146792358
 H    1.1702201497   -1.6996401543   -0.5146370039
 H   -3.4152737612   -0.4400578903    0.5102938566
 H   -2.2027248233    0.1147735560    1.6461165117
 H   -1.7514126045    2.1037242975    0.2125492741
 H   -2.8856948899    1.4851662094   -1.0017950733
 H   -3.8829501350    2.9582319758    0.5205265220
 H   -2.8996231053   -1.2345209624   -1.7790512992
 H   -1.1522651748   -1.4424693666   -2.2865855579
 H   -0.7124377892   -2.8488520967   -0.2741747579
 H   -2.4278920047   -2.6412409436    0.2902077750