13

 O   -0.0697242049   -0.0272013796   -0.0001901284
 C   -0.0156066193    1.1840753953    0.0085917241
 C    1.2289750911    1.9476904851    0.0001649316
 C    2.5166744090    1.4368733327   -0.0184534282
 N    3.3417520226    2.4983985309   -0.0198724453
 N    2.7072029961    3.6883137238   -0.0035940637
 C    1.4105472683    3.3656461143    0.0089762156
 C    0.3978721799    4.3566777849    0.0282153325
 C   -0.4891744041    5.1692219787    0.0442724039
 H   -0.9356827331    1.8043245463    0.0237504064
 H    2.8684003650    0.4180154426   -0.0302366778
 H    4.3489697399    2.4950988684   -0.0314625200
 H   -1.2641112306    5.8954418267    0.0573828092