22

 C   -0.0835282460    1.5325902460    0.0563942946
 C    0.0550807559    0.0131033299    0.0610636443
 C    1.1151652094   -0.5320855410   -0.9427425737
 C    2.1365899895   -0.6409195412    0.2227673842
 C    0.9452719459   -0.5695256209    1.2120568743
 N    1.1035139899    0.1601219791    2.4434331943
 C    0.7219201417   -0.3317321827    3.6633834276
 C    0.9577412407    0.6050630555    4.8395305358
 O    0.2262016073   -1.4342310802    3.8086398463
 H    0.8918022369    2.0344909428    0.0799565477
 H   -0.5966308167    1.8690601276   -0.8503896606
 H   -0.6615062037    1.8825579726    0.9181459916
 H   -0.9374302953   -0.4414323856   -0.0099481898
 H    0.8418255925   -1.5112955353   -1.3436345415
 H    1.3807803290    0.1225701607   -1.7764982457
 H    2.7765926053   -1.5247606378    0.2719707770
 H    2.7730394618    0.2475778476    0.2898984653
 H    0.6003120296   -1.5642199194    1.4966303327
 H    1.5001173300    1.0844143738    2.4025670616
 H   -0.0089989001    0.8722526733    5.2758095422
 H    1.5230416198    0.0689346205    5.6056034369
 H    1.4915497665    1.5221316248    4.5759961549