18

 C    0.2761305115    1.4430446175    0.1730982266
 C    0.0542354098   -0.0534504551   -0.0608336699
 C    0.6778955355   -0.5411834258   -1.3680150497
 O    2.1097258214   -0.3293824266   -1.4113364729
 C    2.3878210577   -1.7482617864   -1.4119792838
 C    0.8975924059   -2.1000206311   -1.5018216586
 O    0.4612671973   -2.9112375681   -0.4510208713
 C    0.0250803284    0.0586382528   -2.5404376229
 N   -0.5117173529    0.4906832229   -3.4688523957
 H    1.3440706104    1.6760116215    0.1621555885
 H   -0.2116349779    2.0442714666   -0.6003538156
 H   -0.1316047919    1.7431880396    1.1421601644
 H    0.4941487607   -0.6446263308    0.7470479389
 H   -1.0171514421   -0.2880807022   -0.0790447917
 H    3.0134763604   -2.0431878921   -2.2596512148
 H    2.8475148547   -2.0796307334   -0.4743886382
 H    0.5834893661   -2.4829517216   -2.4777580439
 H   -0.4377268348   -3.2039570977   -0.6313988495