17

 C    0.0149323696    1.4523312528   -0.1513273037
 N    0.0549066708    0.0028282605   -0.1653688254
 C   -1.0200484356   -0.6022993453    0.0500280592
 O   -1.0041427872   -1.9807662644    0.0382646080
 C   -2.1728414321   -2.6367571225    0.2941264982
 O   -3.2266965476   -2.0970131804    0.5233263702
 C   -1.9664783589   -4.1071714119    0.2454826831
 C   -2.6062103903   -4.8959854891    1.3479302303
 N   -3.1555729026   -4.9371471108    0.0010427193
 H    0.3619949144    1.8298035333   -1.1190621157
 H   -0.9811418999    1.8729201461    0.0542155249
 H    0.7149350091    1.8227301452    0.6051357728
 H   -2.0046032371   -0.1763124638    0.2526227369
 H   -1.0392250021   -4.4454343037   -0.2013274706
 H   -2.1142836861   -5.8044251553    1.6818886337
 H   -3.1346279605   -4.3339786946    2.1123739503
 H   -3.9604325139   -4.3127361159   -0.0475057616