12

 N    0.0291121216    1.2473866313    0.0088650185
 N    1.1972292691    1.8629220897    0.0009566004
 C    2.0496513690    0.8164525539   -0.0129932716
 C    3.4534959926    0.7021395406   -0.0271875688
 N    3.9988423931   -0.4938433322   -0.0390142913
 C    3.1695660360   -1.5837858768   -0.0369483984
 N    1.8546898601   -1.6175124995   -0.0244054292
 C    1.2993138385   -0.3890582204   -0.0123217719
 N   -0.0144460919   -0.0762483280    0.0021468231
 H   -0.8281091557    1.7823673194    0.0200571053
 H    4.1082705343    1.5707749590   -0.0287878370
 H    3.6820422034   -2.5419397870   -0.0471442590