16

 C   -0.0471952741    1.5171081278    0.0562090837
 C   -0.0195802271    0.0245744511    0.0155035137
 C    0.0001314236   -0.7911228248   -1.0634313342
 N    0.1571580134   -2.1386810430   -0.7547405938
 C    0.0456955536   -2.2740315000    0.7049295603
 C    0.0341561030   -0.8345397439    1.1874093826
 N    0.0818599241   -0.4166946202    2.3987238785
 O    0.1017295754   -1.5211655597    3.2847745747
 H    0.8523931045    1.9189359501    0.5373714694
 H   -0.1147658977    1.9410011857   -0.9496726540
 H   -0.8995943943    1.8793094339    0.6420164292
 H   -0.0419262112   -0.4951832522   -2.1046940824
 H   -0.3635509486   -2.8000419151   -1.3126472652
 H   -0.8738025274   -2.7922799707    1.0058947081
 H    0.8869833045   -2.8309110369    1.1306223276
 H    0.1579764682   -1.0891645121    4.1431723619