19

 C    0.0475205785    1.5832581802   -0.1224415190
 C    0.0092990183    0.0568799472   -0.0117706854
 C    0.7285832163   -0.4667937936    1.2349445582
 C    0.6850727289   -2.0038654976    1.3404189540
 C    1.3936344880   -2.5292416580    2.5408620419
 C    0.9876493333   -3.2103092695    3.6487656364
 N    2.0986927913   -3.4155382604    4.4301866064
 N    3.1197660607   -2.9220194654    3.8933437204
 O    2.7075956702   -2.3265011238    2.6462219798
 H    1.0782766234    1.9506028395   -0.1716775709
 H   -0.4728989068    1.9291228186   -1.0205849367
 H   -0.4305877101    2.0554303344    0.7427378679
 H   -1.0340705415   -0.2853108888    0.0000588568
 H    0.4650476055   -0.3884765425   -0.9059586464
 H    1.7748983752   -0.1402871735    1.2269505542
 H    0.2757950114   -0.0323833061    2.1350607373
 H   -0.3527109996   -2.3511193324    1.3754747951
 H    1.1375582779   -2.4425799040    0.4423091372
 H    0.0114776091   -3.5612112340    3.9359065127