16

 C    0.0795202556    1.5193932169   -0.0254283547
 C   -0.0825138607    0.0428868973    0.1248261296
 C   -1.3791759266   -0.7954762139    0.0386766121
 C   -0.7185452242   -1.7613993430    1.0532088863
 C   -1.3349269927   -2.4796336017    2.1677265285
 O   -0.7824946673   -3.1700802574    1.0360926735
 C    0.5489076990   -0.9331238461    1.0437175595
 O    0.9655994768   -0.8208640825   -0.3290579564
 H    1.0962478162    1.8204507495    0.2398498203
 H   -0.1076235578    1.8255889426   -1.0607482133
 H   -0.6272488947    2.0554408898    0.6159916058
 H   -2.2705054382   -0.3011103274    0.4337025557
 H   -1.5824960392   -1.2093658272   -0.9510439032
 H   -0.7914496615   -2.6107543340    3.1029873156
 H   -2.4205254452   -2.5106237867    2.2522917197
 H    1.3102614604   -0.8177402561    1.8071965910