21

 O   -0.1134108486    1.4357949568    0.0410474732
 C   -0.0354647723    0.0241536444    0.1762526256
 C   -1.4230119056   -0.5764568912    0.0123195654
 C   -2.5685852699    0.1880445705    0.6376251102
 C   -2.4124569290    0.1517963339   -0.8642754438
 C   -1.4805343172   -2.0923085328    0.0005765313
 O   -2.7810083784   -2.6221735376    0.0943265424
 C   -0.6069894121   -2.9005968569   -0.9132516972
 C   -0.3841768022   -2.9535378515    0.5873674904
 H    0.7626810809    1.7976260585    0.1983837625
 H    0.6486040751   -0.3955215050   -0.5790934915
 H    0.3625909624   -0.2446822042    1.1673533307
 H   -3.3954748037   -0.3635775391    1.0688931274
 H   -2.3195471615    1.1128932800    1.1436459339
 H   -2.0781068064    1.0560452890   -1.3566830588
 H   -3.1129860937   -0.4605097676   -1.4199448432
 H   -3.0669312797   -2.5322178312    1.0098644838
 H   -1.0749133680   -3.7589230034   -1.3805730380
 H    0.1265854145   -2.3901525283   -1.5267503681
 H    0.5089981288   -2.4924545044    0.9928799240
 H   -0.7017211433   -3.8523038997    1.1045601798