21

 C    0.0837979828    1.5556895093   -0.1554940381
 C    0.0482624280    0.0543777034    0.0179314317
 O   -1.1202435497   -0.5514504725   -0.4859954010
 C    1.3187905012   -0.7672963400   -0.0563592592
 C    0.5591695303   -0.6329378181    1.2503863385
 C    1.1531149034    0.0805772922    2.4383238821
 C    2.1867022643   -0.6980984556    3.2898317253
 C    3.1191032727    0.4897862485    2.9910626555
 O    2.1485900590    1.0832290990    2.1023604799
 H    0.9784205166    1.9862697705    0.2967058273
 H    0.0761701425    1.8151035101   -1.2221286960
 H   -0.7990600347    2.0117020717    0.3047912180
 H   -1.1340245958   -0.4048196478   -1.4386956567
 H    1.2715336392   -1.7176598497   -0.5760268700
 H    2.2583303244   -0.2304477386   -0.1321376491
 H   -0.0371519803   -1.4953791349    1.5390886425
 H    0.3540632075    0.5329590860    3.0435387436
 H    1.9261998231   -0.8631670830    4.3360287444
 H    2.5002251046   -1.6406084610    2.8373612860
 H    3.3320219707    1.1416304044    3.8479434336
 H    4.0592330801    0.2620058260    2.4761042017