9

 O   -0.0123646174   -0.0121527973    0.0016132200
 C   -0.0192140639    1.1793011951    0.0079521636
 C    1.3112228408    2.0111677792    0.0000197905
 C    1.3545609098    2.8363706128   -1.2101505547
 N    1.3456808792    3.4525821958   -2.1864096505
 C    1.3771080722    2.8232254268    1.2180504131
 N    1.3864336254    3.4288444855    2.2009125687
 H   -0.9357134086    1.7982943083    0.0195237328
 H    2.1345457025    1.2896446838   -0.0115179535