21

 C   -0.5773310122    1.4248110389   -0.2764828049
 C   -0.1995593027   -0.0395622118   -0.0212935680
 C    0.4974001790   -0.6688824187   -1.2095017390
 O    1.6106998563    0.0241710787   -1.7106048464
 C    2.7536595059    0.0028328001   -0.8741747765
 C    0.6209244904   -2.1750119065   -1.4542061576
 C   -0.6840016591   -2.8816547319   -1.1137720187
 O   -1.4513650924   -1.9312784807   -1.9074285369
 C   -0.2441642727   -1.3056217486   -2.3467998329
 H    0.3039448422    2.0264358844   -0.5147475733
 H   -1.2704307478    1.5043601128   -1.1198930534
 H   -1.0629379627    1.8602994621    0.6018768825
 H    0.4376436148   -0.1163496354    0.8689345415
 H   -1.1038056018   -0.6147671863    0.1929326445
 H    2.5959838188    0.5643385699    0.0564362101
 H    3.0515364005   -1.0225988611   -0.6153877890
 H    3.5620317302    0.4774134692   -1.4353660773
 H    1.5736774959   -2.6459168071   -1.6544281563
 H   -0.7612810321   -3.8858104571   -1.5461748687
 H   -1.0046050023   -2.9073006381   -0.0658203551
 H   -0.1602399583   -0.9955230228   -3.3819878845