21

 C    0.0928145545    1.4321973009   -0.4896457224
 C    0.0394537414    0.0284106064   -0.1061915338
 C    0.0031020781   -1.1337260381    0.2061703551
 C   -0.0482585297   -2.5452060080    0.5797879149
 C   -1.4060529888   -3.1947625789    0.3076000532
 C   -2.5840316441   -2.5260832448    0.9834195809
 O   -1.6383127728   -3.5890294855   -1.0525663675
 C   -1.5071416131   -4.6199878705   -0.0641706365
 C   -0.3658810990   -5.5946678852   -0.2127644874
 H    1.1243187088    1.7565931440   -0.6668230546
 H   -0.4728345447    1.6143351752   -1.4100793651
 H   -0.3268261945    2.0773316837    0.2902787660
 H    0.7309571153   -3.0905844310    0.0402219836
 H    0.1777811452   -2.6514971913    1.6501667214
 H   -2.6562906946   -1.4804300675    0.6713417234
 H   -3.5142601127   -3.0347324131    0.7199002135
 H   -2.4701326315   -2.5455094972    2.0730882178
 H   -2.4573903553   -5.1012601531    0.1828224728
 H    0.5720013768   -5.1020575989   -0.4748566526
 H   -0.2199890763   -6.1564104805    0.7164854134
 H   -0.5952572731   -6.3157880367   -1.0044737060