15

 C   -0.0430376107    1.4893199445    0.0615331694
 C    0.1177536355   -0.0179396170   -0.0052179219
 O    0.6449357309   -0.4588603883    1.2493747856
 C    0.8517267304   -1.7843905807    1.3677380439
 N    1.3135498996   -2.2725634878    2.4307477442
 C    1.5049299423   -3.7062518509    2.4751967802
 H    0.9208936455    1.9704345972    0.2472038702
 H   -0.4454138525    1.8661158201   -0.8833525292
 H   -0.7269126746    1.7672045360    0.8678846286
 H   -0.8485443132   -0.5056396074   -0.1942036900
 H    0.8024130721   -0.3019402167   -0.8163133783
 H    0.5845603989   -2.3711885623    0.4731116633
 H    0.9220363868   -4.1303922949    3.3009837903
 H    1.2172303551   -4.2276474832    1.5467763573
 H    2.5575789837   -3.9312154986    2.6823185264