18

 C    0.1021479128    1.6173690032    0.1047772001
 C    1.2770501647    0.7203441701   -0.1282598343
 O    2.2762449137    0.6690035352    0.8607420876
 C    2.7006394416   -0.5964948914    1.2193429606
 N    2.0361655808   -1.5513162453    1.6982075530
 C    0.6566341281   -1.5200076905    2.0408670075
 C    0.0416043315   -0.3073752389    2.7168692631
 C   -0.4053346375   -0.6788402433    1.3298830912
 C   -0.0784723789    0.1077981335    0.1002664627
 H    0.0559003149    2.1092531329    1.0696970134
 H   -0.2799362345    2.2003694351   -0.7256563834
 H    1.6927723209    0.6597527800   -1.1312982095
 H    3.7801518812   -0.6940917727    1.1050002718
 H    0.3192205327   -2.4852264654    2.4041025325
 H   -0.6419844255   -0.4858323151    3.5393228173
 H    0.6808818654    0.5575686588    2.8418461001
 H   -1.3798411575   -1.1563430872    1.2784117559
 H   -0.5263243243   -0.3067971791   -0.7986064295