20

 C   -0.0612999611    1.5140517126   -0.0836486642
 C    0.1332092055   -0.0034604568   -0.1193350638
 C    0.7179490880   -0.5526781744    1.1649435236
 O    0.8542000324   -1.9464272148    1.0969253389
 C    1.9600698359   -2.2932354755    1.9304172783
 C    2.6462438668   -3.5481100166    1.4259577814
 C    2.8183421915   -1.0407588542    1.8811104620
 N    4.0245744015   -0.9577588264    2.2369591851
 O    2.0468626967   -0.0361843965    1.3829578121
 H    0.8918560021    2.0269429873    0.0709505053
 H   -0.4909105050    1.8704353509   -1.0236667408
 H   -0.7380849437    1.8105265958    0.7251278033
 H   -0.8229475281   -0.5133772248   -0.2818072860
 H    0.7992553029   -0.2961412286   -0.9378315269
 H    0.1126515757   -0.2600956545    2.0412554854
 H    1.6160658378   -2.4391341764    2.9682785981
 H    2.9519321986   -3.4198677656    0.3845547892
 H    3.5361111615   -3.7371924886    2.0305970706
 H    1.9740040020   -4.4070654490    1.4949469457
 H    4.3771393287   -0.0064143538    2.1234328229