21

 C   -0.0500666858    1.4878498085    0.0106248879
 C   -0.0478185162   -0.0293845188    0.0020911948
 O   -1.4085583208   -0.4697873835    0.0133216244
 C   -1.5957630580   -1.8041092144    0.0082986750
 N   -2.7537646580   -2.2945962310    0.0163732387
 C   -2.8738799596   -3.7466869322    0.0095443996
 C   -3.6059674597   -4.1937422784    1.2806170532
 C   -3.6299187177   -4.1798835567   -1.2522767150
 H    0.9766331040    1.8652292794    0.0023755570
 H   -0.5718490657    1.8759636953   -0.8681834992
 H   -0.5539638036    1.8660339354    0.9040788445
 H    0.4598581843   -0.4139346520   -0.8932587493
 H    0.4777397264   -0.4239038307    0.8826642604
 H   -0.6654286011   -2.3952006077   -0.0038188763
 H   -1.8770554329   -4.2258624079   -0.0024964750
 H   -4.5953721296   -3.7286751138    1.3305124798
 H   -3.7302046094   -5.2814985978    1.2939542691
 H   -3.0492642877   -3.8989761153    2.1751335573
 H   -3.7545012274   -5.2674418600   -1.2751846464
 H   -4.6200420568   -3.7144006212   -1.2783578175
 H   -3.0902007947   -3.8752738772   -2.1538761527