13

 N   -0.5621814736   -1.2384085654   -0.1244044168
 C   -0.2874750849   -0.1179954328   -0.0693561119
 C    0.0207632123    1.3032266033    0.0128907877
 C   -0.2165808915    2.0100758943    1.4194124066
 C    1.2818526685    2.2925890114    1.3907202251
 C    2.5320333734    2.7825955000    1.6834639761
 N    3.3547063243    2.3856391974    0.6566547579
 N    2.7058224939    1.7013307353   -0.2529194700
 N    1.4480775489    1.6482780617    0.2248891573
 H   -0.4169839847    1.8351826724   -0.8349570366
 H   -0.8708394290    2.8810486780    1.3649351314
 H   -0.5603195053    1.3312562628    2.2003735826
 H    2.9109032777    3.3601221814    2.5087083407