20

 C    0.1090138084    1.2895457204   -0.1712846892
 O   -0.0858328390   -0.1316675089   -0.2045981047
 C   -1.3393635120   -0.5473153915    0.0243854805
 O   -2.2583270116    0.1932872503    0.2781726514
 C   -1.4496038889   -2.0679839099   -0.0488156415
 N   -2.8541192350   -2.4429118878    0.1187265648
 C   -0.9476309616   -2.5892272148   -1.4233328976
 C   -0.8205777803   -4.1140291273   -1.4362820410
 O   -1.8328901591   -2.1296079201   -2.4262087143
 H    1.1660040977    1.4478548171   -0.3837819008
 H   -0.5120640080    1.7773504609   -0.9259881948
 H   -0.1493278213    1.6892327161    0.8124284526
 H   -0.7971241660   -2.4692214433    0.7403565290
 H   -2.9609412088   -3.2046878587    0.7756167333
 H   -3.3662681345   -1.6388254281    0.4696083934
 H    0.0256855419   -2.1377199937   -1.6349336481
 H   -0.5321612177   -4.4493759253   -2.4358012956
 H   -0.0643834555   -4.4596393359   -0.7221969283
 H   -1.7778172898   -4.5827484132   -1.1845549611
 H   -2.7162083387   -2.3094811563   -2.0667314880