20

 C   -0.0732716027    1.5604489962    0.0236136462
 C    0.0292964378    0.0385671298    0.0282830891
 C    0.7689215028   -0.5582941971   -1.1974808976
 C    1.4781246494   -1.8394364868   -0.6805383147
 C    1.6402671765   -1.5398494238    0.7798396507
 C    2.2671873218   -1.9919909346    1.9191359515
 C    1.8091343614   -1.1696616927    2.9908684387
 C    0.9177147188   -0.2508234545    2.4741185437
 N    0.8373210478   -0.4833598905    1.1263925252
 H    0.9215777940    2.0145502547   -0.0173884530
 H   -0.6446701518    1.8949845564   -0.8478425251
 H   -0.5842467118    1.9301935076    0.9178381442
 H   -0.9835672637   -0.3856817207    0.0955550555
 H    0.0878705909   -0.7494168489   -2.0301223132
 H    1.5185288588    0.1633915565   -1.5394918749
 H    0.8509692939   -2.7267754940   -0.8407716922
 H    2.4240829997   -2.0229629453   -1.1981814615
 H    2.9733132333   -2.8054487763    1.9852470645
 H    2.1120381361   -1.2355895888    4.0253115100
 H    0.3646310969    0.5437201328    2.9482049028