21

 C   -0.0187965235    1.4790556443    0.0721349970
 C    0.0398890372   -0.0277210761   -0.0257100400
 C    1.0267569829   -0.6409562284   -1.0117942362
 O    0.4107131357   -1.7969608219   -1.5704540769
 C   -0.7445067861   -2.1561467758   -0.8004279376
 C   -0.3517002047   -3.1366767138    0.3182192602
 C    0.2823662103   -2.2395632071    1.4112179490
 C   -0.3466352305   -0.8616290267    1.1882946946
 C   -1.1944490683   -0.8859417788   -0.0682545536
 H    0.9284519196    1.8916620121    0.4388895426
 H   -0.2237829380    1.9334296704   -0.9040759116
 H   -0.8048298894    1.7996641545    0.7627814321
 H    1.2484826094    0.0635803685   -1.8241237390
 H    1.9825476899   -0.9105501677   -0.5364163061
 H   -1.4834472559   -2.5667510438   -1.4933310777
 H   -1.2580313048   -3.6133707042    0.7103985942
 H    0.3122239763   -3.9226534757   -0.0510716310
 H    0.0616016768   -2.6073491156    2.4170312378
 H    1.3743017537   -2.2118727760    1.3220463173
 H   -0.6801628153   -0.3009409590    2.0556346974
 H   -2.2008413052   -0.4932446593   -0.1459729125