20

 C    0.0291070837    1.5047847722   -0.0003483356
 C    0.0121560404   -0.0255793089    0.1081652726
 C    0.7736144027   -0.5288730688    1.3399276804
 C   -1.4217460777   -0.5407642061    0.0774850181
 O   -1.4598357070   -1.9474562264    0.0725810882
 C   -2.6629719472   -2.3238738528    0.7227645485
 C   -2.9586105028   -1.1562358001    1.6406575693
 N   -3.7933747804   -1.1411774938    2.5835270902
 O   -2.1509780188   -0.1307163841    1.2490209608
 H    1.0578211452    1.8739878289   -0.0414074226
 H   -0.4874132598    1.8517965192   -0.9017340080
 H   -0.4602436773    1.9610490296    0.8656431163
 H    0.4799953555   -0.4463439017   -0.7919297898
 H    0.3399777943   -0.1223432149    2.2584676687
 H    0.7433460603   -1.6191787457    1.4000305492
 H    1.8204039072   -0.2152543175    1.2924801660
 H   -1.9626358532   -0.1389359111   -0.7968580812
 H   -3.4871548357   -2.4661752641    0.0075132771
 H   -2.5077949107   -3.2533500493    1.2727291903
 H   -3.8171139987   -0.2268271944    3.0370508514