21

 C   -0.2200056902    1.5973527396   -0.0109837655
 C    0.0450587527    0.0987707485   -0.0035584679
 C    1.1206808840   -0.5663863932   -0.9202725431
 C    2.4086710874    0.1755108673   -0.5223862042
 C    2.3387223076   -0.0881366790    1.0173894874
 C    3.0900548609   -1.4009453232    1.2590504656
 O    2.3755044417   -2.3429395790    0.4385080243
 C    1.1338002306   -1.7333483964    0.1412870372
 C    0.8575350927   -0.5748545775    1.1269677287
 H    0.6819005997    2.1865069643    0.1763141274
 H   -0.6355739961    1.9196636965   -0.9723996054
 H   -0.9474029499    1.8603544933    0.7650065577
 H   -0.9058003299   -0.4346211747   -0.1206680278
 H    0.9378277008   -0.7401308375   -1.9813449295
 H    3.3032886952   -0.2660319872   -0.9695839698
 H    2.3856690264    1.2343218511   -0.7889586670
 H    2.6414582385    0.7373655447    1.6621130557
 H    4.1356144208   -1.3675602214    0.9341891239
 H    3.0596614758   -1.7198957868    2.3119957756
 H    0.3628262901   -2.4926161016    0.0098701534
 H    0.4606970112   -0.7359450678    2.1300544432