16

 N   -0.8287973589    1.3386077040    0.3576960636
 C   -0.2717936513    0.1034513148    0.4962936720
 O    0.2719500348   -0.2717821700    1.5149740461
 C   -0.3162422139   -0.7808056305   -0.7661537010
 N   -0.8220944903   -2.0982063158   -0.4486357349
 C   -0.0058769258   -2.8895162631    0.1050687742
 N   -0.3356281639   -4.1711445288    0.5413404861
 C   -1.5613062308   -4.8185949675    0.5270702340
 O   -2.5970461199   -4.3952875480    0.0909933579
 H   -0.8726717368    1.9279366361    1.1741281097
 H   -1.4287738465    1.5586539770   -0.4179759231
 H   -0.9463953553   -0.3348613221   -1.5413409391
 H    0.7169123261   -0.7962203087   -1.1501532700
 H    1.0470094965   -2.6563642335    0.3024401001
 H    0.4192690653   -4.6892728826    0.9641079380
 H   -1.4578851893   -5.8236427011    0.9867690364