19

 C   -0.1561828918    1.4911749716   -0.0025131668
 C    0.0425421944    0.0078766104    0.0302086467
 N    0.1699882882   -0.6796864859   -1.1220802592
 N    0.3248886368   -1.9303028771   -0.6728162308
 C    0.5247471518   -3.3442833493   -1.0075489804
 C    0.5096087492   -3.5831499678    0.5594532883
 C    0.3040074177   -2.0741652970    0.6592082994
 C    0.1180184594   -0.8161752429    1.2026799372
 C    0.0155337668   -0.3747231999    2.6293626459
 H    0.6464320994    2.0182675556    0.5271341060
 H   -0.1722733908    1.8408910699   -1.0367359341
 H   -1.0992645443    1.7832247564    0.4748193008
 H   -0.3022385319   -3.7952415488   -1.5628912862
 H    1.4725864295   -3.5570666661   -1.5095352226
 H   -0.3166864384   -4.2048327949    0.9121725404
 H    1.4481663273   -3.9679190143    0.9653384640
 H    0.7993230276    0.3461223063    2.8922751524
 H   -0.9448255218    0.1117057095    2.8395003156
 H    0.1089000306   -1.2232619256    3.3127152633