21

 C   -0.1319030899    1.5707329384    0.0347204180
 C   -0.0083620191    0.0398005854    0.0171256243
 C    0.6365213407   -0.4639174511   -1.2833441350
 C    1.0080536690   -1.9502638558   -1.2008612445
 C    1.9856303188   -2.2486102892   -0.0444859337
 C    3.4265015621   -1.9190655418   -0.4188603086
 O    4.3743344681   -2.6193012149   -0.1745021553
 C    1.6301789397   -1.4639854075    1.1995246261
 C    0.7493092131   -0.4634987446    1.2218036231
 H    0.8559846662    2.0433198640    0.0019634209
 H   -0.7052330334    1.9262111901   -0.8276625251
 H   -0.6384865767    1.9178200011    0.9413238979
 H   -1.0298069903   -0.3701269773    0.0740264657
 H   -0.0416597658   -0.2934092063   -2.1268897851
 H    1.5345787031    0.1346472884   -1.4847142772
 H    0.0993822144   -2.5417074570   -1.0376823470
 H    1.4330718440   -2.2921287451   -2.1517658608
 H    1.9813527492   -3.3182772990    0.1942262113
 H    3.5553089705   -0.9389745683   -0.9339926322
 H    2.1455413847   -1.7580087474    2.1102475716
 H    0.5365383717    0.0321699878    2.1675451055