19

 C   -0.0695905800    1.5222123991   -0.0904660636
 C   -0.0087728983    0.0033083958    0.0937249625
 C   -1.3883785065   -0.6427328011    0.0785892785
 O   -2.0613699206   -0.4069033872   -1.2034175092
 C   -2.3505783805   -1.7314802641   -1.6678668869
 C   -2.8775802352   -2.4483488442   -0.3923319296
 C   -1.4187176758   -2.1827661511    0.1235750418
 C   -1.0358012785   -2.4833297180   -1.3486216307
 O   -0.2165712707   -3.1321468489   -1.9225572621
 H    0.9339339012    1.9570253092   -0.0931820302
 H   -0.5558405763    1.7732469725   -1.0366775118
 H   -0.6379113460    1.9976000317    0.7168872868
 H    0.6064466455   -0.4464354771   -0.6946470893
 H    0.4730891690   -0.2431458820    1.0489863946
 H   -2.0120075054   -0.2066660558    0.8711976311
 H   -2.8534658217   -1.7088500255   -2.6308878803
 H   -3.6806375587   -1.9292618440    0.1342492488
 H   -3.1057134112   -3.5059594041   -0.5364587196
 H   -0.9729685001   -2.6879103052    0.9767014891