17

 C   -0.0223109015    1.4533800306   -0.0229406784
 C   -0.0142248553   -0.0398310818   -0.0180140959
 N    0.9389388123   -0.8505957614   -0.8118430167
 C    0.0666447849   -2.0277364583   -0.4581688915
 C    0.4228005325   -2.2416287582    1.0305930873
 C   -0.2789370763   -0.8990372332    1.2562606259
 C   -0.6857563041   -0.3094669452    2.4847349524
 N   -1.0166946800    0.1748842785    3.4836366787
 C   -1.1097292684   -1.0592781184   -0.0307320025
 H    0.9552202764    1.8395989987    0.2827191227
 H   -0.2467437084    1.8394579119   -1.0231111621
 H   -0.7742464812    1.8420731986    0.6691776322
 H    0.7619012661   -0.6218683777   -1.7909951616
 H    0.0208311975   -2.8516812482   -1.1651200238
 H   -0.1457182967   -3.0580115408    1.4809424614
 H    1.4855557633   -2.3204999288    1.2704852297
 H   -2.1836388311   -1.0274485462   -0.1610005077