16

 C   -0.0831761450    1.4931693483   -0.0005268248
 C   -0.0065395157    0.0011892219   -0.0655098901
 C    0.8425417145   -0.8646032911   -1.0011815767
 C    0.0307192948   -2.0674917762   -0.4527058267
 C    0.4403227894   -2.0802629120    1.0273613458
 N   -0.2473596187   -0.7606320859    1.2195286014
 C   -1.0702763073   -1.0322541472    0.0015874937
 H    0.8661232967    1.9181282907    0.3452304337
 H   -0.3045301108    1.9185631936   -0.9853834057
 H   -0.8638447872    1.8067099725    0.6976447997
 H    0.6007511629   -0.6465556629   -2.0452310630
 H    1.9310219712   -0.8844580792   -0.8695807961
 H   -0.1034166988   -2.9736082806   -1.0407231921
 H   -0.0861991800   -2.8305715031    1.6233251299
 H    1.5098846973   -2.0956999034    1.2711580380
 H   -2.1520896631   -0.9985757955   -0.0244872670