21

 C    0.1395004346    1.4928601625   -0.0708378775
 C   -0.0258577416   -0.0030377114    0.0735822348
 C   -1.2427243138   -0.6165291130   -0.6137136019
 C   -1.8454938501   -1.8101464288    0.1456132700
 C   -0.7624356026   -2.7527037308    0.6815755668
 C    0.1136216082   -2.0397654325    1.7182405579
 O    1.2102143227   -2.8415181002    2.1414268033
 C    0.6085924579   -0.7036382397    1.2063184572
 O    1.1990032396   -0.7471479151   -0.1039119695
 H    1.0774605620    1.8236993369    0.3817904220
 H    0.1512875311    1.7757860541   -1.1294371231
 H   -0.6897972626    2.0246235739    0.4079689610
 H   -2.0049508105    0.1577652641   -0.7531379755
 H   -0.9281223908   -0.9265642368   -1.6179900781
 H   -2.4434902244   -1.4382582134    0.9886996030
 H   -2.5381793590   -2.3518028254   -0.5068734439
 H   -1.2021596755   -3.6422276334    1.1421970788
 H   -0.1237010514   -3.0927040210   -0.1427291331
 H   -0.4738465403   -1.8606553979    2.6283564650
 H    1.8014370982   -2.9231932386    1.3835442954
 H    1.1788524983   -0.1208101335    1.9317344073