16

 O    0.2472821083    1.2984828220   -0.3738984923
 C    0.0539374525   -0.0838603498   -0.0545328040
 C    0.7523800276   -0.4810170164    1.2197393732
 C    0.4040581497   -0.0550273160    2.4533643463
 C   -0.7832781488    0.6659488607    2.8250905898
 C   -1.9687815785    0.6770986818    2.1556542355
 C   -2.2738485578   -0.0298397179    0.9411885362
 C   -1.4034750618   -0.4607379748    0.0023581698
 H   -0.1511022775    1.8091575192    0.3400980242
 H    0.5206937607   -0.6121317501   -0.8899100081
 H    1.6466463558   -1.0901591084    1.1179592183
 H    1.0856069519   -0.2821472880    3.2709577830
 H   -0.7552820613    1.1637754428    3.7913865790
 H   -2.8035381407    1.1830387016    2.6347671715
 H   -3.3290766625   -0.2406239417    0.7780479591
 H   -1.7867650677   -1.0578612351   -0.8208418617