22

 C    0.3443593866    1.4353073217   -0.5246256059
 C    0.0554400216    0.0365961041   -0.0230658116
 C    1.1487506818   -0.9524633383    0.1982053348
 N    0.3944629862   -0.4232360890    1.3274826609
 C    1.0728525319    0.4589648877    2.2619932528
 C    1.6750266676   -0.3385566369    3.4178205438
 O    2.7602318411   -1.1742262847    2.9946516358
 C    2.1558280105    0.5507818467    4.5684221224
 O    2.7853415400   -0.2191811876    5.5681956718
 H    1.3513796679    1.7742011754   -0.2695000170
 H    0.2552828679    1.4620441935   -1.6157553449
 H   -0.3714807129    2.1589766186   -0.1187439983
 H   -0.9086592088   -0.3495989358   -0.3523405207
 H    1.0154367162   -2.0093372093   -0.0159964456
 H    2.1675004720   -0.5916729286    0.0548155318
 H    1.8743559659    1.0663514119    1.8009417639
 H    0.3351263513    1.1628181057    2.6679754600
 H    0.9234864250   -1.0390353265    3.7952151779
 H    3.4049553835   -0.6104851570    2.5497267199
 H    2.8377614859    1.3256231902    4.1682905971
 H    1.3090532406    1.0708046926    5.0303556023
 H    3.2749625883   -0.9017880044    5.0897398688