20

 C   -0.3653264103    1.4392913742    0.0223291453
 C    0.0129024647   -0.0246845478    0.0101261639
 C    0.6116039273   -0.7650495728   -1.1155701224
 C    1.6295716020    0.0591999680   -1.9025740087
 C    2.3968981960    0.2094402437   -0.5685865626
 C    3.7226213708   -0.5548515767   -0.5219360433
 C    2.6608779168    1.5947115291   -0.0239467028
 O    2.8105424909    2.5818774316   -0.6985151507
 N    1.3705559165   -0.5995614226    0.2081195889
 H    0.2007728004    2.0476559059   -0.6836514247
 H   -1.4253315812    1.5337366026   -0.2368689318
 H   -0.2333263463    1.8675269801    1.0219691980
 H   -0.6791699124   -0.6309549279    0.5932311327
 H    0.2475518900   -1.7396225657   -1.4257996862
 H    2.1811686355   -0.5196160176   -2.6449893503
 H    1.2705388857    0.9791732820   -2.3699549728
 H    4.4532831989   -0.1007180476   -1.1983462988
 H    4.1323396768   -0.5593229861    0.4933561561
 H    3.5545964652   -1.5937708522   -0.8188130012
 H    2.7478909827    1.6255393496    1.0875588114