15

 C   -0.0316414354    1.5084172808   -0.0481456248
 C   -0.0127850390    0.0204342072   -0.0361699391
 N   -0.0273050583   -0.7558211967   -1.1028552188
 C    0.0000585925   -2.0179016533   -0.5847376625
 N    0.0308341212   -2.0864944580    0.7270337490
 N    0.0223520112   -0.7650797114    1.0862655548
 C    0.0481930841   -0.3679424275    2.4600960599
 N    0.0814208721   -1.4260205084    3.2957178595
 O    0.0393240568    0.8012450736    2.7720845255
 H    0.8487015429    1.9169390249    0.4539754296
 H   -0.0565754909    1.8398512909   -1.0867310981
 H   -0.9015802157    1.8948615991    0.4885281045
 H   -0.0027604574   -2.9065846422   -1.1987527684
 H    0.0837189537   -2.3623163871    2.9252706974
 H    0.0991059923   -1.2457588218    4.2835333116