13

 N    0.0228720076    1.2376676161    0.0091641454
 N    1.0860798438    2.0728630146    0.0033601774
 N    2.2695702627    1.5480239847   -0.0113121758
 C    2.3680475427    0.2046600994   -0.0198678142
 C    3.4609348005   -0.6363796710   -0.0354324238
 C    2.9497563883   -1.9678165302   -0.0378988511
 C    1.5558377562   -1.9912509808   -0.0242191244
 C    1.1507804575   -0.6446145775   -0.0126225745
 N   -0.0393194269   -0.0846794613    0.0023106627
 H   -0.8634462480    1.7217450805    0.0206671919
 H    4.5008283165   -0.3471304355   -0.0440895483
 H    3.5741384220   -2.8529273257   -0.0490781889
 H    0.9136097771   -2.8582889633   -0.0227401197