23

 C   -0.1891322915    1.4447932659   -0.0737789563
 C    0.1747264272   -0.0433606154   -0.0706054265
 C    0.8212399021   -0.4998128866    1.2317150383
 C   -0.0375995684   -0.5757602696    2.5582896908
 C    0.7005348502   -1.9129631543    2.9213701868
 C    0.0421020422   -3.2826012151    3.1826217356
 C    0.6238370473   -4.1869557749    2.0441090726
 C    0.9585653122   -3.1879940652    0.9368060828
 C    1.0738330760   -1.9740382963    1.4653696694
 H    0.6989152111    2.0702789063    0.0709299734
 H   -0.6520433129    1.7384366160   -1.0209560739
 H   -0.8947948164    1.6831579917    0.7293909113
 H   -0.7223831358   -0.6492306514   -0.2499928930
 H    0.8594164634   -0.2563810209   -0.9018546057
 H    1.7230955472    0.0954976992    1.4299332830
 H    0.0516504314    0.2585023365    3.2586303823
 H   -1.0937196144   -0.7492006988    2.3285583304
 H    1.5454170379   -1.7143027069    3.5924457458
 H    0.2325154808   -3.6847645712    4.1819872431
 H   -1.0445655246   -3.2064410758    3.0602683790
 H    1.5120047943   -4.7382164416    2.3853202592
 H   -0.0955513223   -4.9433173514    1.7109399454
 H    1.0070480730   -3.4613673001   -0.1110278837