23

 C   -0.0309324408    1.5833108220   -0.0437326649
 C   -0.0090596291    0.0460630422   -0.0185212753
 C   -1.4625356116   -0.4754872095   -0.0324676966
 C    0.7608993526   -0.5498728477   -1.1899388287
 C    1.5826682531   -1.5381977185   -0.8365511523
 C    1.5783881579   -1.7889402671    0.6488274827
 C    2.8292486096   -1.2832623335    1.4243566006
 C    2.1136578939    0.0786563813    1.6369105226
 C    0.7638569307   -0.5619236039    1.1827218282
 H    0.9735862612    2.0107354197   -0.0999180782
 H   -0.5916083497    1.9448451082   -0.9131731583
 H   -0.5192728135    1.9832729293    0.8519441322
 H   -1.9742539396   -0.1969290257   -0.9604812668
 H   -1.4883202362   -1.5666622616    0.0479449214
 H   -2.0343763358   -0.0563441540    0.8037602096
 H    0.6008111228   -0.2052653449   -2.2078169606
 H    2.1953228430   -2.1148698385   -1.5230188847
 H    1.2442150830   -2.8018377732    0.8992385019
 H    2.9760219214   -1.8295922939    2.3602990320
 H    3.7776205816   -1.2678389281    0.8800751505
 H    2.1367343727    0.4892627855    2.6490174173
 H    2.4733325986    0.8472843495    0.9503418767
 H    0.1066191942   -0.7757427477    2.0293280006