17

 C   -0.0031315378    1.4346677963   -0.4638661160
 C   -0.1011041649    0.1135345114    0.3168523341
 C   -1.4314900290   -0.5630118356    0.1719995108
 N   -2.2727389221   -0.6170079232    1.1982193733
 N   -3.3653318595   -1.2638876659    0.7052013864
 C   -3.2301258543   -1.6148416040   -0.5976291329
 N   -4.2163550441   -2.3538176484   -1.2575784956
 C   -1.9811894034   -1.1721780843   -0.9871022539
 H    0.9814881019    1.8946387056   -0.3319098605
 H   -0.1588584728    1.2755385867   -1.5358363179
 H   -0.7608129661    2.1452141599   -0.1195566807
 H    0.6929806983   -0.5645089249   -0.0205323312
 H    0.0679977100    0.2983628845    1.3820430263
 H   -4.1159302636   -1.5069321154    1.3281663270
 H   -5.1440907641   -1.9563560159   -1.1644544878
 H   -4.0031633797   -2.4626825290   -2.2400009226
 H   -1.5390009189   -1.2640195680   -1.9664334288