15

 C   -0.0622286746    1.3497488825    0.0350905845
 O   -0.0107942146   -0.0864762932    0.0578750293
 C    0.6418027529   -0.6097499293    1.1044361025
 O    1.1723738238    0.0392509924    1.9697623134
 N    0.6369123777   -2.0203012363    1.0719859854
 C    1.3606892367   -2.6525847602    2.1214985744
 N    1.2867679386   -3.8909686283    2.3553473365
 C   -0.0199114744   -2.7311716892    0.0271862978
 O    0.0298426378   -3.9155621984   -0.1293461822
 H    0.9459033746    1.7661778887   -0.0136735613
 H   -0.6273219532    1.6028506572   -0.8611092403
 H   -0.5640417266    1.7279047154    0.9280817616
 H    1.9477843325   -1.9157390543    2.6691664288
 H    1.8918440414   -4.1170146400    3.1448933909
 H   -0.5762598925   -2.0463859671   -0.6249172414