17

 O   -0.0837021985   -0.0113962654   -0.2544983538
 C   -0.0230264622    1.1671309717   -0.0002838296
 C    1.2310406017    1.9614911789    0.0323007936
 C    1.5015753075    3.1493627119    0.9786457834
 C    2.6238132332    3.5117203157   -0.0252655761
 C    3.6011892457    2.3278853518    0.1593334538
 C    2.6005418166    1.2924061502   -0.3835353227
 O    2.4375638866    1.7634750836   -1.7615040576
 C    1.7286755641    2.8392647986   -1.1710934299
 H   -0.9447719038    1.7534441765    0.2230709180
 H    0.6644108737    3.8536577699    0.9567407365
 H    1.7879053920    2.9468451050    2.0144036025
 H    3.0240216541    4.5201869050   -0.1057710507
 H    4.4903518763    2.3681087933   -0.4722033466
 H    3.8914493917    2.1822963306    1.2030793957
 H    2.7746429659    0.2225726202   -0.3046847004
 H    1.1096732054    3.4399344723   -1.8360585060