19

 C   -0.0618901280    1.5614543998    0.0194712870
 C   -0.0140018573    0.0316120779   -0.0177127037
 C    0.7525676219   -0.5271330903   -1.2104191759
 C    0.8514877472   -2.0498945039   -1.2367211439
 C    1.5176215179   -2.4914183334   -2.5440053000
 N    0.9700789258   -1.8230062483   -3.7218486365
 C    0.3255566895   -0.7503284580   -3.5460766350
 O    0.0830100625   -0.0617702782   -2.4041928193
 H    0.9457918462    1.9869987227    0.0833770028
 H   -0.5363245623    1.9572420739   -0.8818578430
 H   -0.6279163188    1.9134202157    0.8868173427
 H    0.4612255486   -0.3532917643    0.8931105833
 H   -1.0313426829   -0.3777972138   -0.0400330005
 H    1.7662101445   -0.0983558132   -1.2273971323
 H    1.4132367466   -2.4022657767   -0.3652288399
 H   -0.1583859205   -2.4726812687   -1.1702556078
 H    2.5991355517   -2.3019766590   -2.5079675878
 H    1.4054650431   -3.5718007241   -2.6870509863
 H   -0.1409036755   -0.2386700980   -4.3867135540