17

 C   -0.1854649155    1.5417597774    0.0649194523
 C    0.0243158267    0.0505501752   -0.0323781874
 C    0.6008407654   -0.6691943340   -1.2210287024
 C    1.3734155121    0.1257463336   -2.1991103878
 C    2.4474331038    0.6740374094   -1.6091673735
 C    2.5141015182    0.2492540983   -0.1455798577
 N    1.3333580284   -0.6098839167    0.0751689757
 C    3.3956013605    1.5414036802   -2.2090398694
 N    4.1962614477    2.2467262807   -2.6616431007
 H    0.4648729437    2.1145097125   -0.5983551640
 H   -1.2224111463    1.7843188208   -0.1876955043
 H   -0.0101281800    1.8806149607    1.0923007060
 H   -0.7295282226   -0.5192128879    0.5096945098
 H    0.1830400227   -1.6245179966   -1.5283752275
 H    1.1000264083    0.2396848078   -3.2401046294
 H    3.4244558663   -0.3250301698    0.0605472866
 H    2.5126524107    1.1080299286    0.5363020535