19

 N    0.1474709080    1.2690254212   -0.4542432410
 C    0.0475647746   -0.0751706980    0.0722518246
 C   -0.0533307152   -0.2289869528    1.6086240661
 O   -1.2697296271   -1.0223517026    1.4651910217
 C   -1.2817092323   -0.8265461518    0.0895465069
 N   -2.1372004916   -1.1367678400   -0.7697310991
 C   -3.3322754319   -1.8119785660   -0.3774301369
 C   -4.5762430695   -1.5214551894   -1.1861199927
 C   -3.8783863949   -2.8451910282   -1.3367511438
 H    0.1982581068    1.2359138542   -1.4678081972
 H   -0.6945597180    1.7939035908   -0.2324137267
 H    0.8521632951   -0.6797010100   -0.3560320943
 H    0.7345151438   -0.7949141199    2.1105416563
 H   -0.2514423812    0.7053275697    2.1421094790
 H   -3.4667678844   -2.0055892891    0.6839393754
 H   -5.5241277451   -1.4863654770   -0.6608154086
 H   -4.4708509074   -0.8036653750   -1.9909639640
 H   -3.3067007650   -3.0118640857   -2.2419202401
 H   -4.3397348747   -3.7313699106   -0.9155757056