12

 N    0.1722316518   -1.1201557008   -0.0048489395
 C    0.0566170770    0.0326208951    0.0027997343
 C   -0.0733198552    1.4393632396    0.0116075438
 C   -1.2116422542    2.2369188641    0.0315408905
 C   -0.7866759877    3.5761267207    0.0322505224
 C    0.6032440417    3.5714477601    0.0127096661
 N    1.0216365422    2.2653094207    0.0003515421
 C    1.5204876874    4.6459206302    0.0051851943
 N    2.2794148961    5.5213127291   -0.0011078367
 H   -2.2256839433    1.8715062365    0.0439520134
 H   -1.4044962905    4.4593517606    0.0453235003
 H    1.9816550049    1.9606797439   -0.0146280612