23

 C   -0.0102206854    1.5729893092    0.0465662963
 C    0.0073150931    0.0474823943    0.0084597547
 C    0.7159058687   -0.5641808533   -1.2442183763
 C    2.0112376743   -0.6788987035   -0.3889241678
 C    1.1290249980   -0.5997795715    0.8853682405
 O    0.7760602447   -1.8336904047    1.4843015216
 C    0.6571069123   -2.9777523134    0.6515741475
 C   -0.3142620737   -2.8418436606   -0.5274694304
 C    0.1523828988   -1.9254611089   -1.6776155047
 H    0.9823671064    1.9973931617   -0.1420412106
 H   -0.6884645336    1.9761897834   -0.7133527950
 H   -0.3460453199    1.9386838684    1.0231163425
 H   -0.9944883820   -0.3350734756    0.2226293466
 H    0.7871835490    0.0967375752   -2.1141664794
 H    2.6464468005   -1.5573563617   -0.5237559274
 H    2.6407178926    0.2097927878   -0.4762425431
 H    1.5034231109    0.0165781296    1.7082513934
 H    1.6450735748   -3.2973493652    0.2843956921
 H    0.3001427269   -3.7636553041    1.3247996093
 H   -0.4874764648   -3.8473524740   -0.9305867282
 H   -1.2795428269   -2.5000103989   -0.1368637233
 H   -0.6954569132   -1.7686866848   -2.3558002470
 H    0.9212619586   -2.4450674796   -2.2652962514