12

 C    0.0197090449   -1.1797102179   -0.0044542527
 C    0.0401026816    0.0202899016    0.0017533631
 C    0.0280733873    1.4737999355    0.0096724408
 O    1.3639402942    1.9626725592   -0.0004452231
 C    1.4003029434    3.3690593862    0.0067734669
 C    2.7960705573    3.8133000800   -0.0041486379
 N    3.8839971927    4.1988568673   -0.0124516247
 H    0.0103277386   -2.2419394377   -0.0100050364
 H   -0.5212218476    1.8509483988   -0.8692275373
 H   -0.5043193860    1.8414369948    0.9028873174
 H    0.8892799071    3.7938373620   -0.8732304283
 H    0.9061998265    3.7842932902    0.9008822323