13

 O    0.1251991772    1.3464187607   -0.3542576525
 C    0.0257595016    0.0094137329    0.1049498992
 C   -1.3809540959   -0.5042467700    0.0209963678
 N   -2.1024366429   -0.7590668863    1.0758551327
 O   -3.3257718359   -1.1602785102    0.6116772665
 N   -3.3738328675   -1.1534608623   -0.7482830352
 C   -2.1866204558   -0.7502406513   -1.1427658091
 C   -1.8212439071   -0.6128903742   -2.5003374976
 C   -1.4741161681   -0.4921361736   -3.6446610565
 H   -0.3788156533    1.9039727402    0.2484653301
 H    0.6717583265   -0.5801998118   -0.5520860109
 H    0.3838438214   -0.1113334769    1.1351279622
 H   -1.1753019102   -0.3820235574   -4.6583942468