18

 C   -0.0159568859    1.3845084781    0.0309823114
 O   -0.0540471808   -0.0206008390   -0.0297097746
 C    0.6856447337   -0.5425463545   -1.1102454631
 C    0.5429505983   -2.0655665586   -1.0905702786
 C    1.2818019186   -2.7161353090   -2.2152355788
 C    2.4104492112   -3.5030881216   -2.2006053846
 N    2.6299166751   -3.7901726614   -3.5056415327
 N    1.7029764968   -3.2228087907   -4.2975663163
 N    0.8886371829   -2.5731616786   -3.5184897171
 H    1.0111843873    1.7613019487    0.1629657612
 H   -0.4336648823    1.8448831023   -0.8783248963
 H   -0.6168691514    1.6922228881    0.8903496092
 H    0.3166114875   -0.1470040569   -2.0697369531
 H    1.7491168591   -0.2583390104   -1.0274225498
 H    0.9063939242   -2.4453145668   -0.1307736548
 H   -0.5224743857   -2.3102978773   -1.1539281555
 H    3.0412104416   -3.8678774268   -1.4076510447
 H    3.3564940197   -4.3514941856   -3.9201277117