22

 C    0.7580793346    1.3596161314    0.0827233629
 C    0.9703085285    0.0161717383   -0.6098434822
 C   -0.2584006608   -0.4748916218   -1.3574954865
 O   -1.2678498774    0.1849470755   -1.4544058238
 C   -0.1938293292   -1.8842108593   -1.9577646088
 N    1.1023910252   -2.2354341530   -2.4902649513
 C    1.4879869234   -1.7332522495   -3.8283993368
 C    2.1905394134   -3.0848708664   -4.0960497876
 C    1.3405833947   -3.6292544221   -2.9225697468
 H    0.4769110044    2.1304007584   -0.6393889589
 H   -0.0480848602    1.2993576661    0.8189280857
 H    1.6700516776    1.6797176578    0.5945745464
 H    1.8007267014    0.0578776396   -1.3258127273
 H    1.2692041336   -0.7671765296    0.0995962262
 H   -0.4219095395   -2.5782976186   -1.1352927400
 H   -1.0155673816   -1.9707305129   -2.6911999998
 H    0.6207409955   -1.5762314997   -4.4906353296
 H    2.0961392288   -0.8224050865   -3.8258627292
 H    2.0391052669   -3.5401965591   -5.0745734628
 H    3.2570158073   -3.0582977352   -3.8663666232
 H    1.8267069482   -4.2652696339   -2.1752233793
 H    0.4262963952   -4.1325957194   -3.2766067373