15

 N    0.0028956508    1.2797938631   -0.1994851877
 C    0.0477160870   -0.0361501919    0.1208830018
 O    1.0416674950   -0.6360878804    0.4960550461
 C   -1.2630357397   -0.7277947140   -0.0360159938
 N   -1.5443142574   -1.9471747474    0.7895817731
 C   -1.5452432755   -2.1003838317   -0.6485115397
 C   -2.9384951333   -1.6633998332   -1.1350629409
 C   -2.5517013344   -0.2462850633   -0.6329399333
 O   -2.9446492376    0.8609444901   -0.8904387341
 H    0.8374845843    1.8334309836   -0.0975055031
 H   -0.8735662066    1.7184761558   -0.4439513072
 H   -0.6126267931   -2.2054453417    1.1305683460
 H   -0.8166716590   -2.7005393929   -1.1775964745
 H   -3.0820668214   -1.6668668490   -2.2180434602
 H   -3.7735656892   -2.1570887270   -0.6348740426