17

 O   -0.0263282847    1.4770460277   -0.1047858243
 C    0.0375680741    0.0730473361   -0.0344071863
 C    0.0497823474   -0.5981232484    1.3555568630
 C   -1.4754678392   -0.2769132919    1.5860396035
 C   -1.3286650145   -0.6101909685    0.0510429525
 C   -0.7134404294   -1.8544717246    0.7961312460
 C   -1.7476193034   -1.7386007843    1.9068320636
 C   -2.0847118344   -2.5041982350    3.0988249346
 O   -2.9968851072   -2.3829581161    1.9799445257
 H    0.8682363812    1.8259741405   -0.0435366741
 H    0.7403159775   -0.3399331426   -0.7728724933
 H    0.8254817593   -0.6122285473    2.1226525371
 H   -1.8915055893    0.6311149246    2.0154584687
 H   -2.1347709846   -0.6332026601   -0.6811441265
 H   -0.2682198412   -2.7341021414    0.3327622202
 H   -1.6699482643   -3.5003816662    3.2480409852
 H   -2.4016286273   -1.9947409924    4.0079647144