19

 C    0.0587032754    1.3237055615    0.1922844930
 O   -0.0588899632   -0.0766763918   -0.0933003579
 C    0.7608277957   -0.5409129060   -1.0555019230
 O    1.5401510846    0.1515444975   -1.6630053486
 C    0.5803980675   -2.0325925492   -1.2544708919
 C    1.3166293040   -2.5382258024   -2.4848762859
 C    2.8595628726   -2.5637583697   -2.4349472946
 O    2.8883191851   -3.9903995288   -2.6632854222
 C    1.4507648572   -4.0688377430   -2.6509478179
 H    1.0687398258    1.5642029579    0.5336001033
 H   -0.1612475783    1.9181529295   -0.6979107250
 H   -0.6685927692    1.5280252233    0.9779113077
 H    0.9455949830   -2.5354267155   -0.3489575865
 H   -0.4921661261   -2.2521574362   -1.3042974812
 H    0.9354974841   -2.0393155238   -3.3780884990
 H    3.3775521433   -2.0073379911   -3.2226212047
 H    3.2978312645   -2.2936716043   -1.4653161724
 H    1.0775650279   -4.6626334789   -1.8041208357
 H    1.0515187964   -4.4930225489   -3.5803139775