16

 O   -0.2379421361    0.0397990080    0.1109636937
 C   -0.0445890358    1.2231797480   -0.0385955678
 C    1.2692475137    1.8645602743    0.0011653362
 N    1.4399538730    3.2886260835    0.3725281757
 C    1.7664146466    2.9162885774   -0.9923645489
 C    3.1600776317    2.2212852403   -0.9921111902
 O    4.1303018191    2.7398056810   -0.0785566987
 C    3.7285296618    1.7944407824    0.9533241190
 C    2.6491928982    1.1840824113    0.0318549563
 H   -0.8813897066    1.9328090883   -0.2485367958
 H    0.5227613776    3.7363443965    0.3745702537
 H    1.2388559453    3.3493534022   -1.8350247555
 H    3.5567363556    1.9765718765   -1.9801641402
 H    4.5501897228    1.1116404753    1.1952309861
 H    3.3724534480    2.2994809001    1.8545648258
 H    2.6380418552    0.1139570251   -0.1561455193