19

 C   -0.0724321855    1.5552392136   -0.0712452571
 C    0.0006607380    0.0322129792   -0.0188649131
 C   -1.3609656362   -0.5970825918    0.2676911669
 C    0.7069169797   -0.6435058840   -1.2149355270
 O    2.0624903274   -0.1874062305   -1.2445425855
 C    1.7227240075   -1.2583179107   -0.3532375857
 C    1.1345911597   -0.6211574431    0.9174014153
 C    2.0416485735    0.3045512570    1.6840310640
 O    1.9718083243    0.4779452516    2.8765401439
 H    0.8813534070    1.9859997188   -0.3847257957
 H   -0.8404477169    1.8753452293   -0.7842206924
 H   -0.3340274438    1.9698143825    0.9081153560
 H   -2.0927419585   -0.2922162301   -0.4892129466
 H   -1.3093627085   -1.6910954386    0.2639393027
 H   -1.7371790210   -0.2788963621    1.2452382297
 H    0.2751187124   -0.9738720231   -2.1535346480
 H    2.2785392200   -2.1830525696   -0.4535631989
 H    0.6899306539   -1.3391704296    1.6095238664
 H    2.7933511670    0.8395861311    1.0664284051