25

 C   -0.0926000587    1.6397856624    0.1035089091
 C    0.0228929617    0.1167566622   -0.0228154311
 C   -1.3484407841   -0.5673335292    0.0423323633
 C   -1.3604533871   -2.1137393235   -0.0238743704
 C   -0.6741704655   -2.6195377168   -1.3166112245
 C   -0.6642554225   -2.7292107706    1.2056612334
 C   -2.8346868386   -2.5808385915   -0.1079327764
 C   -3.1617819311   -4.0264309234    0.2431953357
 O   -3.7159065657   -1.8303918435   -0.4611971114
 H    0.8892829475    2.1203208118    0.0483753721
 H   -0.7146187014    2.0569929441   -0.6960485693
 H   -0.5504604329    1.9240249305    1.0574843379
 H    0.5209705601   -0.1253706580   -0.9692405275
 H    0.6792882046   -0.2572555890    0.7726789939
 H   -1.8526959441   -0.2625275264    0.9690990485
 H   -1.9800418777   -0.1892898966   -0.7672910021
 H    0.3933612953   -2.3823100451   -1.3024158358
 H   -0.7633956456   -3.7052414297   -1.4233190429
 H   -1.1160734381   -2.1547191931   -2.2034334720
 H   -1.1525305781   -2.4222217537    2.1370392172
 H   -0.6592277715   -3.8219974115    1.1698534999
 H    0.3791121861   -2.4052637713    1.2566637189
 H   -3.1435522879   -4.1542243819    1.3314340484
 H   -4.1643867021   -4.2578181127   -0.1184155965
 H   -2.4401904527   -4.7345208736   -0.1734213486