22

 C    0.1742048164    1.6947116203   -0.0171327231
 C   -0.0561562320    0.1739045356    0.0408943648
 C    0.5949617006   -0.5979342134   -1.1110492587
 N   -0.0232617905   -0.2294934899   -2.3812464508
 C    0.7230529557    0.6332400267   -3.2958142735
 C    0.4995671538   -0.8017277849   -3.6257096708
 C    1.6436624346   -1.7918316052   -3.6585515478
 C    0.3815259541   -0.3595856774    1.3890978358
 O    1.1279944524   -1.2897236343    1.5631311129
 H    1.2440237312    1.9312705023   -0.0182241577
 H   -0.2703450750    2.1102224625   -0.9237287663
 H   -0.2802915418    2.1974942288    0.8431370317
 H   -1.1438071731    0.0072187149   -0.0075985078
 H    1.6830145597   -0.4276418857   -1.0864929300
 H    0.4429523481   -1.6687476392   -0.9434088671
 H    0.1565238340    1.4206736276   -3.7869357769
 H    1.7353518411    0.9173016571   -3.0077102509
 H   -0.2941081359   -1.0308609603   -4.3364291674
 H    2.4653200858   -1.5020104365   -2.9994287799
 H    1.3092369356   -2.7926032669   -3.3632224767
 H    2.0422927896   -1.8653139536   -4.6758741955
 H   -0.0531223246    0.1915550615    2.2568683359