22

 C    0.2761176778    1.5144674913   -0.2015624666
 C   -0.0669856910    0.0462385333    0.0775366171
 C    0.5397399322   -0.4852442751    1.3457991355
 C    0.5339636156    0.1512985466    2.7298384961
 C    1.7516949246   -0.7534069637    2.9840185120
 C    1.2561326977   -2.2192953459    2.9577814261
 C    0.1798832106   -2.7298821751    3.9062511604
 C    0.9676974129   -1.9144293717    1.4966437425
 N    2.0085657698   -0.8243978265    1.4432516486
 H    1.3605165489    1.6553521215   -0.2358285468
 H   -0.1415693994    1.8365200703   -1.1600731367
 H   -0.1261204113    2.1754969727    0.5729330445
 H   -1.1569842424   -0.0830319192    0.1228579168
 H    0.2822218130   -0.5751266979   -0.7560692222
 H    0.8377413409    1.1998484544    2.6720293263
 H   -0.3480920372    0.0627363377    3.3725049786
 H    2.5585989934   -0.4428123785    3.6457809700
 H    2.1362326699   -2.8715290189    2.9993633304
 H   -0.7250093127   -2.1165956306    3.8723293367
 H   -0.1072098072   -3.7548463298    3.6471419508
 H    0.5419739537   -2.7413423861    4.9403378523
 H    0.8625100402   -2.6214640689    0.6795949576