17

 O   -0.5583577997    0.4492375373    0.4334840026
 C    0.2641305820    0.8715620906   -0.3372352253
 C    1.2813880851    1.9494549269   -0.0033940627
 C    1.2516076332    3.0707248648   -1.0137324209
 O    1.8084643071    2.7500845303   -2.3184548712
 C    2.4251991861    3.7873964812   -1.5501795737
 C    1.9917387304    5.1959245183   -1.9368985226
 C    0.5051429446    5.1873590460   -1.6378669227
 C    0.1030070060    4.0300500954   -1.1083992521
 H    0.3364465998    0.4864559199   -1.3780732069
 H    1.0854947530    2.3169584601    1.0080974272
 H    2.2749864760    1.4843975177   -0.0272502629
 H    3.4430525605    3.5851373797   -1.2259811728
 H    2.5246633382    5.9525637572   -1.3471492278
 H    2.2008558989    5.4075625553   -2.9924049580
 H   -0.1376605126    6.0285059863   -1.8708771613
 H   -0.9056304085    3.7791757928   -0.8034736790