20

 C   -0.1485429876    1.3861043815    0.5738795214
 C   -0.0145515098   -0.0222743358   -0.0075111219
 C   -1.3982786144   -0.5591579556   -0.3706943280
 C    1.1311502704   -0.2731315452   -1.0098206954
 N    2.1365587197    0.0246286882    0.1321578136
 C    1.0653088389   -0.9535195633    0.6916371115
 C    0.6024412208   -2.2290056578    1.4230235856
 O    0.2668729660   -2.7801042436    0.0890622965
 C    1.2031788127   -1.7970922921   -0.5119332897
 H    0.8110160649    1.7923500114    0.8898419304
 H   -0.5842575785    2.0622291425   -0.1707945685
 H   -0.8298712241    1.3740807384    1.4324025286
 H   -1.9180831397    0.1865938717   -0.9832251936
 H   -1.3766329408   -1.5021257531   -0.9128186870
 H   -2.0036820675   -0.7050040729    0.5313972174
 H    1.3018940285    0.1703265716   -1.9965075775
 H    2.9955912678   -0.5100323803   -0.0364435127
 H    1.3879415528   -2.8239752553    1.9029097963
 H   -0.2796686038   -2.1555581061    2.0651739588
 H    2.1508717435   -2.2977815341   -0.7363120559