15

 O    0.3127198698    1.4854405624    0.1746508602
 C    0.0877482930    0.1153638380   -0.0368271479
 C    0.9824000455   -0.5421394081   -1.0382844980
 C    1.1318260448   -0.8640196179    0.4365939028
 C   -1.3652875216   -0.2584810151    0.0361576703
 C   -2.2147721372   -0.3390566697   -1.1570292402
 O   -1.7383978675   -1.5235598155   -0.5048990255
 H    0.2344882350    1.6576573555    1.1196031071
 H    0.5523484251   -1.3062690635   -1.6747634591
 H    1.7356990353    0.0888254984   -1.4944988316
 H    1.9911766453   -0.4524776207    0.9545482605
 H    0.8028328041   -1.8393690144    0.7776708194
 H   -1.8478336392   -0.0202303802    0.9878478749
 H   -3.2860687851   -0.1645423541   -1.0745316373
 H   -1.7767659271   -0.1387525851   -2.1327609356