15

 N    0.1164233444    1.3568069337    0.1728188991
 C   -0.0635052987   -0.0096583187    0.0508818349
 C   -1.2285850705   -0.6955005712    0.0172012286
 C   -1.1930411634   -2.1287418743   -0.0110621205
 C   -0.0040517207   -2.7760357298   -0.0175625784
 O    0.1335800315   -4.1203150491   -0.0464703469
 C    1.2352972159   -2.0223654421    0.0023516802
 N    2.3591910718   -2.6264044680   -0.0156363686
 O    1.1381835995   -0.6485986856    0.0374618815
 H    0.9679531411    1.6924257014   -0.2570423188
 H   -0.6889989860    1.9023685048   -0.0967199571
 H   -2.1690738350   -0.1614246688    0.0218133932
 H   -2.1155234558   -2.6968542978   -0.0317563528
 H    1.0952771537   -4.2742984985   -0.0489476900
 H    3.1509462523   -1.9883754961    0.0056979055