19

 C   -0.0503686643    1.5741575692    0.0327976159
 C    0.0425837902    0.0470322277    0.0491239076
 C    0.7755790583   -0.5635816890   -1.1902948072
 C    1.4915572191   -1.8724148088   -0.7215984252
 C    1.6667197924   -1.6106962511    0.7454665315
 C    2.3104509975   -2.0320759584    1.8850807062
 N    1.8572503443   -1.2148956391    2.8816620649
 N    0.9614017023   -0.2864300531    2.4652584900
 C    0.8554355989   -0.5414626179    1.1693291345
 H    0.9472281411    2.0236225799   -0.0138117864
 H   -0.6225489309    1.9237398326   -0.8331100080
 H   -0.5412739141    1.9441487040    0.9375780407
 H   -0.9780588293   -0.3603784955    0.0977908886
 H    0.0989783072   -0.7340895835   -2.0322160955
 H    1.5353695398    0.1521972253   -1.5253620601
 H    0.8573479355   -2.7512255811   -0.8980969536
 H    2.4243634235   -2.0437647358   -1.2679219963
 H    3.0323604440   -2.8080267831    2.0865723987
 H    2.1399644545   -1.2160429421    3.8467688637