19

 C    0.1219470619    1.5777111184   -0.0440431995
 C    0.0479613151    0.0449550897    0.0464247011
 N    0.6472830215   -0.5196603937    1.2557639599
 C   -1.4062909099   -0.4719966644   -0.0143186704
 O   -2.0894717867    0.0178425193    1.1241195812
 C   -2.1848852173   -0.0509094797   -1.2825046046
 O   -3.5345193598   -0.4709591566   -1.1747458740
 C   -1.4155805238   -1.9625314094    0.0006585399
 N   -1.5408269318   -3.1094390928   -0.0753081328
 H    1.1576536260    1.8982822627    0.1042508840
 H   -0.1994148810    1.9597120964   -1.0187267453
 H   -0.4969630951    2.0378041330    0.7308375394
 H    0.5752461190   -0.3913436091   -0.8115222913
 H    1.6149384265   -0.2247142838    1.3360727613
 H    0.1554387870   -0.1644630953    2.0707821938
 H   -3.0325195658   -0.0995190840    0.9383734900
 H   -2.2122893319    1.0391860218   -1.3330924750
 H   -1.6967405967   -0.4405803946   -2.1851099877
 H   -3.5553548172   -1.4320085978   -1.2678786499