13

 N   -0.0392107156    1.3353523087    0.0097801886
 C    1.2765164147    1.7394914983   -0.0003900900
 N    2.1421123357    0.7593156667   -0.0140379534
 C    1.3623118499   -0.3814413841   -0.0130925732
 C   -0.0148174190   -0.0398557542    0.0018222809
 N   -1.0201481318   -0.8961653043    0.0065040990
 C   -0.6001244185   -2.1681913404   -0.0046002836
 C    0.7570294010   -2.5301420942   -0.0194407373
 N    1.7620652104   -1.6497221361   -0.0239836274
 H   -0.8584957047    1.9204616733    0.0207994678
 H    1.5334096751    2.7898121470    0.0030802249
 H   -1.3676233056   -2.9363085352   -0.0016679311
 H    1.0286547284   -3.5821335254   -0.0279077854