17

 O    0.1066146121    1.1650196202   -0.5716457848
 C   -0.0612425176    0.0788549057    0.3258661226
 C   -1.4654191838   -0.4258829910    0.3196417136
 C   -1.9291434203   -1.8314941931    0.4590606280
 C   -3.3977799108   -1.5851192922    0.8613955946
 N   -3.3502098973   -0.4369406194    1.8264561818
 C   -2.7773441048    0.3160727359    0.6612114172
 C   -3.3924245498   -0.6549729891   -0.3915322911
 N   -2.0256843341   -1.1541099134   -0.8821530592
 H   -0.1845392497    0.8484932583   -1.4349119944
 H    0.6251102121   -0.7501944458    0.0918831798
 H    0.1998392983    0.4562406230    1.3207350558
 H   -1.2895955664   -2.6876113815    0.6315435374
 H   -4.0669458229   -2.4189562689    1.0624912956
 H   -4.3078924370   -0.1107638700    1.9686560760
 H   -2.8073184118    1.4031630923    0.6597159832
 H   -4.2039013460   -0.4653884908   -1.0922289261