17

 O   -0.4473426389    0.1196360750   -0.3718718369
 C   -0.2303930714    1.2564656480   -0.0602396204
 C   -1.1625961336    2.4581853434    0.2588968306
 C    0.0698466730    3.3556990779    0.0724431888
 C    1.0935356124    2.9946133250    1.0879551548
 C    0.9943119800    2.1182578544   -0.1522890419
 C    2.1643217963    1.8799112332   -1.0823798941
 C    3.2000092968    1.0328104160   -0.4967210467
 C    4.0489037083    0.3439341386    0.0012252177
 H   -1.9249331603    2.5550100345   -0.5189300955
 H   -1.6429481686    2.4877978314    1.2410729945
 H    0.0920087541    4.2783334160   -0.4924969653
 H    1.9948794860    3.5995388710    1.1117355822
 H    0.7927778447    2.6114090114    2.0593595535
 H    1.7969589713    1.4205732040   -2.0085571889
 H    2.6016991305    2.8459866743   -1.3663976942
 H    4.7952649493   -0.2754482742    0.4331670018