17

 C   -0.3134071672    1.8780556458    0.2285899916
 C   -0.1677073493    0.4180012566   -0.2080364101
 C    0.7691709748   -0.3626240454    0.7290574241
 N   -1.4906983161   -0.1970119903   -0.2056877501
 C   -1.7440586072   -1.1664889226   -0.9911541652
 N   -0.9107207321   -1.8199946064   -1.8820561334
 C   -3.0811874484   -1.7372823130   -0.9417569631
 N   -4.1386059542   -2.2036316924   -0.9361684384
 H    0.6583235635    2.3819338249    0.2309620841
 H   -0.9832631625    2.4184686403   -0.4457768688
 H   -0.7378146608    1.9275758010    1.2357520389
 H    0.2749328953    0.4156247102   -1.2213880119
 H    0.3570383746   -0.3755372681    1.7423243855
 H    0.8916645841   -1.3987028591    0.3999374386
 H    1.7564907737    0.1083605011    0.7618548480
 H   -0.0563121690   -1.3520965681   -2.1406405066
 H   -1.3494346591   -2.3415586646   -2.6247883431