20

 C    0.1494814997    1.3862800827   -0.0821884849
 O    0.0382908078   -0.0159290432   -0.0347741476
 C    0.7760076573   -0.6588747995   -1.0533833297
 C    0.5880034938   -2.1729117258   -0.9136807110
 C    1.1141472648   -2.6714095565    0.4494250834
 C   -0.8970253814   -2.5624305942   -1.0759823152
 C    1.3747212115   -2.8837732047   -2.0017218213
 O    2.0451886096   -2.3485140314   -2.8475149660
 H    1.1925694191    1.7173846874    0.0419070723
 H   -0.2266432991    1.7935319601   -1.0338902657
 H   -0.4498848798    1.7907029243    0.7371523361
 H    0.4370099878   -0.3272951704   -2.0474309723
 H    1.8448349568   -0.4035837796   -0.9796648660
 H    0.5507937412   -2.1949791078    1.2546414205
 H    1.0032615479   -3.7567341830    0.5429061038
 H    2.1726385589   -2.4239968348    0.5808277292
 H   -1.2892325491   -2.2364164072   -2.0448846808
 H   -1.0317684822   -3.6464619045   -1.0005914391
 H   -1.4876935803   -2.0845140997   -0.2914875499
 H    1.2846180656   -3.9956959022   -1.9622585457