24

 C   -0.1403097735    1.5219019530    0.0729746980
 C   -0.0188308711   -0.0024717946    0.0126041253
 C   -1.3793888080   -0.6483915174   -0.2322452350
 C    1.1422248838   -0.4562191869   -0.9317901420
 C    2.0723683000   -0.5901204476    0.3029720322
 C    0.8155066065   -0.5938441313    1.2040790462
 N    0.8906827553    0.1795004196    2.4273050611
 C   -0.0537458163   -0.1738170545    3.4849235789
 C    1.3861577068   -0.5278547488    3.6055015328
 H    0.8254889646    2.0024802539    0.2491665831
 H   -0.5453582484    1.9036616077   -0.8714403961
 H   -0.8095617892    1.8338429452    0.8808570012
 H   -1.8095657582   -0.3119150375   -1.1830856131
 H   -1.3013392337   -1.7404671362   -0.2709612749
 H   -2.0913274461   -0.3893918670    0.5605128121
 H    0.9353998209   -1.4220593872   -1.4022957778
 H    1.4437966220    0.2499460163   -1.7097561681
 H    2.7300396794   -1.4607814174    0.3542320799
 H    2.6676849562    0.3101655384    0.4739783601
 H    0.4888363212   -1.6315744404    1.3992011722
 H   -0.4674359261    0.6582673414    4.0474810956
 H   -0.7515985049   -0.9883304533    3.2959724226
 H    1.6497660058   -1.5788535661    3.4958540924
 H    2.0431390529    0.0405817206    4.2575324131