22

 C   -0.0479862699    1.5516694291    0.0383636044
 C    0.0438866750    0.0200578755    0.0123822919
 C    0.6996122085   -0.4963920519   -1.2753509135
 N    0.7301403976   -0.4910511137    1.1998487094
 C    2.0418557045   -0.2215895950    1.5262084616
 C    2.3412176542   -0.8670007600    2.7006992832
 C    1.1676354139   -1.5565678404    3.1065306730
 C    0.1860736677   -1.3129435984    2.1694181798
 C   -1.2251522111   -1.8048611568    2.1329210950
 H    0.9455011979    2.0075570188   -0.0148035153
 H   -0.6299097277    1.9115927040   -0.8158204391
 H   -0.5297678362    1.8968646300    0.9571403447
 H   -0.9721519032   -0.3804552396    0.0585407056
 H    1.7209917230   -0.1169540265   -1.3777251061
 H    0.7427471520   -1.5888907776   -1.2787172721
 H    0.1291145924   -0.1682195725   -2.1497945654
 H    2.6501185655    0.4062126398    0.8951481774
 H    3.2930644594   -0.8458019905    3.2090634749
 H    1.0444486881   -2.1680143103    3.9882145623
 H   -1.9624195972   -0.9922050103    2.1580522169
 H   -1.4434575525   -2.4136157938    1.2461358293
 H   -1.4045301817   -2.4324733799    3.0090697521