14

 C    0.1170586840    1.6135040055    0.0982644999
 O    1.5430729665    1.4154730568    0.1471333174
 C    1.3936249375   -0.0087287849    0.2572786884
 C   -0.1393844498    0.0901071551    0.0014844752
 C   -1.0555824556   -0.5441958642    0.9785371112
 N   -1.3723881501   -0.0725810370    2.1518538346
 O   -2.2041472576   -0.9955068235    2.6842438951
 N   -2.3663509409   -2.0347639395    1.7711293945
 N   -1.6812430994   -1.7633354026    0.7547340455
 H   -0.2685239283    2.0759787678    1.0138054157
 H   -0.1895700591    2.2048208639   -0.7705731770
 H    1.9703998765   -0.5504261597   -0.4993794240
 H    1.6572734811   -0.3792254397    1.2559520034
 H   -0.4137033147   -0.2444001980   -0.9993524497