16

 C   -0.0177013404    1.5123775195    0.0377401524
 C    0.0015908852    0.0059564303    0.0023467695
 C   -0.0205580568   -0.6711240983   -1.1882442562
 C   -0.0025138807   -2.1094096255   -1.2559803994
 O   -0.0199191367   -2.8248634063   -2.2438577961
 N    0.0388320267   -2.7226792790    0.0302737973
 C    0.0609411285   -2.0591312388    1.2169784008
 O    0.1002757261   -2.7743183165    2.3609030745
 C    0.0434749976   -0.6954910795    1.2414765926
 H    0.8717183610    1.8996563719    0.5475967991
 H   -0.0509075342    1.9375366906   -0.9673244678
 H   -0.8879452194    1.8760162565    0.5957927849
 H   -0.0527244024   -0.1497315782   -2.1365513332
 H    0.0512731661   -3.7333436519   -0.0097243215
 H    0.1075372637   -3.7196928593    2.1774081839
 H    0.0614132357   -0.1830266155    2.1928859091