20

 C    0.0377972655    1.4513884920   -0.2463638752
 C    0.0630253049    0.0131588482    0.2885215141
 C   -1.3033829559   -0.6365074560    0.2333629842
 N   -1.9847308384   -1.0930169261   -0.9933564074
 C   -0.9479120124   -1.7443762115   -1.8725894753
 C   -0.5803708969   -2.7987745860   -0.8050120719
 C   -1.5804282263   -2.0946989300    0.1231328665
 C   -2.5128959420   -2.7763617173    0.9582142823
 C   -3.2704549943   -3.3778153988    1.6746808892
 H    1.0247591032    1.9168860193   -0.1684737855
 H   -0.2684895078    1.4777382368   -1.2968377355
 H   -0.6700362704    2.0683325581    0.3171052239
 H    0.8080366575   -0.5737236057   -0.2560782449
 H    0.3875353904    0.0143202576    1.3365667913
 H   -2.0318244772   -0.1258187929    0.8622693589
 H   -1.4417493940   -2.1666004392   -2.7490241734
 H   -0.1568988531   -1.0678884889   -2.2091334646
 H   -0.9105566862   -3.8027041580   -1.0733603037
 H    0.4536049183   -2.8502252284   -0.4523594767
 H   -3.9470940547   -3.9008143530    2.3039730237