19

 C    0.0570699062    1.4731974934    0.0245891039
 C    0.0047459788   -0.0176742502   -0.0343808789
 C   -0.0246662707   -0.8146216046   -1.1092547262
 C    0.0118122163   -2.2656795417   -0.7433533399
 C    1.2608286082   -2.7069994481   -0.0078951046
 O    2.4337334201   -1.9299918638    0.0124743103
 C    0.0445562774   -2.2947330394    0.7810708251
 C    0.0172757909   -0.8387379547    1.2611155504
 O    1.0875829558   -0.4931403459    2.1301447229
 H    0.9063376052    1.7974274636    0.6360442856
 H    0.1397994130    1.9233013705   -0.9681062837
 H   -0.8417974569    1.8748781845    0.5104129779
 H   -0.0355688485   -0.4737938017   -2.1397301070
 H   -0.5350907610   -2.9916757035   -1.3344248782
 H    1.4976759675   -3.7663616455   -0.0293726797
 H    2.2955943055   -1.1858954683   -0.5883630457
 H   -0.4832718544   -3.0463055528    1.3554393231
 H   -0.8948464425   -0.6354582566    1.8374772820
 H    1.8855373892   -0.8529249753    1.7168223528