16

 N    0.0422656983   -1.0463294328    0.0006828303
 C    0.0123006060    0.1094878545   -0.0063360712
 C    0.0016041930    1.5457852108   -0.0163239811
 O   -1.0717713313    2.1325583921    0.6849179519
 C   -1.4075312942    3.3415670222   -0.0187517732
 C   -0.1287244204    3.6965220195   -0.7697046132
 C    1.0771584633    3.7600623699    0.2290612233
 C    1.3437849412    2.2831165676   -0.0604962973
 C    0.3904553174    2.3110032442   -1.2487884269
 H   -2.2506055549    3.1631124497   -0.7017383861
 H   -1.6993750458    4.0879211451    0.7257398596
 H   -0.2228903352    4.5006484244   -1.4972375184
 H    1.8850078113    4.3859542668   -0.1556404998
 H    0.8527958542    4.0427827995    1.2618548676
 H    2.2772781620    1.7454267708    0.0536011922
 H    0.4586424450    1.9050316757   -2.2484641476