17

 O    0.0072357281   -0.1271402138   -0.0398560026
 C    0.0590785977    1.0552570732    0.1946845748
 C    1.3014481102    1.8711377583    0.0748510228
 C    2.6890255374    1.2856897096   -0.3338090067
 C    3.0111696116    2.7698338570   -0.6715406773
 C    1.5225375672    2.9013933585   -1.1051204225
 C    2.9984298106    3.4293212607    0.7199846529
 C    1.7021951917    2.7777851790    1.2469466084
 O    1.1399356761    2.9412673003    2.2941179417
 H   -0.8432200439    1.6220530426    0.5116728385
 H    3.2795652952    0.7867715937    0.4385864210
 H    2.6000202439    0.6474039421   -1.2140134196
 H    3.8198607988    3.0393016023   -1.3487566851
 H    1.3145529150    2.4393028499   -2.0720488557
 H    1.0376300897    3.8786542335   -1.0325117519
 H    3.8544278238    3.1625891833    1.3474110307
 H    2.9115259871    4.5199794996    0.7030332205