22

 C    0.0821778253    1.6275626163   -0.1414200680
 C    0.0581237141    0.1027617113   -0.0660678252
 C    1.1794018856   -0.6671915245   -0.8379449073
 N    1.6243587775   -1.4064021729    0.3979663995
 C    2.1147361792   -0.3642978420    1.3162076451
 C    0.6561211498   -0.5452408981    1.1971069387
 C   -1.2999225603   -0.5196465012   -0.3578738728
 C   -2.6102179039    0.0675709426    0.1060287341
 C   -2.2779151211    0.0274786758   -1.3670415968
 H    1.0713321373    2.0154345447    0.1150170489
 H   -0.1516926016    1.9809588999   -1.1510341000
 H   -0.6346721183    2.0808663081    0.5509646310
 H    0.7994755369   -1.3646051262   -1.5873217262
 H    1.9718791630   -0.0574795984   -1.2867559104
 H    2.5943251245   -0.7717321847    2.2015819795
 H    2.6064187316    0.5147860071    0.9046565694
 H    0.0598735656   -0.9654253488    2.0026056558
 H   -1.2587453779   -1.6057106452   -0.3131665978
 H   -3.3660664531   -0.6109475663    0.4860299553
 H   -2.6065090854    1.0363874450    0.5926928356
 H   -2.0540193969    0.9703541005   -1.8530647376
 H   -2.8062482519   -0.6776880429   -1.9992063908