19

 C    0.0334758572    1.5500002969   -0.2266538925
 C    0.0336628314    0.0513167064   -0.0142352411
 C    1.3179637025   -0.7423569347   -0.0277541135
 C    0.5267868034   -0.6068524684    1.2557009022
 C    1.0762828545    0.1729587739    2.4305086795
 C    2.0472636785   -0.6882670507    3.2685958771
 C    2.5972237217    0.0335662296    4.4134742101
 N    3.0219040444    0.6225015194    5.3126444762
 H    0.9299113948    2.0256835470    0.1810218643
 H    0.0011356761    1.7847524924   -1.2960579200
 H   -0.8367307191    2.0219447615    0.2429463289
 H   -0.8197282740   -0.4473936786   -0.4670439554
 H    1.3451049758   -1.7017764744   -0.5325344703
 H    2.2437659926   -0.1781129917   -0.1016190962
 H   -0.0299048292   -1.4932326274    1.5538486334
 H    1.6063616206    1.0678778197    2.0921481849
 H    0.2612008269    0.5189483356    3.0765857909
 H    1.5363303557   -1.5858176828    3.6364198627
 H    2.8751774263   -1.0350076136    2.6401476788