25

 C    0.0130535196    1.5610377317    0.0266905092
 C    0.0606589956    0.0263257192    0.0650941588
 C    0.8284134224   -0.4440946494    1.3088305243
 C   -1.3593546786   -0.5782644739   -0.0030299658
 C   -2.1682699052   -0.1707543066   -1.2658539734
 C   -3.0517105826   -1.3898340608   -1.6381731243
 C   -3.2496003408   -1.5823476695   -3.1456917520
 C   -2.3291587943   -2.5243210687   -0.9458958557
 C   -1.4245733515   -2.0921250795   -0.0702007868
 H    1.0219437657    1.9853791587    0.0615670241
 H   -0.4735935488    1.9335879068   -0.8792966580
 H   -0.5408744190    1.9541432673    0.8882472799
 H    0.6062420748   -0.3212167539   -0.8245285288
 H    0.3030621558   -0.1515581619    2.2262461742
 H    0.9575431401   -1.5298455437    1.3299824803
 H    1.8260601246    0.0063106519    1.3433829060
 H   -1.8922773605   -0.2420880659    0.9030505630
 H   -2.7501062193    0.7439706753   -1.1256719728
 H   -1.4658969666    0.0153127497   -2.0890314031
 H   -4.0482724302   -1.2771612890   -1.1821831132
 H   -2.2867081865   -1.7180105971   -3.6506656524
 H   -3.8666274156   -2.4623674792   -3.3575096457
 H   -3.7450568412   -0.7137316166   -3.5927303172
 H   -2.5716715407   -3.5658073555   -1.1337779107
 H   -0.8256265671   -2.7335802293    0.5665984801