16

 O   -0.0088123396   -0.0690209328   -0.2444319633
 C    0.0199876686    1.1261010695   -0.0883153563
 C   -1.2622803535    1.9343149768    0.2870711612
 C   -1.2350011996    3.3656456772   -0.2421962176
 C   -0.4671853490    4.6195696457    0.1448509578
 C    0.9592691266    4.4977719705    0.7532222273
 C    1.0192381386    3.2969118901   -0.1557839314
 C    1.2174607268    1.9942726423    0.0807265525
 N   -0.0423930898    3.7647696713   -1.0279588606
 H   -2.1358145215    1.4129929642   -0.1130003382
 H   -1.3360929633    1.8880993760    1.3794631038
 H   -2.1468032667    3.6391228679   -0.7714354885
 H   -0.9393284912    5.5838832614   -0.0312654758
 H    1.5354510638    5.3704521570    0.4304639907
 H    1.1036904139    4.3251523305    1.8213810577
 H    1.9915163258    1.6385937624    0.7538366607