20

 C    0.4900701360    1.5152337779    0.0548649109
 C   -0.0488569226    0.1089379063   -0.1127567713
 C    0.4674099018   -0.7392037708   -1.2952188736
 C    1.0023127809   -1.6850259108   -0.2100510420
 C    0.5972015424   -3.1913132318   -0.0548842243
 C    2.0869181468   -3.5408691398    0.0167322918
 N    2.6795789243   -3.0416867404   -1.2485171158
 C    2.4707984490   -2.1097486369   -0.1075903906
 O    0.5325763247   -0.8221695788    0.8412132251
 H    1.5782571901    1.5309606783   -0.0628000055
 H    0.0491821460    2.1849563913   -0.6919911081
 H    0.2462735581    1.9036921535    1.0487956260
 H   -1.1428099398    0.1094645724   -0.0158667597
 H   -0.2952322544   -1.1592727164   -1.9523020140
 H    1.2418615013   -0.2650314154   -1.9020661502
 H    0.0792602890   -3.3247867043    0.8975830902
 H    0.0312241686   -3.6520088127   -0.8687952014
 H    2.5593387513   -4.3406931873    0.5730337375
 H    3.6676135582   -3.2956900007   -1.2415825540
 H    3.2885660283   -1.5483642937    0.3281196489