17

 N    0.2697528790    1.0127238460    0.5330781307
 C    0.1033093819   -0.1409170403    0.0718288032
 O    0.9782761362   -0.9792669978   -0.5918261618
 C   -0.0451161785   -2.0376783790   -0.6846026942
 C    0.1491595275   -3.2158711978    0.2463466860
 C    0.6845474776   -2.9264444918    1.6031556377
 N   -0.7556110703   -3.1004866672    1.4185893093
 C   -1.5217270691   -1.8398522036    1.2936056268
 C   -1.0655988203   -1.1060065366    0.0141385157
 H    1.2223019882    1.3458702178    0.3737333109
 H   -0.1967277545   -2.3161144176   -1.7273730006
 H    0.2524537918   -4.2041488438   -0.1902528710
 H    1.1702342196   -3.7185258080    2.1659394714
 H    1.0792711323   -1.9318517497    1.7922301386
 H   -2.5793098923   -2.1064654577    1.2117053998
 H   -1.4002026084   -1.2256740551    2.1903876028
 H   -1.8975260607   -0.7368996379   -0.5864828054