17

 C    0.0198777553    1.4444268684   -0.1173662038
 C    1.4850783013    1.8850362711    0.1153571676
 C    2.2331054126    0.5739532988    0.0028608309
 N    3.5374664885    0.4187416663   -0.1222438292
 C    3.9842169650   -0.8503150119   -0.1709680687
 C    3.1479611963   -1.9580984047   -0.0924325146
 C    1.7675646052   -1.7858908942    0.0455205470
 C    1.3038745872   -0.4788753862    0.0951309406
 N    0.0148289880    0.0173362078    0.2698972838
 H   -0.6975521033    2.0088448588    0.4834945617
 H   -0.2497658225    1.5686149814   -1.1768641474
 H    1.8226786361    2.6366156495   -0.6010682839
 H    1.6137749136    2.3066252426    1.1202257163
 H    5.0572479168   -0.9765979857   -0.2818659123
 H    3.5705376798   -2.9558435844   -0.1423361058
 H    1.0963091859   -2.6364233368    0.1067475421
 H   -0.7453761160   -0.5389206210   -0.0944194042