12

 C   -0.3909738779   -0.8097373230   -0.9654227334
 C   -0.0818608363    0.0594554911   -0.1964240251
 C    0.3040788182    1.1180865534    0.7295453425
 C    1.5263882857    1.8650241511    0.2842464372
 C    2.3233846930    1.7333967665   -0.8067706906
 O    3.2925062013    2.6438780873   -0.7477967576
 N    3.0753099600    3.3801614184    0.4558547331
 N    2.0563080116    2.9050383672    1.0182513728
 H   -0.6765091712   -1.5821564140   -1.6362241610
 H   -0.5259238163    1.8257460229    0.8542133105
 H    0.4829342569    0.6948382388    1.7265966219
 H    2.3089217451    1.0671386804   -1.6524359503