22

 O   -0.0487016845    1.4625534789    0.0101697220
 C    0.0376059262    0.0447981377    0.0017935711
 C   -1.3783988709   -0.5146655452    0.0123317168
 C   -1.4180336014   -2.0453565158    0.0046062428
 C   -2.8424668749   -2.6111884431    0.0151335335
 C   -2.8821019451   -4.1418794445    0.0073987217
 C   -4.2981066439   -4.7013430045    0.0179425317
 O   -4.2117989283   -6.1190984058    0.0095884545
 H    0.8446917933    1.8178879989    0.0032806355
 H    0.5732575203   -0.3162272874   -0.8919816155
 H    0.5901718412   -0.3256677392    0.8812975203
 H   -1.8973245986   -0.1276150545    0.8981080504
 H   -1.9140911237   -0.1183073060   -0.8592319796
 H   -0.8864130479   -2.4230950498   -0.8798060373
 H   -0.8697625403   -2.4323831233    0.8747206934
 H   -3.3740837017   -2.2334568585    0.8995508653
 H   -3.3907416406   -2.2241550519   -0.8549757211
 H   -2.3631792094   -4.5289240828   -0.8783817460
 H   -2.3464067000   -4.5382434064    0.8789581161
 H   -4.8337592900   -4.3403039751    0.9117119174
 H   -4.8506716125   -4.3308904774   -0.8615673680
 H   -5.1051929573   -6.4744326343    0.0164200948