16

 O   -0.0967803054    1.3434564604    0.0266661698
 C    0.0103133731   -0.0278451317    0.0129773441
 C    0.5769106579   -0.9752408859   -1.1045419856
 C    0.0263570429   -1.9225059860    0.0102029235
 C    0.6888076705   -0.9787698479    1.0587842762
 C   -1.1851080466   -0.9812331296    0.0761927676
 C   -2.4946576641   -0.9737045813    0.7036152053
 O   -2.3224718317   -0.9839882759   -0.7408275166
 H    0.7807645730    1.7261557475   -0.0775566302
 H    0.0476165641   -0.9778635290   -2.0586699396
 H    1.6632292406   -0.9741598584   -1.2315396600
 H    0.0320921972   -3.0084950452    0.0088496942
 H    1.7816247543   -0.9780560833    1.0629334455
 H    0.2733160084   -0.9831285203    2.0691858322
 H   -2.9123418773   -1.8888364305    1.1204885277
 H   -2.9015481469   -0.0478760130    1.1062502061