17

 C   -0.3049660642    1.5271578354    0.3045084770
 C   -0.0243920721    0.0844716101    0.0544014969
 C    0.1538816628   -0.6174466035   -1.1020350367
 C    0.1508222060   -0.2481689334   -2.5434082153
 C    1.5031894583   -0.4898174175   -3.2235003869
 O    1.3586563448   -0.0816249250   -4.5712875041
 O    0.3803358791   -1.8985256627   -0.7831917323
 N    0.3361711669   -1.9808179819    0.6424728551
 N    0.1017304756   -0.8283386586    1.0830405425
 H    0.4904217945    1.9862355150    0.9002407971
 H   -0.3858450491    2.0782007018   -0.6354228713
 H   -1.2419239736    1.6554360943    0.8555211068
 H   -0.6111076977   -0.8278994680   -3.0767061614
 H   -0.1150135271    0.8073654620   -2.6474440602
 H    2.2843656753    0.0870153829   -2.7042322080
 H    1.7670607857   -1.5540008786   -3.1429402226
 H    2.1848163049   -0.2563612422   -5.0312731565