21

 C   -0.2077675520    1.5867383697    0.1496138627
 C   -0.0161660212    0.0794060925    0.0154625492
 C   -1.3460256929   -0.6862775589   -0.0776528534
 C   -2.1888766540   -0.3227809716   -1.2768327621
 C   -3.6544695576   -0.4002971953   -1.2559377754
 O   -2.9893103833    0.8615357322   -1.1800671926
 C    1.0356801451   -0.3928609769   -1.0263409252
 O    1.7666341072   -1.1288097341   -0.0269858305
 C    0.9604704628   -0.5722531707    1.0299879233
 H    0.7583789361    2.0947884280    0.2337375048
 H   -0.7419465245    2.0040557782   -0.7082037452
 H   -0.7944416953    1.8275700442    1.0431211552
 H   -1.1316107673   -1.7627408175   -0.1181342566
 H   -1.9357086035   -0.5089202773    0.8304010205
 H   -1.6996135138   -0.4363063383   -2.2465436162
 H   -4.2032186838   -0.5867435419   -2.1779702142
 H   -4.1599671904   -0.7167954440   -0.3441387902
 H    0.6803788715   -1.0441072087   -1.8350219648
 H    1.6372433793    0.4163454215   -1.4625547128
 H    1.5242246281    0.1458412949    1.6413016416
 H    0.5445680395   -1.3488003960    1.6843289420