16

 C    0.0283432008    1.5793556970   -0.0120630734
 C    0.0273094707    0.0386385598    0.0004958583
 C    0.6264799929   -0.4810700457   -1.2318205507
 N    1.1050526623   -0.8593288499   -2.2130377012
 C    0.7712942169   -0.5417954136    1.2502345641
 C    0.0387447929   -0.0931715141    2.5253915499
 O    0.4830935537    0.6932830067    3.3138851545
 C    0.8138206313   -1.9974432320    1.2419590475
 C    0.7980444156   -3.1983305085    1.2780478760
 H    1.0507531547    1.9644848109   -0.0504337803
 H   -0.5116985995    1.9513849487   -0.8852551838
 H   -0.4517953143    1.9714997645    0.8875758281
 H   -1.0074555955   -0.3253330440    0.0329036856
 H    1.7809958294   -0.1195347756    1.2879104676
 H   -0.9569397755   -0.5707537679    2.6584718935
 H    0.8113897636   -4.2607628362    1.2887287641