14

 O    0.1102399810   -0.1449432625    0.2537984832
 C    0.0610493093    0.9701044170   -0.1882127801
 C    1.2007776744    1.9766645510   -0.0609292644
 N    1.2602457873    2.8979565572   -1.1696367957
 C    1.6571109470    2.6379046235   -2.4853924429
 C    1.5737777861    3.7979729348   -3.1449780417
 O    1.1361459630    4.7903106817   -2.2944379051
 C    0.9389820991    4.2382817323   -1.0471343217
 O    0.5650079834    4.8377855094   -0.0750009525
 H   -0.8356521474    1.3636582688   -0.7177902111
 H    1.0151797528    2.5850799005    0.8333396060
 H    2.1445788375    1.4398626928    0.0751902433
 H    1.9616384884    1.6591322506   -2.8145191755
 H    1.7728815780    4.0820824129   -4.1626702318