20

 C   -0.1965083460    1.6296061876    0.2666228865
 C    0.0062186761    0.1221153974    0.0601918960
 C    0.7866983049   -0.4945983932    1.2285558280
 C   -1.3276486757   -0.6262433832   -0.1299112739
 C   -2.1175989274   -0.2253658902   -1.3626606533
 C   -3.5939867191   -0.2946576947   -1.3918202882
 O   -2.9245692981    0.9563805899   -1.2727870492
 C   -1.4208130762   -0.3717451777   -2.6333479521
 N   -0.8475177698   -0.5105179865   -3.6273460472
 H    0.7684076179    2.1327216788    0.3842894101
 H   -0.7185536930    2.0932772704   -0.5738483865
 H   -0.7866563542    1.8236230334    1.1701000181
 H    0.5985255382   -0.0222523104   -0.8536571292
 H    0.2335735642   -0.3896974567    2.1697527996
 H    0.9757883389   -1.5614317302    1.0687129923
 H    1.7534832429    0.0018356660    1.3565746115
 H   -1.1350406609   -1.7047676674   -0.1911822649
 H   -1.9765170862   -0.4624053015    0.7387145616
 H   -4.1072033858   -0.4656459467   -2.3355697922
 H   -4.1092461407   -0.6419012548   -0.4977911470