18

 N   -0.0555713967   -1.1635127373   -0.0650015227
 C   -0.0500283513   -0.0078367594   -0.0109306612
 C   -0.0365285902    1.4469566186    0.0390483331
 C   -0.3554617950    2.1806242330   -1.3085536818
 C    0.8601290396    3.1139176099   -1.0641171731
 C    1.3541059375    2.1957984710    0.0917543260
 C    1.4685944986    2.8337089615    1.4865419043
 C    0.0559003436    2.7454109522    2.0173932907
 C   -0.7455099816    2.0005397365    1.2577119338
 H   -0.2229917391    1.5218690121   -2.1691720598
 H   -1.3420126312    2.6450996876   -1.3662033029
 H    1.5451727728    3.2311589107   -1.9055178225
 H    0.5733853811    4.1075761247   -0.7109637883
 H    2.2088056869    1.5783444949   -0.1839143814
 H    2.1687539847    2.2981890808    2.1412159249
 H    1.8297931330    3.8681222972    1.4269004472
 H   -0.2520686485    3.2359115575    2.9345335552
 H   -1.7884576543    1.7807635583    1.4541533983