16

 N    0.0752093400    1.3868887577   -0.0863974901
 C   -0.0270382630   -0.0065776808   -0.0473122267
 C   -1.1356789104   -0.7938253719    0.1359238574
 C   -2.5717718028   -0.5113608081    0.3345090423
 O   -3.3348061666   -1.2372659712   -0.6388003456
 N   -0.6242314702   -2.1058095403    0.1955761185
 C    0.7056912840   -2.0057724544    0.0139676592
 O    1.4702560882   -3.1093542656   -0.0274646896
 N    1.1241803529   -0.7710594657   -0.1156277630
 H    0.9521001758    1.6629784058   -0.5096711433
 H   -0.6960962709    1.8318878070   -0.5665298645
 H   -2.9013377652   -0.8023138305    1.3471103774
 H   -2.7323079367    0.5742540344    0.2493360655
 H   -4.2634569560   -1.1687465115   -0.3926763982
 H   -1.1699395896   -2.9489113909    0.1424326551
 H    2.3733879205   -2.8038581141   -0.1789104943