16

 O    0.0284830916    1.4557382043   -0.1009771225
 C    0.0058009323    0.0603251458    0.0155353443
 C    0.6273043894   -0.6158125599   -1.2226835555
 C   -0.1029585250   -0.2067259909   -2.5115290198
 C    0.6172904613   -0.6982626062   -3.7452615634
 O    0.1267706581   -1.3810825218   -4.6064387955
 C    0.7357106044   -0.3751351231    1.2706794622
 O    1.2635617321    0.4237442873    2.0055826000
 H    0.5370777854    1.7747183114    0.6617897718
 H   -1.0358071892   -0.2973633960    0.1145263355
 H    1.6827465893   -0.3217718859   -1.2843543051
 H    0.5961879758   -1.7054384043   -1.0994512441
 H   -1.1305868760   -0.5814915601   -2.5296833444
 H   -0.1310573691    0.8902313486   -2.5485722063
 H    1.6834550687   -0.3741037147   -3.8096554740
 H    0.7647144809   -1.4650082846    1.4734509269