20

 C   -0.2872657194    1.5021115636   -0.1092521835
 C    0.1179660998    0.0327754491    0.0801745543
 C    0.8529325784   -0.5226216198   -1.1037230790
 N    0.1615225914   -0.8675977995   -2.3684171709
 C    0.9660109180   -1.9022400750   -1.6780968110
 C    2.4422971531   -1.6741692288   -2.0751773869
 C    2.7250851922   -0.9260932773   -3.4007504058
 O    2.6175548685    0.3656536482   -2.7434603222
 C    2.3455012014   -0.2552010544   -1.4792479001
 H    0.5908781012    2.1311002377   -0.2866199988
 H   -0.9530165844    1.6184945799   -0.9697742544
 H   -0.8028111465    1.8840762237    0.7769081933
 H    0.7499192776   -0.0627295228    0.9727805606
 H   -0.7730359251   -0.5808827868    0.2707001498
 H   -0.8148982911   -1.0402372529   -2.1281069195
 H    0.5113084184   -2.8323941875   -1.3573044690
 H    3.1610637815   -2.4112029435   -1.7224894825
 H    3.7355524290   -1.0783175710   -3.7979678602
 H    1.9801434534   -1.0451019686   -4.1914994217
 H    2.9707179028    0.1167073257   -0.6616402925