20

 C   -0.1057097576    1.3788640155   -0.3794275175
 C    1.1980688339    1.6954265634    0.4000548594
 C    1.3785207871    0.1831052347    0.7309697699
 C    1.3674685265   -0.1755093970    2.2241684661
 C    0.0088484735    0.0163151072    2.8514215993
 C   -1.1110808648   -0.2560764943    2.1811364981
 C   -1.0739645557   -0.7692121488    0.7628927642
 C    0.0594112196   -0.1373241637   -0.0583629768
 H   -1.0062681052    1.8255532062    0.0514410953
 H   -0.0796041023    1.6226761828   -1.4444851842
 H    2.0029495274    2.1277462082   -0.1997326380
 H    1.0525322904    2.3258657416    1.2818488948
 H    2.2679166001   -0.2476819363    0.2627272685
 H    1.6761983273   -1.2246907985    2.3490567590
 H    2.1239398391    0.4205069337    2.7490255400
 H   -0.0371549260    0.3600304775    3.8813622903
 H   -2.0799518108   -0.1368069632    2.6587300796
 H   -0.9461314116   -1.8624106848    0.7792783198
 H   -2.0327551104   -0.5904074416    0.2611851095
 H    0.2368955394   -0.7406610427   -0.9529802274