19

 C   -0.0386692859    1.6332855006   -0.0152041091
 C    0.1560054589    0.1148450545    0.0052273874
 C    0.6237530304   -0.4194334330   -1.3670934984
 C    0.3141223820   -1.8684828184   -1.6115520321
 C    0.5732273824   -2.8747741436   -0.7626203258
 C    1.2563380402   -2.7804815118    0.5168853226
 C    1.5221170574   -1.7077339107    1.2906955907
 C    1.1078059028   -0.2970802080    1.1343388853
 O    1.5024083816    0.5221542602    1.9453981125
 H    0.8932066144    2.1415836447   -0.2823750311
 H   -0.8033671082    1.9087588332   -0.7480361810
 H   -0.3393167140    2.0032871238    0.9660956107
 H   -0.8080389414   -0.3655807745    0.2327988068
 H    0.1529936384    0.1820624025   -2.1506459489
 H    1.7078123022   -0.2510335159   -1.4718096972
 H   -0.1430195021   -2.1151226296   -2.5665313149
 H    0.3158600855   -3.8838944190   -1.0735597861
 H    1.6242347184   -3.7343383343    0.8917535598
 H    2.0988941771   -1.8568268907    2.1992530887