17

 O   -0.1964388852   -0.1051985862    0.3124105325
 C   -0.0798784071    1.0876037480    0.1133677931
 C   -1.2390085857    1.9372996487   -0.4214218162
 N   -1.6957848317    3.1065153973    0.3244057934
 C   -1.3256752972    3.2842194639    1.7171500471
 C   -0.7461907271    4.1730620849    0.6488777614
 C    0.6883849348    4.1209209976    0.2792900341
 C    1.4863391970    3.0544301340    0.1551390238
 N    1.1403494674    1.7070545320    0.2922123460
 H   -0.9752402191    2.2734132845   -1.4324483932
 H   -2.0763116163    1.2408131852   -0.5064007980
 H   -2.1102149546    3.6552729269    2.3715577488
 H   -0.6500860489    2.5688554709    2.1811031838
 H   -1.1799705747    5.1648105836    0.5422644413
 H    1.1526990347    5.0838161023    0.0948558471
 H    2.5382620317    3.1982312703   -0.0695272910
 H    1.8764557720    1.0572754961    0.5330063759