17

 O   -0.1328351778    1.4515163130   -0.0656180768
 C   -0.0028390970    0.0497245329    0.0169891791
 C    0.2996646755   -0.5748949927    1.4260891175
 C   -1.0527166362   -1.2641085161    1.3918401632
 O   -1.1733288512   -2.5393190891    1.8890013452
 C   -2.1571942625   -0.2875460674    1.2115653009
 C   -1.3490444580   -0.6735836764   -0.0328931383
 C   -1.9410518830   -1.2594633118   -1.1804567554
 C   -2.4256084060   -1.7861962691   -2.1498186903
 H    0.7456393185    1.8402904563   -0.0041499668
 H    0.6809438141   -0.3347743070   -0.7487897016
 H    1.1245958525   -1.2896514748    1.3917846113
 H    0.4583615740    0.1348272916    2.2442927037
 H   -2.1015426453   -2.7951524894    1.8854440162
 H   -3.1571229252   -0.7130563136    1.2127243148
 H   -2.0992710385    0.7288265974    1.5927149051
 H   -2.8554475740   -2.2373970036   -3.0089806777