16

 O    0.1516418096    0.7383629579   -1.4423772412
 C    0.0236702636    1.3619771436   -0.4208169902
 C   -1.2562583374    2.1158230532   -0.0784578463
 N   -1.2354083252    2.6191944579    1.2834510520
 C   -0.5633579092    3.8932413770    1.4604491801
 C    0.9305182692    3.8134448521    1.3620855400
 C    1.6731207959    2.7493075407    1.0395551346
 C    1.2036973169    1.4153400205    0.5886606970
 O    1.8111718183    0.3995392682    0.8397005321
 H   -1.4154036301    2.8953240584   -0.8463586012
 H   -2.0728025646    1.3957329468   -0.1901945336
 H   -2.1724845498    2.6656702049    1.6596485549
 H   -0.9156892798    4.6693727508    0.7492270686
 H   -0.8099474017    4.2756293650    2.4593844342
 H    1.4433904687    4.7323347829    1.6401507645
 H    2.7557450357    2.8133629299    1.1134435545