17

 C    0.0077480354    1.5002397057    0.0262309976
 C    0.0536395310   -0.0041583133   -0.0021848365
 C    0.8499824002   -0.8352085592   -1.0448319027
 C    0.7369747146   -1.9542113288   -0.0007167688
 C    0.6476695156   -0.9180922116    1.1590330364
 C   -0.7691774971   -1.4541479507    1.4777355681
 C   -1.2442599800   -0.8146454632    0.2287961429
 N   -0.7506486469   -2.2324009011    0.1997518997
 H    1.0144651015    1.9309911720    0.0094705144
 H   -0.5370417563    1.8935826228   -0.8406658782
 H   -0.4992166923    1.8631663640    0.9275422256
 H    0.4159240371   -0.9976714721   -2.0359654715
 H    1.8820886690   -0.4797285196   -1.1363751357
 H    1.3425505118   -2.8590188504   -0.0077344700
 H    1.4469465697   -0.6113331113    1.8291754305
 H   -1.2796665721   -1.7906250714    2.3720710990
 H   -2.2467867711   -0.6195636620   -0.1338472705