15

 N   -0.3082006450    1.2593770017    0.0259863295
 C   -0.1092550139   -0.0664681691    0.2389411982
 O    0.7846459988   -0.5604061805    0.8806915524
 O   -1.1185280560   -0.7780422657   -0.3639411822
 C   -1.0321409611   -2.2071547990   -0.2296459427
 C   -2.1285933565   -2.6726373942    0.7384681697
 O   -3.4153739680   -2.3094137604    0.3063563738
 C   -1.1831289810   -2.7875583756   -1.5696187913
 N   -1.2851118539   -3.2735351868   -2.6119198738
 H    0.4428738129    1.8761874514    0.2834049659
 H   -0.9505037275    1.5551490022   -0.6891902371
 H   -0.0464905575   -2.4606911694    0.1734219695
 H   -2.1068566148   -3.7640328871    0.8093856523
 H   -1.8831669243   -2.2585576362    1.7280231174
 H   -3.4238724822   -1.3515107413    0.2001660684