23

 C   -0.2157929017    1.5688779792   -0.0481093914
 C   -0.0653571408    0.0457542130    0.0029995318
 C    0.7744694846   -0.4633689323    1.1861551391
 C    0.8046543574   -2.0119513394    1.2957660634
 C    2.2152665190   -2.3712495196    1.8196156633
 C    3.0288624389   -1.1436044067    1.4660562949
 C    4.5194032356   -1.1511447621    1.5570453419
 O    5.0338032581    0.1275116238    1.2300407682
 C    2.2474064673   -0.1163298655    1.1325073868
 H    0.7526125933    2.0670911632   -0.1597049946
 H   -0.8429821304    1.8760318577   -0.8910665062
 H   -0.6804001967    1.9511474261    0.8679437445
 H   -1.0615824171   -0.4127457921    0.0607162126
 H    0.3850605210   -0.3146668923   -0.9312942799
 H    0.3393584328   -0.0337789212    2.1040807437
 H    0.0013839467   -2.4085183258    1.9228222411
 H    0.6723021098   -2.4365138653    0.2938903910
 H    2.2182812707   -2.5336395517    2.9077095960
 H    2.6098414746   -3.2929981676    1.3739732897
 H    4.8179439762   -1.4556811956    2.5770201677
 H    4.9183529775   -1.9289347071    0.8805684399
 H    5.9927351902    0.0842488896    1.2778644601
 H    2.6202728632    0.8701548216    0.8874795162