13

 O   -0.1667973838    1.3861900398    0.0553974395
 C    0.0061153079    0.0315852093    0.0822495187
 C   -0.1405406186   -0.8443620859   -1.2207125602
 N    0.7267579810   -2.0048702621   -1.3984319145
 C    0.6552706282   -2.6254701150   -0.2917976860
 N   -0.1889615861   -2.0143923273    0.7246322192
 C   -1.0453905111   -1.0732825356   -0.0766970794
 C    0.6068974394   -0.8003760975    1.1574695227
 O    1.3269066534   -0.6701027447    2.0918766344
 H    0.5591712503    1.7899972958   -0.4336609525
 H   -0.4319619203   -0.2813132391   -2.0988975760
 H    1.2142936104   -3.5196740889   -0.0445127250
 H   -2.1197779506   -1.0334810888    0.0405289891