20

 C   -0.4678536596    1.3241333930   -0.1502110868
 C    0.1981778680   -0.0428203586    0.0637091037
 C    0.8445908179   -0.6094716653   -1.1940979061
 C    2.0982057069    0.1188612480   -1.6419253686
 C    0.7634459811   -2.0318809837   -1.5856994037
 C   -0.5283249043   -2.7374864662   -1.1797064131
 C   -1.2319398233   -1.5685092365   -1.8874312071
 O   -2.3616979539   -1.2401504551   -2.0805369994
 N   -0.0117163698   -0.9692140646   -2.3911731815
 H    0.2502053959    2.0814913255   -0.4774556394
 H   -1.2571549934    1.2571926641   -0.9040006557
 H   -0.9176948915    1.6764181740    0.7824435904
 H    0.9796443662    0.0378198344    0.8295370084
 H   -0.5447170222   -0.7387778968    0.4634709342
 H    2.8690078249    0.0531258043   -0.8662900280
 H    2.4897829581   -0.3138313763   -2.5651347864
 H    1.8919392060    1.1755565558   -1.8304451090
 H    1.6016468304   -2.5373068562   -2.0528520416
 H   -0.6849731415   -3.6727821514   -1.7241786861
 H   -0.7397602062   -2.9017974584   -0.1209056141