17

 C   -0.1109509099   -1.2390166035    0.0350516610
 C   -0.0495203084   -0.0379856120    0.0398298233
 C   -0.0045222701    1.3907668989    0.0204180272
 C    0.5293813083    2.1710851449    1.2206188691
 O    0.9805385259    1.4354687481    2.3110517784
 C    2.3924923456    1.3657511266    2.4845361889
 C    3.1494835126    1.1127168274    1.2078656816
 C    2.6394783163    1.4551641103    0.0274268212
 C    1.3354550566    2.1550201654   -0.0387441606
 H   -0.1651363000   -2.2990258082    0.0424533718
 H   -0.8211171613    1.8691956184   -0.5138909561
 H   -0.0104674113    3.0749364614    1.4973058038
 H    2.7660200445    2.2841833944    2.9699502774
 H    2.5516733151    0.5454521791    3.1917509862
 H    4.1231619298    0.6400225676    1.2943230536
 H    3.1651814786    1.2524827921   -0.9004229681
 H    1.3094510277    3.0473984790   -0.6578399488