22

 C    0.0669694188    1.5321399164    0.1526269081
 C    0.0909394826    0.0051041217   -0.0037834121
 C    0.7086861237   -0.4145987156   -1.3472903052
 C   -0.1649343193   -0.0465413186   -2.5459468823
 N    0.5117026207    0.1187097884   -3.7216279376
 O   -1.3730892157    0.0778626212   -2.4737647473
 C    0.8144073629   -0.6591746935    1.1531255166
 C    0.0898143597   -0.9332806709    2.4452289243
 C    0.4895425626   -2.0785743412    1.5450546028
 H    1.0833739008    1.9453050554    0.1409350842
 H   -0.5026992196    1.9991550483   -0.6552227228
 H   -0.3947429322    1.8170381394    1.1027882625
 H   -0.9464933327   -0.3501774315   -0.0142521280
 H    1.7129183540    0.0135215851   -1.4631590559
 H    0.8333065285   -1.5055272103   -1.3656956682
 H    1.4965037643   -0.0628238066   -3.8017997208
 H   -0.0248158775    0.2560646371   -4.5626756618
 H    1.8591935120   -0.3689205118    1.2522988142
 H    0.6227707161   -0.8013103547    3.3804202706
 H   -0.9637316533   -0.6771615139    2.4950189338
 H   -0.2990450664   -2.5853623581    0.9975320893
 H    1.2954149000   -2.7297669059    1.8656786358