16

 O    1.9652778587    4.1373305515    0.1897490141
 C    1.0754072527    3.3327683896    0.0347904127
 N    1.2226898890    1.9791326088   -0.1275396852
 C    2.4095705503    1.2431679928   -0.1609661156
 C    2.4952586404   -0.0936697929   -0.2373305720
 C    3.9321974960   -0.5662096505   -0.2566628405
 C    4.7228899759    0.7373302845   -0.2650765886
 O    4.4833250518    1.5646376091   -1.4039623296
 C    3.7773306729    1.8623969038   -0.1800766238
 H    0.0046947252    3.6136940186    0.0091005286
 H    0.3669622100    1.4480050509   -0.2005603379
 H    1.6520090074   -0.7698893881   -0.3244730866
 H    4.1805792783   -1.1686227485    0.6271587385
 H    4.1614709230   -1.1803964296   -1.1362228727
 H    5.7295761331    0.7804903293    0.1412565559
 H    3.9746768352    2.8287275508    0.2608386628