20

 O   -0.1571460012   -0.0107959275   -0.1682715889
 C   -0.0401086592    1.1584901997    0.1345511902
 N    1.1436080660    1.8207233492    0.2207986293
 C    2.4170445601    1.1704830321    0.0258531519
 C    3.0350681603    0.3717034172    1.2035107978
 C    4.3949891273    1.0974151330    0.9687503084
 C    3.7447856361    1.9958630849   -0.1238333357
 C    3.9090569075    1.4750361605   -1.5719138618
 C    2.6667338578    0.5516811911   -1.3817313650
 H   -0.9035110338    1.8171358894    0.3615644605
 H    1.1354043624    2.7674751134    0.5679759761
 H    2.5764711188    0.6397576347    2.1588728307
 H    3.0200595247   -0.7161072533    1.1048010936
 H    4.7680693644    1.6413424293    1.8392469157
 H    5.2033604243    0.4628219530    0.5956851453
 H    3.7934994937    3.0748740666    0.0398052813
 H    3.7458107249    2.2494919840   -2.3258430077
 H    4.8605165337    0.9823939571   -1.7907038254
 H    2.8669919551   -0.5214140586   -1.3650418038
 H    1.8543224970    0.7354680642   -2.0846484924