21

 C   -0.1312212494    1.5558859347    0.1073345227
 C    0.0225200107    0.0219953137    0.0158025821
 C    0.7323526052   -0.4360108217   -1.2681239382
 C   -0.0373698251   -0.0920658870   -2.5599135872
 C    0.6054923090   -0.6326411828   -3.7517607809
 C    1.1536786732   -1.0895421343   -4.7189296254
 C    0.8026877623   -0.4442362499    1.2511732979
 C   -0.0187366454   -0.8203400309    2.4712085269
 O    2.0112075299   -0.4944193562    1.2538193564
 H    0.8479212422    2.0400760892    0.0373450171
 H   -0.7649116031    1.9397102492   -0.6964281858
 H   -0.5894083482    1.8577961728    1.0545853732
 H   -0.9809057556   -0.4234513236    0.0577080788
 H    1.7328030906    0.0039361965   -1.3020978643
 H    0.8798556073   -1.5205247208   -1.2296613379
 H   -1.0627394612   -0.4812890063   -2.4931964227
 H   -0.1323055913    0.9951275405   -2.6676216219
 H    1.6317146300   -1.4882682123   -5.5788873405
 H   -0.7786988984   -0.0622937088    2.6881083574
 H   -0.5553795597   -1.7557077994    2.2700380720
 H    0.6322499871   -0.9587978326    3.3352318904