17

 N    0.0330859632    1.1209239741    0.5182163110
 C    0.0385081882   -0.0516304302    0.0499422257
 N    0.9525436431   -0.8946751052   -0.5697440127
 C    0.0443222527   -2.0565375253   -0.6306697001
 C    0.3443816406   -3.2638158458    0.2011260189
 C   -0.5227859244   -3.6731496490    1.1235912091
 C   -1.7436410917   -2.8553033156    1.4545380175
 O   -1.5344804527   -1.4686843780    1.2466249673
 C   -1.0620167753   -1.1218861126   -0.0303618411
 H    0.9559698231    1.5557694506    0.4585267330
 H    1.9600593687   -0.8878133134   -0.5046088149
 H   -0.1496064044   -2.3590802438   -1.6681969763
 H    1.2485400531   -3.8257390365   -0.0197929682
 H   -0.3687543849   -4.5943372078    1.6783605511
 H   -2.6188720400   -3.2144281930    0.8838470647
 H   -1.9940309775   -2.9546261343    2.5152984552
 H   -1.8894619320   -0.8979715542   -0.7158608802