15

 C    0.0279857960    1.5196945281   -0.1950291461
 N    0.0236505230    0.0694610525   -0.0349421436
 C   -1.0968835702   -0.5008251612    0.7672579674
 C   -0.2357746509   -1.7484859317    1.1762567480
 C    0.6572010799   -0.4573511352    1.2082063052
 C   -0.5322831745   -0.0737479712    2.1906710509
 C   -0.6076138328   -1.5271827042    2.6336037622
 O   -0.8389269114   -2.1641686725    3.6165718328
 H    1.0180564954    1.8368735983   -0.5378070966
 H   -0.6957858360    1.7944154791   -0.9689923032
 H   -0.2166185363    2.0817338886    0.7218788027
 H   -2.1395233494   -0.5033398743    0.4492085845
 H   -0.0619975561   -2.6343839485    0.5723134351
 H    1.7251968324   -0.4075542477    1.4207298324
 H   -0.6926014990    0.8509655500    2.7372476184