22

 C    0.0368079052    1.4832501366   -0.4167029506
 C    0.0068207285    0.0599638065    0.1545171611
 C   -1.3916877152   -0.5069920981    0.2397779085
 C   -2.3934927842    0.0916288174    1.2354953922
 C   -3.3126998220   -1.0637117124    1.5988640941
 C   -4.5047925327   -0.8735547768    2.4815607722
 C   -2.9028566160   -2.1951561537    1.0105812818
 C   -1.7253278450   -1.9618261990    0.1266585086
 N   -1.9361089163   -1.0388056827   -1.0204780760
 H    1.0631268504    1.8533335756   -0.5009815005
 H   -0.4145528347    1.5021317150   -1.4135498102
 H   -0.5163976037    2.1841788593    0.2180689194
 H    0.6080311817   -0.5990738516   -0.4806151588
 H    0.4633099408    0.0462574907    1.1530135509
 H   -1.8783965563    0.4784541018    2.1266650950
 H   -2.9470521744    0.9416709082    0.8138380319
 H   -5.2195632973   -0.1648759612    2.0433893847
 H   -5.0296958906   -1.8166924994    2.6565278559
 H   -4.2156648819   -0.4578378956    3.4555526560
 H   -3.3793303420   -3.1634230859    1.1189731377
 H   -0.9841301836   -2.7373152452   -0.0406185782
 H   -2.9310976206   -0.8353370396   -1.1018690356