16

 C   -0.3831656244    1.5367439011   -0.0246254527
 C   -0.0448033417    0.0523359072    0.0550800380
 C    1.1327468584   -0.6016984326   -0.7789910978
 C    2.1480126356   -0.0783651376    0.2829265865
 O    2.5004744989    1.2756961131    0.1908405673
 C    0.9177332640   -0.5417993706    1.1621010796
 C    0.9442798108   -1.7531281278    0.2232804871
 O    0.8346417522   -2.9398140626    0.2478611873
 H    0.4909078835    2.1775018338    0.0485899549
 H   -0.8918695383    1.7437553475   -0.9727248597
 H   -1.0823771643    1.7937290800    0.7791666585
 H   -0.9760961474   -0.5181671730   -0.0307338338
 H    1.2578569966   -0.6361911706   -1.8588414014
 H    3.0468948336   -0.6971185314    0.4032981210
 H    3.0270566833    1.4976365986    0.9653919917
 H    0.8051594194   -0.5087405451    2.2441622035