19

 C   -0.0636388872    1.5563591894    0.0121858759
 C   -0.0081629231    0.0584235369   -0.0195345177
 C    0.5484971687   -0.9744239220   -1.0004119676
 O    1.2323559100   -1.7077272486    0.0158618262
 C    0.6604948160   -0.8368306938    1.0407712707
 C   -0.3313915395   -1.6006322198    1.9113105551
 C   -1.1997862582   -2.4909809442    1.0116487195
 O   -1.7602512654   -1.8023103174   -0.1053301336
 C   -0.9385689462   -0.8717882544   -0.7445968605
 H    0.9261590842    1.9913121588    0.1937889947
 H   -0.4357964386    1.9565252881   -0.9363903236
 H   -0.7352910465    1.9128413529    0.8028960661
 H    1.0306757946   -0.8966691962   -1.9698313313
 H    1.4579941531   -0.3478861083    1.6090468702
 H    0.1845421547   -2.2353116747    2.6401520797
 H   -0.9426134861   -0.8813009640    2.4698788207
 H   -0.5945984518   -3.3334508353    0.6576283412
 H   -2.0537009075   -2.8890539322    1.5673227737
 H   -1.4882835412   -0.4143041554   -1.5635271392