21

 C   -0.1597579879    1.6119935996   -0.2545625292
 O   -0.3383781036    0.2127951636   -0.2126214299
 C    0.6092328018   -0.5478741747   -0.9336239491
 C    0.5338221005   -0.3123827689   -2.4408871745
 C    2.0760975803   -0.5316028482   -0.3694453028
 C    2.0206834943   -2.0590359662   -0.3816018070
 C    2.9991134352   -3.0087630262   -0.9139574148
 O    2.7409592051   -2.9026892254    0.4944706598
 C    0.5016022761   -2.0493712949   -0.5411719936
 H    0.8532364808    1.9067494341    0.0575405630
 H   -0.3516773196    2.0345032158   -1.2507551395
 H   -0.8786512129    2.0424788745    0.4468442116
 H    0.8322521351    0.7051938207   -2.7109633600
 H    1.2021553716   -1.0006970149   -2.9673829259
 H   -0.4867229925   -0.4821366551   -2.7984590833
 H    2.8536926631   -0.0407282730   -0.9597153559
 H    2.0937085119   -0.1499568011    0.6553412561
 H    2.6610965995   -3.9336487370   -1.3805377859
 H    3.9792297522   -2.6570368776   -1.2351076237
 H   -0.0019292671   -2.1477066204    0.4237147543
 H    0.0498730361   -2.7312759350   -1.2654176900