15

 C   -0.1620280596    1.4478056271    0.0198923986
 N   -0.0118988986    0.0097472241    0.0297737691
 C    0.0158191573   -0.7548899781   -1.1066530718
 O   -0.0456797755   -0.4246463285   -2.2623709387
 O    0.1279753043   -2.0737489697   -0.6804522654
 C    0.1666230036   -2.0729143741    0.6986329551
 O    0.3242140208   -3.2489205320    1.3299843713
 C    0.0658906020   -0.8237463758    1.1710251500
 N   -0.0570335373   -0.2957983437    2.4626253214
 H    0.7720628986    1.9553739687    0.2874907983
 H   -0.4412778667    1.7378665127   -0.9938676121
 H   -0.9403911968    1.7493323169    0.7251018994
 H   -0.2675363362   -3.9018497750    0.9337857753
 H   -0.3592446153   -1.0131374445    3.1111642552
 H    0.8131251795    0.0958682518    2.8132435241