21

 C   -0.0922359766    1.5572113654   -0.1920648782
 C    0.0090594438    0.0407123533   -0.0852527707
 C    1.2039098701   -0.5780345092   -0.8695225014
 C    2.0122135012   -0.6603219919    0.4510024361
 C    0.6746452433   -0.4915844888    1.2415328470
 C    0.6596586282    0.3217779773    2.4390499206
 C    0.6525162753    1.0065392658    3.4309782179
 C    0.6621400173    1.8422708034    4.6238740152
 O   -0.2164863866    1.2969264420    5.6029066419
 H    0.8724245777    2.0402605120   -0.0025944671
 H   -0.4208960028    1.8478097965   -1.1957524826
 H   -0.8077313087    1.9572626924    0.5326910858
 H   -0.9664807072   -0.4076561898   -0.2942952969
 H    0.9687408448   -1.5670355179   -1.2722728308
 H    1.6256678643    0.0315318475   -1.6727181221
 H    2.5842089132   -1.5696107348    0.6468667519
 H    2.6681476188    0.2014225679    0.5926906355
 H    0.2632094657   -1.4802732241    1.4734017917
 H    1.6930959711    1.9077019804    5.0096700637
 H    0.3619968397    2.8672845294    4.3498050667
 H   -0.1781209624    1.8733710330    6.3730250757