18

 C   -0.1188873873    1.4957630413   -0.0896344179
 C   -0.0407165640    0.0079853965    0.0453344310
 N   -0.0601100260   -0.7609075889   -1.0473390487
 N    0.0402970398   -2.0511260992   -0.5833379990
 C    0.0924880434   -2.0752600043    0.7607981339
 C    0.0440829696   -0.7830681721    1.2144787589
 C    0.2037577553   -0.7989920730    2.7107290720
 C    0.0061873574   -2.3232365835    3.0174671371
 N    0.2907235312   -3.0503258491    1.7384467036
 H    0.7697161910    1.9829142753    0.3280783130
 H   -0.1986016792    1.7691948259   -1.1438369235
 H   -0.9878196595    1.9017127357    0.4407869022
 H    0.0366641215   -2.8071544178   -1.2442777464
 H    1.2021805212   -0.4675793528    3.0252693651
 H   -0.5211897863   -0.1940507183    3.2646549540
 H    0.6700509029   -2.6841939209    3.8068209967
 H   -1.0295985946   -2.5043194109    3.3330579225
 H   -0.2583448363   -3.8951917739    1.6347854957