18

 C    0.1145673881    1.6401851397    0.0265970661
 C   -0.1109811166    0.1275560139   -0.1240571618
 C    0.5990395699   -0.4524839804   -1.3032522700
 C    0.0913172842   -1.0941565019   -2.3855477642
 O   -1.1440257432   -1.4824288011   -2.7074036732
 C   -1.5950723953   -1.1064190995   -4.0148786305
 O    1.1243972932   -1.4506632790   -3.2183515893
 C    2.2273041047   -0.9877571899   -2.5744360128
 N    1.9893772697   -0.4040921189   -1.4505501816
 H    1.1826421882    1.8616556995    0.1012794898
 H   -0.2816022414    2.1842236910   -0.8369027149
 H   -0.3803856816    2.0201404468    0.9255295945
 H    0.2329782400   -0.3789309761    0.7867391305
 H   -1.1795338804   -0.0914243231   -0.2207420067
 H   -1.5656670856   -0.0172252548   -4.1345594895
 H   -0.9829368072   -1.5768683815   -4.7900573472
 H   -2.6237710484   -1.4597545482   -4.0932263057
 H    3.1742418816   -1.1468515064   -3.0657796035