19

 C    0.0712720851    1.5121356060   -0.0149865280
 N    1.2718525434    0.6602159952   -0.0492139128
 C   -0.0571855956    0.0337208210    0.0710188490
 C   -0.3440374458   -0.6593839464    1.3476464400
 C    0.1245329143   -0.2909502058    2.7557258161
 C   -0.4492044925   -1.6680080966    3.1848973136
 C   -1.9501652700   -1.4949521048    2.9020682914
 N   -1.6542375005   -1.4110018069    1.4330321520
 C   -0.3566514495   -2.1088213987    1.6728732721
 H   -0.0286497158    2.1175225724    0.8814553254
 H   -0.2586110456    1.9994124031   -0.9286482707
 H    1.6132312586    0.5731620899   -1.0024239609
 H   -0.4675344100   -0.4693368403   -0.8017394324
 H    1.2153102619   -0.2624636166    2.7878231689
 H   -0.2897390172    0.6006491549    3.2405664719
 H   -0.0658339650   -2.1903187213    4.0592515474
 H   -2.5384859694   -2.3991036739    3.0797476960
 H   -2.4640257220   -0.6257792466    3.3307660866
 H   -0.0301766544   -2.9960863147    1.1458028945