12

 O   -0.1327650257    1.3250058639    0.2116024960
 C   -0.0141641350    0.0011772394    0.0362072368
 N    1.1505835399   -0.5131984713   -0.0758330998
 O    1.2372632010   -1.9025351069   -0.2585884445
 C    0.1320676484   -2.7170362117   -0.3209945868
 O    0.2734161639   -3.8947200737   -0.4769913030
 N   -1.0849978808   -2.0874499307   -0.1912673652
 C   -1.2951398502   -0.7320636629   -0.0079383966
 N   -2.4652086988   -0.2530065761    0.1000442922
 H    0.7579208391    1.7053850105    0.2256520462
 H   -1.8993575491   -2.6851270792   -0.2359616146
 H   -2.4240064125    0.7565795387    0.2286941092