21

 C   -0.0438158500    1.6329575811    0.0315269937
 C   -0.0440004096    0.1021540941    0.0023582346
 C    0.7316384224   -0.5097636362    1.1723309036
 C    0.7473327458   -2.0570310223    1.1773766352
 C    1.6755095416   -2.5901436078    2.3008011373
 C    1.8438333902   -4.0944531190    2.2816171351
 O    2.9100447254   -4.6551877564    2.3035808915
 C   -0.6032251648   -2.6057941991    1.3047907445
 C   -1.7161236526   -3.0421610689    1.4375827669
 H    0.9753252338    2.0329852478   -0.0129986847
 H   -0.6000220379    2.0452738151   -0.8157651778
 H   -0.5072075370    2.0113940397    0.9493744456
 H   -1.0746674386   -0.2695633686    0.0198391757
 H    0.3928940848   -0.2475082886   -0.9424958849
 H    1.7723229508   -0.1630200189    1.1449078976
 H    0.3089171326   -0.1605603138    2.1230229134
 H    1.1619165198   -2.3884560556    0.2143220617
 H    2.6661445964   -2.1337470673    2.2245380994
 H    1.2413293020   -2.3122963348    3.2712188526
 H    0.8921824130   -4.6681248627    2.2471598970
 H   -2.6978078580   -3.4344011880    1.5402940418