13

 C   -0.3294389616    1.4670444342   -0.1281093777
 N   -0.1750816457    0.0257926566   -0.1366458857
 C    0.6904709496   -0.5420796244   -0.8236248554
 O    1.5924095555    0.1341588049   -1.6470747025
 C    2.4895846445   -0.5805228078   -2.3451279262
 N    2.6333608916   -1.8428215472   -2.3572642672
 C    1.7671317905   -2.5950009457   -1.5589552548
 O    1.7795533682   -3.7788290037   -1.4662074166
 O    0.8130907921   -1.8910077957   -0.8140440611
 H    0.3751011259    2.0056371009   -0.7707752183
 H   -1.3502006711    1.7116513145   -0.4391887457
 H   -0.2152364850    1.8252202622    0.9001129096
 H    3.1251980453    0.0699549313   -2.9401259983