19

 C   -0.0530716594    1.5147720988    0.1414312833
 C   -0.0118013458    0.0180033423    0.0246772435
 C    0.0388367824   -0.6405050812   -1.1349313216
 C    0.0889429512   -2.1390571967   -1.2318039664
 O    0.3183191067   -2.7805208705    0.0089406250
 C   -0.4401121709   -2.2185585800    1.0634559357
 C   -0.0149837444   -0.7689698800    1.3282615572
 C    1.3932063876   -0.7017102351    1.9080020876
 O    1.7788681499    0.1560300100    2.6613380268
 H    0.7435229506    1.8759142152    0.8021211766
 H    0.0540230741    1.9973511701   -0.8334970172
 H   -0.9994865719    1.8462072259    0.5877212107
 H    0.0145489627   -0.0991949310   -2.0779306308
 H   -0.8478315639   -2.5115229532   -1.6863166199
 H    0.9050377708   -2.4565888694   -1.8914598684
 H   -1.5173268135   -2.2479390935    0.8353591043
 H   -0.2619719906   -2.8540823572    1.9366808273
 H   -0.6912209065   -0.2894648482    2.0457609135
 H    2.0695867009   -1.5038741565    1.5406266228