19

 C    0.0057244246    1.5824330251   -0.2399651663
 O    1.4487423027    1.4780596322    0.1016720054
 C    1.0687967439    0.3167156447    0.9465660783
 C    1.2593165909   -1.2391277620    1.0502887992
 C   -0.3638872957   -1.2201571854    0.9795184801
 C   -0.9200753536   -0.8995020021    2.3409220389
 C   -0.3479332100    0.0884249957    3.0247950026
 C    0.7846634023    0.8439069261    2.3745166327
 C   -0.0987679080    0.0565323996    0.0721560246
 H   -0.5089383693    2.2674352910    0.4405350919
 H   -0.1372194128    1.8898738631   -1.2782423177
 H    1.6941617923   -1.6954053816    0.1601074737
 H    1.7017952900   -1.6534456170    1.9605886078
 H   -0.8429883063   -2.0732984845    0.4990575661
 H   -1.7567726083   -1.4728619329    2.7261856427
 H   -0.6840631846    0.3903863126    4.0121953493
 H    1.7088115984    0.7522625241    2.9631615125
 H    0.5598215599    1.9153644366    2.3494096172
 H    0.3128197038   -0.3803654452   -0.8438834988