15

 C    0.0064768579    1.4842161261    0.0497201251
 O    1.3451693193    2.0158305274   -0.0031196964
 C    2.1742573222    1.3960319456   -0.8573574539
 N    3.2471053026    1.8990886545   -1.3913384731
 C    3.8108936990    0.8382502406   -2.0913142836
 C    3.0688908274   -0.2966294502   -1.9627044750
 N    1.9900280425    0.0649754133   -1.1578364399
 C    0.9616541272   -0.6778061251   -0.5770908424
 C   -0.0133282639   -0.0220682646    0.0513559134
 H   -0.4251622040    1.8943378400    0.9651119437
 H   -0.5674141114    1.8861719789   -0.8013378363
 H    4.7194416900    0.9740591688   -2.6569283026
 H    3.1625022597   -1.2903616227   -2.3669703394
 H    1.0437724150   -1.7545120268   -0.6512412424
 H   -0.8197666435   -0.5456549258    0.5471041827