19

 C   -0.1201483801    1.5246845100    0.0371838701
 C    0.0157385923    0.0006631946    0.0032347182
 C    0.7534383291   -0.5086175268   -1.2403056904
 C    0.8457436164   -2.0315672412   -1.3192902240
 O   -0.4475467674   -2.6548020202   -1.3444431777
 C    1.6507557912   -2.5282458521   -2.5228905834
 O    1.6490551829   -3.9372286071   -2.5869859333
 H    0.8610493945    2.0125876040    0.0282819320
 H   -0.6783259132    1.8935729257   -0.8308356878
 H   -0.6481229342    1.8567770395    0.9363637170
 H    0.5486971850   -0.3422274678    0.8995169850
 H   -0.9743136504   -0.4666200817    0.0443253592
 H    0.2530226206   -0.1352724726   -2.1475947666
 H    1.7699979639   -0.0933670272   -1.2667910907
 H    1.3122526508   -2.4259733392   -0.4081281486
 H   -0.9521408828   -2.2442560954   -2.0573901986
 H    1.2306265819   -2.0813019916   -3.4440255529
 H    2.6934377577   -2.1994648030   -2.4483554663
 H    0.7521313619   -4.1985490680   -2.3390248212