17

 C   -0.1130025796    1.4903674078   -0.0181801831
 C   -0.0028579768    0.0004284871   -0.0632073132
 C    0.8852794801   -0.8492134879   -0.9752915928
 C    0.0850251073   -2.0719833558   -0.4363796789
 C    0.4633449078   -2.0607782395    1.0628822878
 N   -0.2555058040   -0.7606443611    1.2202276503
 C   -1.0501926780   -1.0483748076   -0.0045466118
 C   -0.0509972704   -3.2803980588   -1.2025419848
 N   -0.1703171396   -4.2575393380   -1.8103999321
 H    0.8190185797    1.9383199627    0.3432964243
 H   -0.3220235284    1.8968809124   -1.0130238174
 H   -0.9160091568    1.7931130517    0.6585363122
 H    0.6625729658   -0.6521904251   -2.0262716838
 H    1.9682125430   -0.8620077421   -0.8150233966
 H   -0.0580101588   -2.8250936047    1.6423670185
 H    1.5294640993   -2.0523861685    1.3132677390
 H   -2.1305853708   -1.0631077226   -0.0645678976