14

 N    0.0483394081   -1.1302374801   -0.0472046092
 C    0.0487366778    0.0246741065   -0.0170866201
 C   -0.0105550850    1.4688465262    0.0344953617
 C   -0.3121165985    2.2801084894    1.3365696287
 C    0.5064519888    3.2937742194    0.4895261860
 O    1.2546445638    2.1694168237   -0.0537326238
 C   -0.4956527029    3.6055546205   -0.6603756954
 O   -0.1191438684    3.0213595018   -1.9090651612
 C   -0.8929365856    2.2434039787   -1.0093063726
 H   -1.3546965393    2.5028250962    1.5762632873
 H    0.2372143089    1.8981430768    2.1972161340
 H    1.1245926738    4.0830501893    0.9101744257
 H   -1.1323991501    4.4821820913   -0.6797247001
 H   -1.8675815615    1.8924290702   -1.3262635709