16

 C   -0.2476577837    1.5270385181    0.0456888189
 C    0.1004285101    0.0517665586   -0.0109221579
 C    1.2089819523   -0.4668106834   -0.9716123742
 C    1.8923954392   -1.0396068237    0.2740983108
 C    2.1437860195    0.0291091075    1.2707689567
 N    0.7905153742   -0.5341232891    1.2097366196
 C    2.4584727966   -2.3508802773    0.3691981589
 N    2.9304462078   -3.4065471259    0.4100313930
 H    0.6350218819    2.1665590932    0.1374765295
 H   -0.7742021891    1.8212038598   -0.8682007202
 H   -0.9064835199    1.7292593330    0.8961348447
 H   -0.8145426495   -0.5307496313   -0.1427001116
 H    0.8563156930   -1.2287707833   -1.6666729144
 H    1.7952520373    0.2752111572   -1.5204799652
 H    2.6690224505   -0.2500475520    2.1781191180
 H    2.3449386498    1.0365667786    0.9160832935