18

 C    0.1026555520    1.5583865223   -0.3040460732
 C   -0.0330988045    0.0718749915   -0.1562356073
 N   -1.1669620356   -0.5013586400   -0.1702434299
 C   -1.2333362463   -1.9402151123    0.0507202368
 C    0.0157149060   -2.5198167380    0.7149495250
 C    1.2335404518   -1.9416635262    0.0116312928
 O    1.1889598027   -0.5063935539   -0.0132630982
 C   -2.5111728742   -2.2321034591    0.8307569642
 O   -2.6186742555   -3.1032519158    1.6537869765
 H    0.6975125336    1.7983269398   -1.1910440462
 H   -0.8847363546    2.0099707940   -0.3878561884
 H    0.6295122886    1.9751846193    0.5601691391
 H   -1.3918677432   -2.4267094720   -0.9287597053
 H    0.0283097190   -2.2432956820    1.7741656284
 H    0.0241819457   -3.6114750042    0.6660794979
 H    2.1659612642   -2.1973046897    0.5201270012
 H    1.2975311004   -2.3024820023   -1.0234275750
 H   -3.3531147104   -1.5585938916    0.5616218216