18

 C    0.0255239386    1.5303396025    0.0467457641
 C    0.2016248415    0.0338490489    0.1515087786
 O    0.5664747491   -0.5130498594   -1.1068358772
 C    1.4114799499   -1.6321175629   -0.8577696815
 C    1.6584090179   -1.5765688351    0.6490995565
 C    1.3888007765   -2.7314742577    1.5762867644
 C    2.8008059233   -2.2016959765    1.3666823311
 O    1.2616928946   -0.2834476545    1.0315266610
 H    0.9604273669    1.9874409621   -0.2857902724
 H   -0.7628471074    1.7601349042   -0.6742470826
 H   -0.2542960343    1.9442496546    1.0188873547
 H   -0.7244587627   -0.4568825556    0.5056555272
 H    0.9244012084   -2.5679028521   -1.1612649998
 H    2.3328583004   -1.5095330052   -1.4397221879
 H    0.9103772619   -2.5042037341    2.5222999661
 H    1.1291161114   -3.6940852236    1.1471770866
 H    3.5020048358   -2.8008241074    0.7949188508
 H    3.2454243783   -1.6302961380    2.1737617302