17

 C   -0.2643065078    1.4324781604    0.0480044677
 C   -0.0096791805   -0.0576917651   -0.1009596849
 C    1.0183284648   -0.3891151346   -1.1621849466
 O    1.2030698547   -1.8063627244   -1.2478903200
 C    1.2515044140   -2.5071247775   -0.0865650758
 N    1.5173452192   -3.7443187276   -0.0570374185
 C    0.9766347031   -1.7896584632    1.2201700767
 N    1.2181241063   -2.2891390473    2.3539948034
 O    0.4698375387   -0.5319777939    1.1633664494
 H    0.6668185637    1.9641809579    0.2645113883
 H   -0.7009282974    1.8400305090   -0.8682245241
 H   -0.9579799204    1.6086782713    0.8730964856
 H   -0.9469475161   -0.5800282151   -0.3428566622
 H    0.6901209303   -0.0699838191   -2.1538983518
 H    1.9742123484    0.0977039791   -0.9286415200
 H    1.6986869741   -4.0960105019   -0.9982750235
 H    1.6041810048   -3.2241253480    2.2156559062