15

 N    0.5988914690    0.3282712063   -0.8392658701
 C   -0.0136938341    0.0218083403    0.3387109312
 O    0.2517470619    0.5665852384    1.3939823671
 C   -1.0995236557   -1.0464325676    0.2365892885
 C   -2.3284694416   -0.8213754884   -0.7319031407
 C   -1.9679987443   -2.1405789273   -1.4238376345
 O   -0.6274076306   -2.0112662411   -1.9255715465
 C   -0.8095464885   -2.3491013438   -0.5409494704
 H    1.3729776474    0.9714105693   -0.8125435764
 H    0.4360226486   -0.2402087289   -1.6567715795
 H   -1.4362380307   -1.2538218596    1.2523620959
 H   -3.2783984966   -0.8539073669   -0.1952334911
 H   -2.2962905734    0.0630548566   -1.3711401950
 H   -2.6079702749   -2.8506394135   -1.9333655353
 H   -0.3244190966   -3.2524937136   -0.1910962732