17

 O   -0.4394207384    1.0646791145    1.3275116641
 C   -0.0865960735    0.0733115085    0.4064663260
 C   -0.7224133928   -1.2681082478    0.6168588864
 C   -1.1088945466   -0.4356834130   -0.5895091215
 C   -2.4534661240    0.2061516817   -0.7556390419
 C   -3.7208349260   -0.6204863100   -0.7619100182
 C   -3.4541936605    0.3443122375    0.3629108161
 H   -0.6144906091    1.8758941243    0.8395458078
 H    0.9562124522    0.1007961029    0.0890192251
 H   -0.1320616485   -2.1639780521    0.4607771723
 H   -1.4222588083   -1.3280457873    1.4428038397
 H   -0.6831139254   -0.7797276467   -1.5302970744
 H   -2.4460715396    1.0303980972   -1.4665288807
 H   -4.4931860820   -0.3801041434   -1.4841680410
 H   -3.6202575207   -1.6792713173   -0.5484530107
 H   -3.2007327852   -0.0575819292    1.3361315545
 H   -4.0369221517    1.2581003402    0.4068904363