19

 C    0.0776970807    1.5721086862    0.0346701446
 C    0.0230784977    0.0736957313   -0.0061220058
 C   -0.9753546618   -0.7678129751    0.7515295443
 C    0.5028468191   -0.9654191017    0.9970886012
 N    1.1698162781   -1.7329294120   -0.0535781792
 C    0.8588732501   -3.1501796377   -0.1519773727
 C    1.5900076023   -3.7754382854   -1.2598109826
 N    2.1473591359   -4.2650180486   -2.1451572824
 C    0.6519481319   -0.8007543824   -1.1009886787
 H    1.0870351621    1.9399069769   -0.1801581224
 H   -0.6024308476    2.0136966233   -0.7034185620
 H   -0.2156519676    1.9512136672    1.0187541739
 H   -1.5010886375   -0.2505542815    1.5486060829
 H   -1.5714410848   -1.5225160258    0.2437069508
 H    0.9655566383   -0.8489325135    1.9717776062
 H    1.1637098273   -3.6364013451    0.7822652134
 H   -0.2148158090   -3.3719331522   -0.2910161827
 H   -0.0507390518   -1.2473699030   -1.8170347336
 H    1.4700981367   -0.3284576007   -1.6528690551