15

 C    0.1003158161    1.5413890611    0.0237582530
 C    1.2520535760    0.5551881534   -0.1174113019
 C   -0.1640487137    0.0792402704    0.0647179105
 C   -0.6373208434   -0.7132629839    1.2830743038
 O   -1.2421351162   -1.8772033944    0.7218351987
 C   -0.9635469223   -1.8547852535   -0.6625921785
 O   -0.8361856300   -0.5022026896   -1.0279199742
 H    0.0088651928    2.1072544663    0.9451092905
 H   -0.2158147868    2.0716671252   -0.8675218645
 H    1.6884612202    0.4419136545   -1.1033511464
 H    1.9468244940    0.4502551210    0.7099206095
 H    0.1944749835   -0.9848698470    1.9455846527
 H   -1.3945874679   -0.1769998839    1.8667789217
 H   -0.0296501289   -2.4053818438   -0.8777210466
 H   -1.8008310435   -2.2964514858   -1.2098590883