15

 N    0.0523142399    1.3467940101    0.1463766559
 C   -0.0153160374   -0.0188188361    0.0596738265
 C   -1.2149335369   -0.6981384283    0.0137093135
 C   -1.2325295126   -2.1234697698   -0.0142838681
 O   -2.1805578219   -2.8893296485   -0.0446339930
 N    0.0884820065   -2.6783737597    0.0008222434
 C    1.2170565024   -1.9313681118    0.0348524698
 N    2.4172202548   -2.5953376011    0.0979149781
 N    1.2140486435   -0.6253066770    0.0529936250
 H    0.9466538169    1.7511831726   -0.0795635820
 H   -0.7577340170    1.8801493911   -0.1214399594
 H   -2.1652609885   -0.1813946897    0.0132977085
 H    0.1193127962   -3.6875859598    0.0364593903
 H    2.4765371214   -3.5023846703   -0.3380224096
 H    3.2113806326   -1.9957584616   -0.0678250889