21

 C    0.0602995635    1.4931019431   -0.0882369910
 C    0.1221359194   -0.0428092402    0.0022122336
 C    0.7547810375   -0.5155017380    1.2309381132
 C    1.2744943819   -0.8504632123    2.2665387586
 C    1.9126342061   -1.3457597545    3.4822718326
 C    1.9732291068   -2.8870654367    3.4917831799
 O    2.6438510355   -3.3825260302    2.3407834905
 C    2.7543540508   -3.4344615375    4.6820929759
 O    2.8103541987   -4.8442380493    4.6519155471
 H    1.0643452302    1.9245270096   -0.0574817544
 H   -0.4194351528    1.8000379666   -1.0222570196
 H   -0.5110477810    1.9085763376    0.7461459968
 H   -0.8925942360   -0.4551096912   -0.0678990341
 H    0.6673046163   -0.4374850443   -0.8647753303
 H    2.9341131197   -0.9507027135    3.5557102124
 H    1.3685367825   -0.9986088481    4.3699737761
 H    0.9465695256   -3.2827084939    3.5321771617
 H    2.1950058026   -3.0215780842    1.5669545203
 H    3.7631924346   -2.9882688766    4.6765650675
 H    2.2629121320   -3.1487576923    5.6181492064
 H    3.0742212260   -5.0741808741    3.7526271867