18

 C   -0.0687658688    1.5500401877    0.1062449006
 C    1.4516824993    1.2842656045    0.0536111364
 C    1.1920675139    0.0911440695    1.0560451952
 C    0.0890845363   -0.0106420173   -0.0405121845
 C   -0.9178278346   -0.8713542904   -0.7348357079
 C   -0.7511394562   -0.6955414117   -2.0555812530
 C    0.4117204550    0.2484649645   -2.4120559485
 C    1.1948352225    0.2357777350   -1.0854176222
 H   -0.4733747056    1.9074768616    1.0568942413
 H   -0.5163199394    2.0838569217   -0.7340291518
 H    2.2543238515    2.0199968236    0.1283828336
 H    1.9401622382   -0.7062154608    1.0739997526
 H    0.8787522326    0.3746596908    2.0645971346
 H   -1.7090070000   -1.4501066817   -0.2732172738
 H   -1.3949565875   -1.1211984151   -2.8189999046
 H    1.0020248025   -0.1140908454   -3.2595743554
 H    0.0203443746    1.2310060171   -2.7041446450
 H    1.9471423058   -0.5605358536   -1.1124873274