20

 C   -0.0190138508    1.3993561946   -0.1156307804
 C    1.3956105082    2.0050648752   -0.0191456456
 N    2.2677748052    1.3605782481    0.9683710682
 C    1.9218626778    1.5862352067    2.3757227857
 C    0.6299807605    0.8828734304    2.8379667704
 O    0.4711993009   -0.4260806062    2.2865373624
 C    0.8534721264   -0.6064096100    0.9351097747
 C    2.2691390568   -0.0834864578    0.7155531129
 O   -0.0320395000   -0.0254830525   -0.0048162199
 H   -0.6844795209    1.8364636603    0.6397056216
 H   -0.4547565603    1.6245130766   -1.0950114029
 H    1.8958167649    1.9067292453   -0.9905603621
 H    1.3222082161    3.0756019026    0.2035894392
 H    2.7659937274    1.2141568057    2.9694590937
 H    1.8405991404    2.6630575271    2.5625312129
 H    0.6483026537    0.7465253926    3.9246263595
 H   -0.2524060030    1.4928299409    2.6060373973
 H    0.7639562418   -1.6829776333    0.7665475814
 H    2.5892917360   -0.2773481171   -0.3135789791
 H    2.9660130390   -0.5771553991    1.4010098103