15

 N    0.1829609598    1.1501713361   -0.7704149070
 C   -0.0018454687   -0.0512014646    0.0112844180
 C    0.3788235733   -0.0908207747    1.5031459234
 C   -0.5314361099   -1.1689042675    2.0719572880
 O   -0.4316880230   -1.8005553112    3.0761067077
 O   -1.5851732051   -1.3653752617    1.2014018111
 C   -1.4978947658   -0.4739360617    0.0879948148
 C   -2.3824515984    0.6855635764    0.2980059654
 N   -3.0453447072    1.6159042182    0.4701477158
 H   -0.1950287056    1.9642078271   -0.2945143923
 H    1.1669253128    1.3221665400   -0.9421794492
 H    0.5166070317   -0.8668806011   -0.5040284265
 H    1.4239084410   -0.3248281905    1.7079999524
 H    0.1387946673    0.8605270936    1.9937616374
 H   -1.8216740223   -1.0077562383   -0.8076650089