23

 C   -0.0313255629    1.4027744537   -0.3751106439
 C   -0.0550524749   -0.0739214747    0.0465101713
 C    0.7899121904   -0.3143235596    1.3070521142
 C   -1.5011412124   -0.5888619375    0.1872887267
 C   -2.2796214373    0.0041684756    1.3545017464
 O   -2.2353304682   -0.3667570832   -1.0621582127
 C   -2.3186362571   -1.7737926982   -1.3412634810
 C   -1.6781376022   -2.1291450018    0.0148615903
 O   -0.4758312030   -2.8636239150   -0.0040022546
 H    0.9898715555    1.7066794845   -0.6270699841
 H   -0.6661942287    1.5668787358   -1.2490408920
 H   -0.3773477117    2.0614715237    0.4292738224
 H    0.3919161820   -0.6581311755   -0.7655621343
 H    0.4462043718    0.2995021675    2.1467819895
 H    0.7640877051   -1.3642722621    1.6077368545
 H    1.8336081466   -0.0445383850    1.1148473908
 H   -2.3031858927    1.0959905784    1.3005258031
 H   -3.3131759488   -0.3530264775    1.3326689767
 H   -1.8352441774   -0.2843594326    2.3119705788
 H   -3.3520642442   -2.1024558934   -1.5070946064
 H   -1.6994262736   -2.0705790447   -2.1983456600
 H   -2.3860538710   -2.5511488421    0.7392006845
 H   -0.6904374654   -3.7981097163   -0.0804932801