23

 C    0.9746951986    1.4963662144    0.5776603893
 N    0.6359088673    0.1262960276    0.2218753067
 C    0.4698816543   -0.2574933712   -1.1866288770
 C    0.6186700467    0.7051991003   -2.3213106880
 C    0.0545044870    0.3443718901   -3.6474373348
 N   -0.5801507097    1.3982250817   -2.8401474154
 C    1.6206603430   -0.7841173404   -0.3753447864
 C    3.0454226374   -0.3414788439   -0.6623259029
 C    1.5347809636   -2.2032825719    0.1581366796
 H    1.6664813144    2.0146691336   -0.1003679091
 H    0.0522050337    2.0841446389    0.6195860409
 H    1.4196716828    1.4991057783    1.5779688416
 H   -0.3756279366   -0.9341738681   -1.3394636271
 H    1.4943529264    1.3455129641   -2.3109797170
 H    0.5374135090    0.6896770143   -4.5571673212
 H   -0.4451632003   -0.6171363732   -3.7396376256
 H   -1.4086940646    1.0230687658   -2.3819921050
 H    3.1230818599    0.6810196491   -1.0328832793
 H    3.6535217085   -0.4132846787    0.2469081444
 H    3.4989730132   -0.9999060404   -1.4108622987
 H    1.9363063361   -2.9220481026   -0.5653663862
 H    2.1127307646   -2.3023159449    1.0845545828
 H    0.4983817950   -2.4686943929    0.3792783283