20

 O   -0.1600810886    1.3899832638    0.0979163402
 C    0.0278941489    0.0025004297   -0.0182879127
 C   -0.3993522196   -0.6623470127   -1.3011499225
 C   -1.2473356001   -0.7934142057   -0.0433941103
 C   -1.3500639596   -2.0370754657    0.7970796323
 C   -0.3467597867   -3.1397318069    0.7655272953
 N   -0.4207248191   -2.2496962421    1.9226809292
 C    0.6367774753   -1.2494883028    2.0963754220
 C    1.1672985571   -0.5784427431    0.8130976318
 H    0.5535672977    1.8239602324   -0.3832940347
 H   -0.7948276602   -0.0191192298   -2.0793212045
 H    0.1508407163   -1.5279255200   -1.6557061064
 H   -2.1486418759   -0.1900963159   -0.0460812953
 H   -2.3739847175   -2.3120006590    1.0404309869
 H   -0.6617237611   -4.1642387499    0.9475275696
 H    0.4918971760   -3.0552054139    0.0791391318
 H    0.2272153044   -0.4747297690    2.7554035250
 H    1.4608738192   -1.7293510066    2.6357159120
 H    1.7623305952   -1.2862734627    0.2264373666
 H    1.8441939282    0.2338118999    1.0964589135