25

 C    0.0278159794    1.5883678120   -0.1785130531
 C    0.0081289890    0.0648150171   -0.0275468603
 C   -1.4089908946   -0.5249694693   -0.0442705929
 C   -1.4398365610   -2.0337167898    0.1046323775
 C   -0.9287278533   -2.8906685556   -1.0931801208
 C   -2.2537633405   -3.7114686372   -1.0851416472
 C   -2.7712170180   -2.8829046360    0.1183241852
 C   -2.3924356836   -3.4522893929    1.5093301753
 C   -1.0669004651   -2.6323845357    1.4949253233
 H    1.0501685105    1.9793667123   -0.1630394401
 H   -0.4330465087    1.8987468059   -1.1230438783
 H   -0.5266061905    2.0739100637    0.6324941998
 H    0.5992895938   -0.3901119934   -0.8328257144
 H    0.5063845709   -0.2162914913    0.9092699214
 H   -2.0002312268   -0.0681797788    0.7627554354
 H   -1.9071255487   -0.2423985849   -0.9831673769
 H   -0.7862840144   -2.3103000289   -2.0097315628
 H   -0.0109095935   -3.4567261114   -0.9079885751
 H   -2.8462863495   -3.5815102154   -1.9943080616
 H   -2.1530446287   -4.7854608800   -0.9007386433
 H   -3.7616886409   -2.4332648117    0.0204522543
 H   -3.0760616216   -3.1515349171    2.3073031204
 H   -2.2844064019   -4.5404530683    1.5521970657
 H   -0.1408260444   -3.2143852330    1.5226200831
 H   -1.0154724278   -1.8812973502    2.2889051554