16

 C   -0.1458221939    1.5572408868   -0.0402927619
 C    0.0522527730    0.0528713215    0.0145277444
 O    0.8838541786   -0.4039908568   -1.0685647487
 C    1.8744562572   -1.2375492247   -0.4191207784
 O    1.1733169100   -1.8114861599    0.6600822387
 C    0.8155299770   -0.5456933360    1.2511327487
 C    2.1615408746    0.1569182385    1.3366848905
 C    2.8447533532   -0.2867916772    0.2797206873
 H    0.8090781182    2.0841819755    0.0248870464
 H   -0.6246150718    1.8364234852   -0.9830986158
 H   -0.7933424593    1.8907914602    0.7783239297
 H   -0.9135969244   -0.4631126939   -0.0540826946
 H    2.2446649694   -1.9825714255   -1.1199714697
 H    0.2283265982   -0.6796427180    2.1571168959
 H    2.4229391680    0.9362588602    2.0383385804
 H    3.8042840518    0.0312233140   -0.1025835026