19

 C    0.5084155340    1.4830786187   -0.1839849640
 C    0.0892412141    0.0414167579    0.0389474316
 O    0.8198986048   -0.9202056748   -0.7656854821
 C    1.2746084827   -1.6963186505    0.3739223109
 C    2.7844081753   -1.8450147541    0.4618226846
 C    3.3505252384   -2.6613698433   -0.6948445584
 O    4.7545544286   -2.7450769620   -0.5116785868
 C    0.5980336750   -0.6749535305    1.2998290182
 O    0.5381022319   -0.4896801752    2.4767594374
 H    1.5817952966    1.6102390185   -0.0197044054
 H    0.2748720234    1.7905479587   -1.2074230287
 H   -0.0324800309    2.1369542310    0.5070018924
 H   -0.9959330819   -0.0754297859   -0.0976620913
 H    0.7821775547   -2.6806970699    0.4002729169
 H    3.2585394077   -0.8578491746    0.4680795164
 H    3.0326940035   -2.3338080028    1.4110763936
 H    2.8858902662   -3.6616378535   -0.7027226409
 H    3.0931300162   -2.1708074916   -1.6448252985
 H    5.1313311897   -3.1918026463   -1.2752392960