20

 C   -0.0069520853    1.4926386435    0.0169885595
 C    1.2999203297    0.7223678831   -0.0100162173
 C   -0.0309648778   -0.0000628170   -0.0303347562
 O   -0.4373213478   -0.6136007546    1.1617101206
 C   -0.0464668631   -1.9790184745    1.2225477029
 C   -0.8203890584   -2.8286782459    0.2074739638
 C   -0.8227739416   -2.1663413518   -1.1646024180
 N   -1.8537629598   -1.1297508349   -1.3699696852
 C   -0.4407467740   -0.7296763749   -1.2730426349
 H   -0.2988020063    1.9457104825    0.9573871748
 H   -0.3099555646    2.0410126107   -0.8682164459
 H    1.9005030016    0.7474637080   -0.9136804249
 H    1.8651747499    0.6729555381    0.9135749927
 H    1.0367724787   -2.0637653578    1.0408710711
 H   -0.2458837261   -2.3082769767    2.2459101086
 H   -0.3644257792   -3.8234137095    0.1492947417
 H   -1.8545167549   -2.9552802769    0.5424388799
 H   -0.5884367850   -2.8081237115   -2.0104312529
 H   -2.1485799322   -1.1176660882   -2.3428866008
 H    0.0627130862   -0.3998809018   -2.1794228397