20

 C   -0.0472582701    1.4380837689   -0.0382046875
 C    0.0057810064   -0.0932909719   -0.0318156842
 N    0.7028741731   -0.7274534135    1.0839537040
 C    2.1419720114   -0.6483692721    1.0930715832
 C    2.9173395190    0.5775551403    1.6636004400
 O    3.7109493747   -0.2826578687    2.5026229602
 C    2.8715556077   -1.4180628506    2.2139005573
 C   -1.3872701002   -0.7161627375   -0.1182439368
 O   -2.3930270147   -0.1167241140   -0.3945451784
 H    0.9558588780    1.8659847011   -0.1157566360
 H   -0.6477876725    1.7947351198   -0.8786741818
 H   -0.5140397906    1.8108151994    0.8794420383
 H    0.5156736117   -0.4398440686   -0.9461279972
 H    0.3234076481   -0.4034434341    1.9690770448
 H    2.5048842277   -0.9270849530    0.0995094864
 H    3.5337604272    1.1645677324    0.9726490809
 H    2.2852791020    1.2607167441    2.2510131916
 H    2.2151470566   -1.6749851575    3.0586495890
 H    3.4493100487   -2.3042318639    1.9302049468
 H   -1.3894460242   -1.8058106806    0.1060730394