12

 N   -0.0434589139    1.2822236820    0.0071737986
 C    0.0594699350   -0.0669146168   -0.0000362072
 O    1.0808709568   -0.7125972031   -0.0125948948
 C   -1.3453514050   -0.7128189095    0.0102023992
 O   -2.3691371229   -0.0779796597    0.0233635232
 O   -1.2517834225   -2.0574512748    0.0024360821
 C   -2.4247449270   -2.7867141710    0.0102506146
 N   -2.3282176347   -4.0376266877    0.0028972549
 H    0.7933203448    1.8402602551    0.0026455726
 H   -0.9519472419    1.7150415410    0.0185025171
 H   -3.3153484406   -2.1587686415    0.0227671053
 H   -3.2566598179   -4.4579900539    0.0103556745