20

 C   -0.0394086903    1.5573237623   -0.0253513217
 C   -0.0053824220    0.0268944057   -0.0317881574
 C    0.7395472865   -0.5573907970   -1.2273108461
 C    0.8129077182   -2.0791040185   -1.2311509831
 C    1.5665736630   -2.5330665229   -2.4770935753
 N    1.0741505811   -1.7933004412   -3.6270499286
 C    0.3150372716   -0.6532255694   -3.6230392036
 O   -0.1236914380   -0.1468769028   -4.6262052689
 O    0.0485698561   -0.1030864489   -2.4083145393
 H    0.9724952306    1.9747735317    0.0235851704
 H   -0.5162181163    1.9366664808   -0.9319616196
 H   -0.5960628391    1.9300600384    0.8392441916
 H    0.4788098656   -0.3447591316    0.8797971799
 H   -1.0267165456   -0.3728761577   -0.0352032966
 H    1.7604306063   -0.1445693888   -1.2557452649
 H    1.3222626428   -2.4388768351   -0.3325440558
 H   -0.2051211783   -2.4846820732   -1.2297517739
 H    2.6454969664   -2.3664454746   -2.3407429259
 H    1.4254650050   -3.6062593074   -2.6476074749
 H    1.2485551465   -2.1458402697   -4.5536957465