18

 C   -0.0899040370    1.4290155140   -0.0837467009
 C   -0.1239442546   -0.0753001391    0.1118423523
 C   -0.6973682403   -0.6120939094    1.4277909795
 C    0.7847206184   -0.6767172313    1.1618951413
 O    1.5223599698   -1.8577132241    0.9819580837
 C    0.8846938788   -2.9276477079    0.3897478363
 O    0.7292488029   -2.8132380585   -1.0254048279
 C   -0.0896358700   -1.8540080893   -1.5391652832
 N   -0.4830549093   -0.7401913735   -1.1006787580
 H    0.6600566145    1.7038673872   -0.8322059820
 H   -1.0636378010    1.7842468135   -0.4343304373
 H    0.1522371284    1.9448120459    0.8503586629
 H   -1.0453449422    0.0928702412    2.1762216943
 H   -1.3037530611   -1.5058123337    1.3506465949
 H    1.4065220705    0.0166474929    1.7184365025
 H    1.5300874463   -3.7958508960    0.5264975943
 H   -0.1020310648   -3.1158800865    0.8338762434
 H   -0.4110682294   -2.1701493655   -2.5313246861