19

 C   -0.0105496150    1.5014172981    0.0174356497
 C    0.0026253049   -0.0058015659    0.0203443548
 C    0.3873498568   -0.7621245660    1.2400074432
 N    1.3263287366   -0.6900544088    0.0813482537
 C    1.1271981900   -1.8133522703   -0.7729206694
 N    0.0391039936   -1.9135416289   -1.4236228504
 C   -0.8008439247   -0.7554852894   -1.0522795188
 C   -2.2033399184   -1.2467537123   -0.6770450126
 O   -2.7920968741   -1.9537773853   -1.7463243297
 H    0.7214953159    1.9021438330    0.7231449376
 H    0.2267353958    1.8893109162   -0.9786914476
 H   -0.9997054039    1.8786473147    0.2999641078
 H    0.7219431976   -0.2187659658    2.1187659225
 H   -0.0723309084   -1.7251520130    1.4416259092
 H    1.9321294809   -2.5395577215   -0.8480602009
 H   -0.9095802709   -0.1175984803   -1.9401975583
 H   -2.1443930841   -1.8635703566    0.2340914596
 H   -2.8538059076   -0.3928037824   -0.4571095592
 H   -2.1187613549   -2.5746935158   -2.0528192412