16

 O    0.0001853099    0.0368172171   -0.0359203885
 C   -0.0152276666    1.2335711699   -0.0031987857
 C   -1.0995296415    2.3111981578    0.0863754669
 C   -0.0293066366    3.1624762047    0.8414209035
 C    1.0421786285    2.3395776060    0.0572639749
 C    1.1401003776    2.9287739674   -1.3770424830
 O   -0.0698613080    3.5697072536   -1.7451267988
 C   -1.2519687173    2.8970770399   -1.3445274870
 H   -2.0652243610    2.0747167112    0.5356243740
 H   -0.0460355327    4.2373656679    0.6585536044
 H   -0.0119706288    2.9520447231    1.9116720802
 H    2.0256514274    2.1289248686    0.4800180416
 H    1.9134277007    3.7020998454   -1.4220923451
 H    1.4079408239    2.1331232022   -2.0895547195
 H   -1.5179009118    2.0943535669   -2.0497845103
 H   -2.0464500779    3.6496282983   -1.3682663175