20

 O   -0.1760225764    1.4910288132    0.5281720456
 C   -0.0118052558    0.1433590834    0.0908256708
 C    0.7398829385   -0.7169445414    1.1242719496
 C   -0.3407818114   -1.2352706119    2.1190605007
 C   -1.6994326967   -0.7625211360    1.5475647323
 C   -1.4136458198   -0.4863121177    0.0597321187
 C   -2.4565930015    0.3863706184   -0.6599636623
 C   -3.7770432838   -0.2381327203   -0.7011814633
 N   -4.8141903594   -0.7476094415   -0.7293369654
 H    0.6967857659    1.8750271694    0.6534062868
 H    0.4720416990    0.1233860247   -0.8968814891
 H    1.2357032452   -1.5510132317    0.6167758618
 H    1.5270096597   -0.1347905050    1.6142214406
 H   -0.3034051104   -2.3264807418    2.1827607544
 H   -0.1813567306   -0.8575460375    3.1316352198
 H   -2.5012083969   -1.4900898367    1.6919016361
 H   -2.0088189656    0.1704664778    2.0289721996
 H   -1.3301765891   -1.4421115554   -0.4725484283
 H   -2.5313629596    1.3554406345   -0.1580939874
 H   -2.1390607715    0.5881938952   -1.6897355009