17

 C   -0.0038121977    1.5688219522   -0.0741332261
 C   -0.0873154396    0.0753753632    0.0959122284
 O    1.1318765451   -0.6704849948   -0.0853830993
 C    0.5633932157   -0.6283470102    1.2065664398
 C    1.3014020971   -0.1337653396    2.4455179168
 C    0.3233849178   -0.0462803507    3.5666263742
 C    0.8815147923   -1.4171203754    3.2187995436
 C    0.2249517183   -1.9300565412    1.9620362507
 O   -0.2019958004   -2.9919462078    1.6134071193
 H    0.8675623856    1.9752755919    0.4456735879
 H    0.0742152949    1.8300980631   -1.1343953981
 H   -0.9044444597    2.0477350978    0.3245097227
 H   -0.9539135944   -0.4107091298   -0.3545394836
 H    2.2755201487    0.3345041178    2.4431822477
 H    0.6949800917    0.3548784122    4.5039632807
 H   -0.7185866612    0.1867073184    3.3659675156
 H    1.4329035459   -2.0056438570    3.9400637697