23

 C   -0.1126898906    1.6268033671   -0.1495054386
 C    1.4441507319    1.6439124051    0.0526375863
 C    1.3305308556    0.1639983616    0.5498125762
 C   -0.1447242854    0.0672297641    0.0503206984
 C   -0.3448396308   -0.8051624814   -1.2344794563
 C    0.3399839852   -0.0388343063   -2.3233150723
 C    1.6670117884    0.0793570110   -2.3985105139
 C    2.2704316415    1.4417614030   -2.5360812233
 C    2.4526713957    2.0008357638   -1.0784958347
 H   -0.6158972845    2.1396208754    0.6752151398
 H   -0.5120273940    2.0326013630   -1.0795257722
 H    1.7226888693    2.3112781823    0.8751730265
 H    2.0398248546   -0.5583350868    0.1400113475
 H    1.3893093800    0.1011892009    1.6406781514
 H   -0.8500395641   -0.2658810778    0.8183075525
 H    0.1028059860   -1.7905558955   -1.0589267138
 H   -1.4123164732   -0.9540821736   -1.4306942949
 H   -0.2540089373    0.7630552614   -2.7598313462
 H    2.3032195501   -0.6964649981   -1.9740046956
 H    3.2417550107    1.4704391382   -3.0431761927
 H    1.5884462981    2.0929321506   -3.0943716144
 H    2.5184402916    3.0944467332   -1.1469044825
 H    3.4333969712    1.6704489689   -0.7102278672