20

 C   -0.2731793045    1.5550804254   -0.1113131026
 C    0.0473910770    0.0554605989    0.0359559480
 C    0.7937962784   -0.5029997356   -1.1389824492
 C    2.0957393533   -0.9000330174   -1.2357315460
 C    2.3529891870   -1.4123970753   -2.6417166795
 C    1.0916940351   -0.9455724872   -3.4078267978
 N    0.1254720265   -0.6867140420   -2.3267566849
 C    3.0856880814   -0.9250173003   -0.1957609354
 O    4.2330229330   -1.3159537257   -0.3438665887
 H    0.6459690160    2.1399933501   -0.2069021806
 H   -0.8913032338    1.7565751235   -0.9923460208
 H   -0.8193236477    1.9158009018    0.7646842029
 H    0.6297322485   -0.1047017119    0.9454706633
 H   -0.8862614597   -0.5087011718    0.1545908273
 H    3.2771817355   -1.0202855076   -3.0722617036
 H    2.4415743392   -2.5057585837   -2.6463049882
 H    1.2895050431   -0.0242431194   -3.9734881290
 H    0.7046435198   -1.6940373238   -4.1040587956
 H   -0.6967404856   -0.1365480862   -2.5229595336
 H    2.7486399974   -0.5456562616    0.7960757539