19

 C    0.0279675387    1.4572216448    0.1445348811
 C   -0.1053159084   -0.0498016007   -0.0510069137
 C   -1.5634717163   -0.4806918335   -0.2200647845
 C    0.7616721802   -0.5388401138   -1.2114476187
 O    0.7903422471   -1.9507833140   -1.2417249811
 C    1.4432674210   -2.4589648885   -0.0987857127
 C    1.0591849298   -1.8080515251    1.2275020808
 O    1.3911546864   -2.2879391743    2.2772505656
 O    0.3827121217   -0.6427972486    1.1950317595
 H    1.0717613509    1.7365555941    0.3128755256
 H   -0.3401107547    1.9914510056   -0.7366676723
 H   -0.5556522793    1.7772629347    1.0114321424
 H   -2.0241632558    0.0507889628   -1.0585989557
 H   -1.6249925108   -1.5533688898   -0.4173877770
 H   -2.1278736747   -0.2542289001    0.6877631869
 H    0.3387257343   -0.2061347766   -2.1630982689
 H    1.7811501223   -0.1289506958   -1.1215789149
 H    1.2138395794   -3.5239505300   -0.0274308513
 H    2.5377641681   -2.3586436212   -0.1906096710