17

 C   -0.0629232470    1.4380501715    0.0621390198
 O    1.3919747212    1.4359974684   -0.1048277914
 C    1.3343049573    0.1566092842   -0.8066800344
 C    2.2008596552   -1.0572556690   -0.4443123781
 C    1.9123759830   -1.6787824497    0.9372359850
 C    0.6751467109   -2.2557481341    0.1852315046
 O    1.4160714096   -2.1299196066   -1.0650488021
 C   -0.4132276321   -1.1933441124    0.2900167960
 C   -0.0494010786   -0.0369936373   -0.2486971543
 H   -0.3699816497    1.7428417773    1.0679511452
 H   -0.5400089783    2.0878192196   -0.6839615801
 H    1.4018953792    0.3185453277   -1.8908302704
 H    3.2325782978   -1.0165841580   -0.8001070158
 H    2.6490956411   -2.4489556208    1.1723095338
 H    1.7430595141   -1.0219192970    1.7912193948
 H    0.3484454498   -3.2803431871    0.3699226078
 H   -1.2499747734   -1.3311672267    0.9673524997