23

 C    0.0664535537    1.4230814259    0.8540580028
 C   -0.1143974787    0.0548632031    0.1926631980
 C   -1.5691024812   -0.4091483605    0.0984231435
 C   -1.6842196728   -1.7635109876   -0.6026139894
 O   -2.0740526070   -0.4752408484    1.4452129834
 C   -3.4679946148   -0.5096568009    1.5428726630
 C   -4.0315163293   -0.0424002097    2.8613488271
 C   -4.1638278782    0.8278358478    1.6302296401
 O   -3.4067419660    1.9925725056    1.5039411885
 H    1.1139869123    1.7376082864    0.8263661394
 H   -0.5231352140    2.1938642075    0.3442270957
 H   -0.2386715956    1.3922619740    1.9042557452
 H    0.2955302584    0.0757726387   -0.8239585250
 H    0.4549050859   -0.7034466317    0.7445853644
 H   -2.1536273755    0.3418881500   -0.4543602084
 H   -2.7239230262   -2.0889567053   -0.6953974156
 H   -1.2674062725   -1.7034131184   -1.6129555599
 H   -1.1333811318   -2.5276170285   -0.0450017070
 H   -3.9530155174   -1.3415002058    1.0357929358
 H   -4.9040852871   -0.5468207330    3.2619970045
 H   -3.3060833956    0.2772407737    3.6024948700
 H   -5.1422796623    0.9512269195    1.1779682802
 H   -2.4872102043    1.7437988075    1.6610717534