17

 O   -0.0076312055    1.4228830838   -0.0629676869
 C   -0.0414893270    0.0357465573   -0.0532206215
 C    0.8103090681   -0.5013904330    1.0673923331
 O    1.4360920411    0.2318662098    1.7980325198
 C   -1.3919865656   -0.6817096303   -0.1185194654
 C   -1.7864150183   -0.7832740283   -1.5955556336
 C   -0.6840050090   -0.1095691903   -2.4095614779
 C    0.2986419923   -0.7391115336   -1.3877831598
 C   -0.8229713621   -1.7776643906   -1.0010957340
 H    0.6142955054    1.6779508379    0.6384834756
 H    0.8426193680   -1.6025821506    1.1766787066
 H   -2.1262462923   -0.7711731141    0.6716948783
 H   -2.8220604178   -0.9447646267   -1.8643746802
 H   -0.5744729765   -0.5781942347   -3.3912196899
 H   -0.6776958878    0.9798765786   -2.4991333637
 H    1.3325698451   -0.9539683357   -1.6494257559
 H   -0.8404051380   -2.8518001993   -0.9012376445