18

 C   -0.0728245007    1.4241327471   -0.5214143337
 C    0.1070381884   -0.0290571343   -0.0637106114
 C    1.0518009790   -0.1077625480    1.1227140514
 O    0.8775865919   -0.7779116876    2.1072964646
 N   -1.1948952278   -0.5915076385    0.2694760788
 C   -1.9097992210   -1.3549399411   -0.7249856009
 C   -1.3439696501   -2.0420810888    0.4862824543
 C   -0.1959985739   -2.9744372145    0.2928506927
 O    0.6030059458   -2.9060988752   -0.6137871284
 H    0.8969475769    1.8836582792   -0.7357743294
 H   -0.6727220835    1.4609632096   -1.4343270894
 H   -0.5825767126    2.0104883251    0.2478726167
 H    0.6229781885   -0.5920077873   -0.8615108471
 H    1.9738419714    0.5042478766    0.9956573980
 H   -2.9816673264   -1.1858324529   -0.7803225939
 H   -1.4109844401   -1.5714474436   -1.6682606668
 H   -1.9950361225   -2.2899806379    1.3199134494
 H   -0.1142053133   -3.7655455680    1.0671011153