23

 C    0.1802937436    1.4737507330    0.3581382935
 C    0.0425029764    0.0246183276   -0.1270832391
 C   -1.3859975150   -0.4792836788   -0.1276240998
 C   -2.0178659388   -0.9906593467    1.1568583931
 C   -1.7677881175   -1.9462741556    0.0154624749
 C   -2.9115732698   -2.2321775929   -0.9534726072
 C   -3.2346677439   -0.8717815242   -1.5513916424
 C   -4.3864441477   -0.6807159225   -2.4868140638
 C   -2.3797077080    0.0578464082   -1.1107040604
 H    1.2278850334    1.7910727997    0.3605122998
 H   -0.3724661276    2.1665214426   -0.2851365058
 H   -0.2094876637    1.5851647495    1.3752935589
 H    0.4605370435   -0.0645281456   -1.1384843725
 H    0.6478440108   -0.6289815157    0.5133819947
 H   -1.3735093222   -1.0936841873    2.0255421604
 H   -3.0372927379   -0.6945303131    1.3841907105
 H   -0.9991908871   -2.6988323743    0.1534141627
 H   -2.6122116203   -2.9438612314   -1.7362853147
 H   -3.7847219626   -2.6774895459   -0.4568251369
 H   -5.3405479975   -0.9292040415   -2.0039406714
 H   -4.4492025335    0.3508948049   -2.8442354264
 H   -4.3021800524   -1.3401830782   -3.3606586555
 H   -2.4066228722    1.1033978484   -1.4009891329