18

 C    0.1082818794    1.5625483575   -0.1019826000
 C    0.0119562223    0.0504283067    0.0336068683
 O    0.4809819147   -0.5122702945   -1.2094901064
 C    0.8694307251   -1.8130143054   -1.2083460134
 N    1.2431009015   -2.5247719911   -0.2314617811
 C    1.3199954686   -1.8927842694    1.0499344485
 C    2.2468620990   -0.6892747603    1.2171095299
 C    0.7533035781   -0.5180289525    1.2359848552
 O    0.1175571315   -0.2578532358    2.4554596647
 H    1.1512084490    1.8758001048   -0.2073174282
 H   -0.4476661191    1.9029994843   -0.9791772352
 H   -0.3191718804    2.0453892797    0.7818148584
 H   -1.0396257136   -0.2446209781    0.1538663916
 H    0.8575109223   -2.2120708595   -2.2202531002
 H    1.2575744368   -2.5739966523    1.8909850002
 H    2.7643426867   -0.5942446922    2.1654494332
 H    2.8090162792   -0.3712163787    0.3454384335
 H    0.4077811488    0.6054791967    2.7695229410