16

 N    0.5423351356   -0.2531588910    0.6665653142
 C   -0.1516166521    0.1356236175   -0.4313347377
 O    0.3329605706    0.6954661487   -1.3955948755
 C   -1.6640908498   -0.1628514712   -0.3534647487
 C   -2.2122833646   -0.6963827014   -1.6771743490
 C   -2.2909749163   -2.2041636648   -1.4418849539
 O   -2.5353395242   -3.0603704307   -2.2468878295
 C   -1.9905938090   -2.4292485130    0.0440161327
 O   -1.9764536312   -1.1457774110    0.6497463355
 H    1.5220606064   -0.0331333247    0.7316307608
 H    0.0590807517   -0.6792344396    1.4391882934
 H   -2.1506159076    0.7656115177   -0.0397761112
 H   -3.2191311248   -0.3221233034   -1.8872868565
 H   -1.5708444063   -0.4508895467   -2.5250028638
 H   -2.7547105500   -3.0488835213    0.5211910466
 H   -1.0188512682   -2.9392504852    0.1369821826