19

 C    0.1119110187    1.5850515933   -0.3149061762
 C   -0.0115596142    0.0913944309   -0.1195948106
 C    1.1909527258   -0.8015614229   -0.1659982104
 C    0.4812619895   -0.5812502409    1.1621539091
 N    1.1568756840    0.2165259324    2.1120788888
 C    0.9540931553    0.0574411049    3.3683798186
 N    0.1497611153   -0.8403731350    4.0302062495
 C    1.7372057760    0.9561729600    4.2684343222
 O    1.6137205918    0.9582243002    5.4714352112
 H    1.0271053809    1.9643061063    0.1437289872
 H    0.1294163048    1.8336298353   -1.3816812735
 H   -0.7330562340    2.1150817966    0.1382985126
 H   -0.9301242306   -0.3411801440   -0.5086779218
 H    1.1127312338   -1.7813912295   -0.6237770850
 H    2.1622162640   -0.3279207251   -0.2556174425
 H   -0.1188163543   -1.4200220160    1.5154117894
 H   -0.6772012062   -1.1826318872    3.5702184840
 H    0.0478493045   -0.6356871264    5.0150170813
 H    2.4329217451    1.6210541672    3.7236965260