19

 C   -0.0230702173    1.5193857787   -0.0496416710
 C    1.3955747879    2.1123848114    0.0116585605
 C    2.0982003011    1.7962321169    1.3480380345
 C    1.9039161862    0.3501056514    1.7011615965
 C    0.9450329734   -0.4417587088    1.0993908968
 C   -0.0060235123   -0.0221378154    0.0246433656
 N    1.0547608398   -1.6694303277    1.6669031995
 N    2.0250409936   -1.7365022967    2.6048508241
 C    2.5392900043   -0.5097938178    2.6265501982
 H   -0.6134506785    1.9116757070    0.7880778892
 H   -0.5280236860    1.8362905461   -0.9679676081
 H    1.9903427127    1.7019184218   -0.8148861840
 H    1.3535278642    3.1962698101   -0.1394339280
 H    3.1633845830    2.0462230192    1.2792077428
 H    1.6876684582    2.4419068440    2.1374777181
 H   -1.0163610043   -0.4063526380    0.2119701290
 H    0.3062071994   -0.4365854996   -0.9445733041
 H    0.5136683560   -2.4938966325    1.4689528946
 H    3.3503018687   -0.2863751901    3.3054233257