16

 C    0.0137800399   -1.1653028058    0.0429322468
 C    0.0248187201    0.0367810828    0.0044988501
 C    0.0600604255    1.4671900321   -0.0675893140
 C   -0.4387994984    2.2771583909   -1.2859243022
 C    0.3853985117    3.4225670434   -0.6581764714
 C   -0.1896529730    3.6154571687    0.7587684693
 C    0.8753175262    2.8321745137    1.4274267637
 C    1.3457209695    2.3706724786    0.0291092911
 N   -0.4571747414    2.1990166633    1.1864855116
 H   -0.0040271684   -2.2261883245    0.0833101744
 H    0.0124997456    1.9020492902   -2.2087453496
 H   -1.5178148391    2.4007659626   -1.4076731329
 H    0.7363648910    4.2877566047   -1.2156804005
 H   -0.8521855749    4.3835140689    1.1371639049
 H    1.3351507590    2.8920027768    2.4058431044
 H    2.3360464068    2.1016363137   -0.3261889755