20

 C    0.0019271893    1.5149090558    0.0736276211
 C   -0.0293249720    0.0163834391   -0.0427590366
 C   -0.0803664939   -0.6245441962   -1.2122629249
 C   -0.0770306554   -2.1253797596   -1.3414959641
 C    0.4361498069   -2.7781460061   -0.0527657270
 N   -0.1780541656   -2.1623054236    1.1088310955
 C    0.0015731769   -0.7277508594    1.2713902285
 C   -0.9310420676   -2.8610679583    2.0006856075
 O   -1.4785524328   -2.3942614007    2.9788268719
 H    0.8930672294    1.8522648125    0.6187178574
 H    0.0054798989    1.9920498083   -0.9095172294
 H   -0.8647030499    1.8885142637    0.6335972541
 H   -0.1273042780   -0.0479706310   -2.1332356651
 H   -1.0881370409   -2.4913640067   -1.5694846932
 H    0.5555396156   -2.4333629421   -2.1831390786
 H    0.2188838510   -3.8499806924   -0.0333659543
 H    1.5276482466   -2.6617687918    0.0050489969
 H    0.9496886297   -0.5151969882    1.7938204431
 H   -0.7944904317   -0.3805655959    1.9378625617
 H   -0.9942234267   -3.9341665374    1.7299000054