15

 N   -0.4094700037   -1.0344709802   -0.7776241717
 C   -0.2472647617    0.0434647619   -0.3934467685
 C   -0.0199619417    1.4130889144    0.0756171041
 O   -0.0558868083    1.5401737088    1.5115488235
 C    1.2453573981    2.1820444769    1.5371733646
 C    2.3942320750    1.1944338998    1.8277770431
 C    2.5509578986    0.9448310613    0.2922507079
 C    1.4233488039    1.9724639384    0.0058413156
 H   -0.7642693032    2.0690319471   -0.3942393762
 H    1.2105614984    3.1438554213    2.0528469890
 H    3.2684481751    1.6645297139    2.2852553553
 H    2.0913002665    0.3384187669    2.4334785868
 H    3.5175965663    1.2628727212   -0.1024384618
 H    2.3550499396   -0.0712457875   -0.0571131438
 H    1.6025601973    2.7592672157   -0.7241200780