18

 C   -0.0371633931    1.6052139585   -0.0224505364
 C    0.0952981915    0.0885232509   -0.0188804048
 C    0.7152509280   -0.6541599906   -1.1980008472
 C    2.2649501702   -0.7639972942   -1.1009124286
 C    3.0012119125    0.1462069810   -0.1781338861
 C    2.3974257240    0.1509722965    1.0158430465
 C    1.1343161323   -0.6712734089    0.9297166130
 C    1.3734482123   -1.6463455545   -0.2711830584
 H    0.9214266583    2.0953368118   -0.2080768235
 H   -0.7331891160    1.9206608650   -0.8082954239
 H   -0.4299975576    1.9729818280    0.9326776580
 H   -0.8819932897   -0.3667591714    0.1741400195
 H    0.2373055066   -0.8291653974   -2.1555634885
 H    2.7402412179   -1.1687253044   -1.9872706954
 H    3.8656512699    0.7297860507   -0.4704189868
 H    2.6565433873    0.7710471880    1.8652931784
 H    0.7284208743   -1.0526494955    1.8657476185
 H    1.3681000114   -2.7296729936   -0.2678208543