21

 C    0.8405368376    1.3751501395    0.0698072514
 C    0.0921768906    0.0779314311   -0.0753998470
 C   -0.1349553878   -0.4853066831   -1.2627702254
 C   -0.8583802667   -1.7924767497   -1.4991627284
 C   -0.3891913095   -2.9891614406   -0.6995900692
 C    0.1550837794   -3.0281933923    0.5168341648
 C    0.4074243476   -1.8940806318    1.4760114739
 C   -0.3829796131   -0.6050832561    1.1943266125
 O   -0.2523335212    0.3152502664    2.2727838764
 H    1.7291274155    1.2553335597    0.7002924525
 H    1.1555952301    1.7501624944   -0.9073474617
 H    0.2235584935    2.1348638624    0.5597935474
 H    0.2252073470    0.0249236445   -2.1528265882
 H   -1.9418440598   -1.6583462046   -1.3367746240
 H   -0.7727336350   -2.0487262283   -2.5606657495
 H   -0.5267489338   -3.9420980423   -1.2077468449
 H    0.4418410626   -4.0064140932    0.8990656538
 H    0.1406953360   -2.2421644677    2.4862337231
 H    1.4785272734   -1.6524272050    1.5238461461
 H   -1.4432867631   -0.8837666456    1.0706881739
 H   -0.5490301634   -0.1287913178    3.0728969027