16

 C   -0.0555492831    1.4666042145   -0.0314395766
 C   -0.0156867805   -0.0245990893    0.0266445441
 N   -0.0052459608   -0.7585891284   -1.0689454951
 N    0.0210479340   -2.0457584644   -0.6348155906
 C    0.0361750793   -3.1312608122   -1.5089830970
 O    0.0343991807   -3.0637046965   -2.7057948722
 C    0.0354492101   -2.1257598810    0.7488402278
 C    0.0114325586   -0.8397774381    1.2118341031
 N   -0.0660879077   -0.3613165232    2.5209475855
 H    0.8349844461    1.9117537398    0.4301292970
 H   -0.1013089935    1.7957779444   -1.0707650227
 H   -0.9286082176    1.8592158068    0.5022015308
 H    0.0508293026   -4.0786475116   -0.9370525014
 H    0.0565186548   -3.0767016950    1.2562282394
 H    0.2409480334   -1.0247097696    3.2191032929
 H    0.4105231535    0.5209470536    2.6527877351