17

 C   -0.2760356553    1.5155828495   -0.2032414884
 C    0.1165732845    0.0406818755   -0.0043815591
 C    0.8934940645   -0.5189277028   -1.1452308558
 C    2.1668697905   -1.0130067005   -1.2584165358
 C    2.3306555037   -1.3890484544   -2.6177347809
 C    1.1470239685   -1.0992833573   -3.2473399545
 O    0.2687624070   -0.5669769235   -2.3450940030
 C    0.7396244093   -1.2721400733   -4.6284034307
 O   -0.3413252044   -0.9824359884   -5.0923900615
 H    0.6118288903    2.1475381661   -0.2991651090
 H   -0.8778195862    1.6366697273   -1.1074973120
 H   -0.8606734905    1.8725439825    0.6491552642
 H    0.7183568628   -0.0751979489    0.9022078200
 H   -0.7908991624   -0.5595949194    0.1379722202
 H    2.8883031758   -1.0944164822   -0.4605739234
 H    3.2047665480   -1.8195956503   -3.0824410133
 H    1.5479303438   -1.7155704200   -5.2515072969