21

 C    0.1105035115    1.5423425222   -0.0479798451
 C    0.0574913853    0.0179064684    0.0052147402
 O    0.7133659177   -0.4649420122   -1.1627958339
 C    0.9180098586   -1.8693234877   -1.1261219397
 C    1.9673851408   -2.2135078664   -0.0617507262
 C    2.1241048428   -3.7211954324    0.1043906950
 O    3.2475024890   -1.7233479040   -0.4797546192
 C    1.5607772214   -1.5395054296    1.2339489445
 C    0.6844001540   -0.5378291729    1.2599093577
 H    1.1464636342    1.8898472352    0.0038748514
 H   -0.3309188716    1.8996488435   -0.9819512035
 H   -0.4446171001    1.9747043778    0.7896174569
 H   -1.0033900450   -0.2974676724   -0.0305570358
 H   -0.0293130089   -2.3960247847   -0.9279378312
 H    1.2843033264   -2.1580596653   -2.1152270706
 H    2.4117206773   -4.1789504582   -0.8468814532
 H    2.9100899966   -3.9349034056    0.8344198928
 H    1.1927212998   -4.1783121174    0.4509656879
 H    3.1159142366   -0.7881210875   -0.6791220736
 H    2.0353883478   -1.8939571868    2.1455502166
 H    0.3916902658   -0.0685774141    2.1963160691