18

 C   -0.0393022245    1.4874937694    0.0061000881
 C    0.0445825989   -0.0134893674   -0.0731489948
 C    0.7312360598   -0.7245289953   -1.2030771339
 N    1.3792803590   -0.6248797610    0.1072260953
 C    1.3147874213   -1.9605359203    0.6817584511
 O    1.6466584285   -2.2139143257    1.8102991963
 C    0.7632270291   -2.8655506352   -0.3528967526
 C    0.4019879338   -2.1607376961   -1.4386599347
 C   -0.2074809600   -2.6462273176   -2.7114791147
 H    0.8238159926    1.9510338515   -0.4780015370
 H   -0.9531985383    1.8487529848   -0.4773167379
 H   -0.0563134354    1.8112154138    1.0516063664
 H   -0.7844083770   -0.5582381878    0.3778801105
 H    1.1600654160   -0.1364365019   -2.0113184693
 H    0.6222453967   -3.9242731321   -0.1810137828
 H   -0.3637606819   -3.7269670966   -2.6994020617
 H   -1.1711952011   -2.1559512393   -2.8945511386
 H    0.4345116623   -2.4006287532   -3.5662351995