20

 C   -0.0170626268    1.6013125516   -0.0964309314
 C    1.5342874896    1.5165950965    0.0900127830
 C    1.2526980871    0.0407550885    0.5074358945
 N   -0.1705262651    0.1055347421    0.0467189160
 C   -0.4339986792   -0.6587685813   -1.2128670068
 C    0.3378844842    0.0502967139   -2.2896032168
 C    1.6753763353    0.0523945408   -2.3427184456
 C    2.3542482202    1.3844402133   -2.3134059339
 O    2.4772240088    1.8184838777   -0.9320503279
 H   -0.4839712727    2.0947837382    0.7630353261
 H   -0.4076640763    2.0607131722   -1.0032344700
 H    1.8954688223    2.1357466321    0.9156766073
 H    1.8717510258   -0.7309779749    0.0491546697
 H    1.2861754487   -0.0946630273    1.5949641507
 H   -0.1048829101   -1.6875282521   -1.0398800458
 H   -1.5123856893   -0.6712333856   -1.3962409450
 H   -0.1622802419    0.9322395084   -2.6879402971
 H    2.2505065565   -0.7985225284   -1.9850266889
 H    3.3848500510    1.3929783107   -2.6800758147
 H    1.7750575419    2.1244344337   -2.8828803134