21

 C    0.1793941040    1.5770723745    0.0973436702
 C   -0.0016757368    0.0947755649    0.0070040971
 C    0.1170686892   -0.6654648993   -1.0868939717
 C   -0.1079628603   -2.1233858888   -0.8181023353
 C    1.1580450111   -2.9515589475   -0.4949548689
 O    0.9450838070   -2.8007883687    0.9222724663
 C   -0.3601370802   -2.1827529119    0.7204054567
 C   -1.4724181280   -3.0632650722    1.2557498132
 C   -0.3724812626   -0.7271408337    1.2249806128
 H    0.9835027780    1.8345355306    0.7984227287
 H    0.4214908629    2.0162633199   -0.8742893452
 H   -0.7285852955    2.0641585003    0.4760917968
 H    0.3747038729   -0.2852317844   -2.0706514927
 H   -0.8324116336   -2.6025286724   -1.4824915694
 H    1.1101350023   -4.0046544465   -0.8047629249
 H    2.1148858669   -2.5247282256   -0.8172274409
 H   -1.3987159297   -3.1483126034    2.3453133094
 H   -2.4534573602   -2.6418629373    1.0114974243
 H   -1.4121120719   -4.0705305254    0.8328986119
 H    0.3527853361   -0.6167272087    2.0409542978
 H   -1.3503878115   -0.4277809642    1.6285098837