10

 C   -0.0179958919    1.5531723180    0.0086499719
 C   -0.0178232076    0.0045026121    0.0370554034
 C    0.7191070446   -0.5078408275    1.2017970364
 N    1.3255175262   -0.8818403375    2.1099643431
 C   -1.3874846310   -0.5298989951    0.0120238197
 N   -2.4722577852   -0.9216087541   -0.0349652372
 H    1.0109031161    1.9174818570   -0.0092309638
 H   -0.5395764867    1.9012478009   -0.8849223099
 H   -0.5208384233    1.9511225903    0.8915946672
 H    0.4930078690   -0.3674177940   -0.8605182608