18

 C   -0.0840071748    1.4386486038    0.0227540366
 N    1.2910819872    1.9406829826    0.1739634854
 C    2.0785218755    1.0004595262   -0.1999160803
 N    3.3749805444    0.8259512273    0.2894441546
 C    3.2546701035   -0.3564655339    1.2215347861
 C    1.7878145935   -0.5865861728    1.6787123763
 N    0.9803078458   -0.9578756751    0.4875230678
 C    0.0410961168   -0.0622739289   -0.2536907355
 C    1.4324756971   -0.2553635635   -0.7164534328
 H   -0.6271959949    1.6750034309    0.9457175951
 H   -0.6342580650    1.9150874733   -0.8004721294
 H    3.6226093751    1.6539498261    0.8243196042
 H    3.6018516532   -1.2549282050    0.7009999619
 H    3.9147257422   -0.1901465556    2.0762128673
 H    1.7500732602   -1.4240597284    2.3824496902
 H    1.4087911417    0.3032463550    2.1961329678
 H   -0.7996327984   -0.6004900603   -0.6779712598
 H    1.7986728968   -0.8189334918   -1.5684513555