14

 C    0.0097958274    1.4134399670    0.0856472450
 O    0.0102147878   -0.0177657208    0.0109883147
 C    0.6149321987   -0.6741064625    0.9933906970
 C    0.7778197589   -2.0149010602    1.1705218480
 C    1.5047531017   -2.0775936300    2.3930505146
 N    1.9999199056   -3.2181460998    3.0009872237
 N    1.7458700401   -0.8893540181    2.9127284358
 O    1.1705790855    0.0251214732    1.9852964052
 H    1.0311413308    1.8041518694    0.0812929812
 H   -0.5253809070    1.7501965088   -0.8018484585
 H   -0.5031208899    1.7566268214    0.9884202302
 H    0.4557052392   -2.8138052378    0.5264926277
 H    1.3883442281   -4.0191313683    2.9367542252
 H    2.3020410829   -3.0530103923    3.9521859501