20

 O    0.0877229427    1.1189111360   -0.5859213919
 C    0.0387327008   -0.1184699089    0.1060099340
 C   -1.4225015435   -0.6000504327    0.1157410301
 C   -1.5576941455   -2.0287503077    0.6633071257
 C   -2.9009194553   -2.6661632382    0.3740728903
 C   -3.1188521862   -3.3992529571   -0.8984513994
 N   -3.0416039293   -4.1305363682    0.3809986980
 C   -2.2765971900    0.4070838629    0.8705618264
 O   -3.0087541578    0.1315230122    1.7890347394
 H    0.9715961013    1.4864605250   -0.4947409032
 H    0.6599692923   -0.8796944175   -0.3904066283
 H    0.4052983914   -0.0182190779    1.1399726081
 H   -1.7568026680   -0.5643584306   -0.9321834672
 H   -0.7691857026   -2.6531183865    0.2214238871
 H   -1.3891702366   -2.0136904284    1.7468090915
 H   -3.7456521902   -2.1546289701    0.8252613721
 H   -4.0964029189   -3.4065156763   -1.3721884244
 H   -2.2831068689   -3.4745349520   -1.5910983355
 H   -2.1239929263   -4.5628955323    0.4688802772
 H   -2.1650027394    1.4526816381    0.5183806800