21

 C   -0.1621515046    1.5505874452   -0.0210632590
 C    0.0275984975    0.0170530168    0.0157153467
 C    0.8009842043   -0.3812883008    1.2933422812
 C   -1.3531104942   -0.6784519465    0.0051887780
 C    0.7871461178   -0.4050876936   -1.1672544923
 C    1.4079745498   -0.7621466718   -2.1370972470
 C    2.1428684167   -1.1536577577   -3.3090510030
 C    3.0627080255   -2.3087848931   -3.3066414639
 O    1.7911986926   -2.4016324575   -3.9343841400
 H    0.8030577345    2.0649562111   -0.0181668038
 H   -0.7078490642    1.8557464104   -0.9182595999
 H   -0.7296940058    1.8788940662    0.8562457898
 H    0.2416746424   -0.0718835410    2.1828098442
 H    0.9485766682   -1.4639237538    1.3391067674
 H    1.7838290844    0.0976717749    1.3212525829
 H   -1.9187187463   -0.4112132544   -0.8916342608
 H   -1.2432498619   -1.7662152081    0.0255809117
 H   -1.9323205612   -0.3731228844    0.8832542630
 H    2.3464424228   -0.3551945326   -4.0222764656
 H    3.9229784042   -2.3046671365   -3.9753234111
 H    3.1786570073   -2.8850392129   -2.3906327985