23

 C   -0.1591463535    1.5149368999    0.6195063369
 C   -0.1232164300    0.0150409052    0.4332100325
 C    0.9846958933   -0.6370821226   -0.3615928841
 C    0.9091932625   -0.8435756791    1.1220496836
 C    1.8810151475   -0.4164428285    2.2311750427
 C    1.2860807699   -1.5368282832    3.1429191675
 C    0.3262093374   -1.0324344355    4.2158109845
 C    0.5859414618   -2.1416547265    1.8769497672
 O   -0.7473399910   -2.5844230412    1.9570198371
 H    0.8509347620    1.9282893944    0.7042756606
 H   -0.6454801821    2.0045477595   -0.2313306258
 H   -0.7092525871    1.7989545547    1.5245240262
 H   -1.0997743034   -0.4534090106    0.3237339329
 H    0.7362683128   -1.4744874386   -1.0069123821
 H    1.7738961531    0.0045425607   -0.7443016161
 H    2.9308071640   -0.5820787376    1.9718462460
 H    1.7769317768    0.6045129298    2.6110994910
 H    2.0271224251   -2.1999598502    3.5983877825
 H   -0.3904339071   -0.3053835611    3.8128723310
 H   -0.2429037195   -1.8567964452    4.6573513511
 H    0.8731353244   -0.5285366486    5.0191824855
 H    1.1465979462   -2.9945032252    1.4804830438
 H   -1.2836567832   -1.8484882205    2.2706234556