17

 N   -0.0687219851   -1.1107393716    0.1368465079
 C   -0.0109118797    0.0407822636    0.2127228076
 C    0.0880407975    1.4958417603    0.2956048409
 C    1.3862038124    2.0298252679   -0.3663729215
 C    1.4825350364    3.4801092717   -0.2784237760
 C    1.5294297480    4.6817473562   -0.1887345323
 C    1.6162191619    6.1129298951   -0.1148575559
 C    1.5764251501    6.7949271875    1.2150692230
 N    2.8265376708    6.7577298317    0.4533097013
 H   -0.7855764787    1.9423079726   -0.1894870084
 H    0.0571392138    1.7969213287    1.3474305693
 H    2.2516540616    1.5620028779    0.1168376073
 H    1.4101522005    1.7102298594   -1.4144670758
 H    1.2146952210    6.6474981714   -0.9719186213
 H    1.1128667301    7.7743557866    1.2905568276
 H    1.4738813981    6.1663124975    2.0945805968
 H    3.4366598114    6.0355467736    0.8290878494