17

 C    0.1694443541    1.2295711006    0.6372039648
 C   -0.0344735708   -0.0992026818   -0.0613496638
 C   -1.3977400330   -0.6248388867   -0.3030824170
 N   -0.5741529809   -0.1496752267   -1.4330718485
 C    1.4633649295    1.8947560763    0.2613775709
 N    2.2102809784    2.4478493202    1.1888353519
 O    3.3131426562    2.9787568198    0.5258512320
 C    3.1948317445    2.7198304517   -0.7834893718
 C    2.0508013482    2.0368430852   -1.0325286748
 H   -0.6699789629    1.8942905986    0.3892696340
 H    0.1561503494    1.0995746756    1.7243688097
 H    0.7652231654   -0.8188221038    0.1024183111
 H   -1.5813506000   -1.6950035412   -0.2879216370
 H   -2.2412806390   -0.0172825339    0.0156329730
 H   -0.8937824229    0.7773543370   -1.7074722880
 H    3.9987750791    3.0783932266   -1.4077568040
 H    1.6833926647    1.6677674626   -1.9750891025