18

 O    0.0518294807    0.1044327532    0.5870704591
 C   -0.0135199637    1.1810692806    0.0609039659
 C   -1.3434774904    1.9029341892   -0.1753813846
 N   -1.3364599141    3.0577577231   -1.0673432626
 C   -0.1387773247    3.8610582103   -0.8289455118
 C    1.1151941393    3.0447502491   -1.0199886900
 C    1.8047886865    2.9694317356   -2.3564955589
 C    2.4662417372    3.6604081536   -1.1770322003
 O    1.1323042220    1.8269761311   -0.2760895230
 H   -2.0594995581    1.1554843610   -0.5235300716
 H   -1.6877842160    2.2180455976    0.8197840734
 H   -1.3265563045    2.7363271113   -2.0312033134
 H   -0.1284675771    4.7223868236   -1.5031924916
 H   -0.1857508672    4.2475689342    0.1978577954
 H    2.2022721870    2.0049206934   -2.6495948999
 H    1.4254145116    3.5779560336   -3.1711135652
 H    2.5394526508    4.7426768339   -1.1784612988
 H    3.2921836007    3.1455876156   -0.7002110122