27

 C   -0.0421891110    1.3755322051   -0.6622332799
 C   -0.0923928618   -0.1468913201   -0.4940543285
 C   -1.3773907324   -0.6219728715    0.1871590648
 C   -2.6575192841   -0.5822771495   -0.7016878198
 C   -2.6687533172   -2.1395140130   -0.7740785531
 C   -2.2942852290   -2.7344385446   -2.1330530792
 C   -3.4120966061   -2.5846033730   -3.1706584136
 C   -1.5787879191   -2.1678430456    0.3522958111
 C   -0.3880515960   -3.1137338260    0.2459305314
 H    0.8810305771    1.6919616275   -1.1578927001
 H   -0.8827449995    1.7397749100   -1.2628038152
 H   -0.0895077967    1.8796572821    0.3096128214
 H    0.0132744618   -0.6232950733   -1.4770545084
 H    0.7736548205   -0.4735458761    0.0958970117
 H   -1.4803980545   -0.0761748540    1.1322977097
 H   -3.5295665773   -0.1611682883   -0.1949670735
 H   -2.5473721647   -0.0675522973   -1.6622777445
 H   -3.6180232339   -2.5881998120   -0.4588632176
 H   -1.3805298430   -2.2612260833   -2.5145456688
 H   -2.0560466641   -3.7988569691   -2.0104141687
 H   -4.3238060139   -3.0962517444   -2.8422257729
 H   -3.6669239578   -1.5320514649   -3.3352469683
 H   -3.1199579311   -3.0097911360   -4.1360654921
 H   -2.0746469152   -2.3535617387    1.3116520902
 H    0.1643946106   -2.9910705502   -0.6899006718
 H    0.3163951076   -2.9479229678    1.0688179821
 H   -0.7137913993   -4.1585462258    0.3019905335