25

 C   -0.0619209802    1.5221984171   -0.0132346807
 C   -0.0216852990    0.0060248440    0.0804246403
 O   -1.3372534353   -0.4893485028   -0.0452445786
 C   -1.4161364045   -1.8959115647    0.0347823047
 C   -2.8740639984   -2.3158307108   -0.1055658824
 C   -3.0696670954   -3.8227039936   -0.0147589321
 C   -2.8691389025   -4.5437219277    1.3522277418
 C   -4.0877078196   -5.4435720970    1.0134916685
 C   -4.5155379507   -4.3940757311   -0.0475552266
 H    0.9456375946    1.9383260595    0.0810195883
 H   -0.4793274551    1.8360717784   -0.9742639665
 H   -0.6861234601    1.9387808314    0.7824748333
 H    0.6216098833   -0.4131727337   -0.7127621158
 H    0.4148412672   -0.3099744209    1.0438797302
 H   -0.8061750465   -2.3604500026   -0.7605631737
 H   -1.0050285971   -2.2480700846    0.9971792229
 H   -3.4592663182   -1.8169197328    0.6773640123
 H   -3.2538222193   -1.9441816395   -1.0657073752
 H   -2.4638401168   -4.3225086952   -0.7813929949
 H   -1.9093115966   -5.0306717563    1.5426387224
 H   -3.0873198378   -3.8695308497    2.1877958421
 H   -3.7791339611   -6.3852711240    0.5501004949
 H   -4.7916908638   -5.6696978776    1.8177040237
 H   -5.2318928070   -3.6751328356    0.3640442316
 H   -4.9000731100   -4.7557860605   -1.0046488904