21

 C   -0.1316532864    1.5705924175   -0.0177276301
 C   -0.0498541559    0.0424353689   -0.0551696326
 C    0.7740340817   -0.4845186332   -1.2374751694
 C    0.8384070988   -2.0074858896   -1.2694298184
 C   -0.4421642772   -2.7818120127   -1.6624465585
 O    0.2445045062   -3.4874389039   -2.7166368861
 C    1.4442610416   -2.7416088393   -2.5140602857
 C    1.8266132820   -1.8532752225   -3.6788735812
 O    1.1468934864   -1.6547751181   -4.6500974517
 H    0.8645371983    2.0185199623    0.0681681499
 H   -0.5930022094    1.9642032608   -0.9299374953
 H   -0.7266757738    1.9163059248    0.8329482278
 H    0.3865542043   -0.3271663907    0.8821919726
 H   -1.0635387009   -0.3765535086   -0.1037808393
 H    0.3430205905   -0.1141490362   -2.1769013716
 H    1.7906081164   -0.0725002659   -1.1795954029
 H    1.2788644071   -2.3829523659   -0.3417512104
 H   -0.8522963643   -3.4663440239   -0.9119263375
 H   -1.2509183303   -2.1532536771   -2.0576060516
 H    2.3061414673   -3.3876531480   -2.2854703181
 H    2.8261936875   -1.3709630586   -3.5537090697