16

 N    0.0199139205   -0.7394548873   -1.1115991628
 C   -0.0113640562    0.2812463159   -0.5713813871
 C   -0.0391931475    1.5678552751    0.1236851351
 C    1.3621102348    2.1048345271    0.3675882389
 O    1.9630942960    2.8567184953   -0.6876217428
 C    1.6669244880    3.5385392112    0.5278935000
 C    0.6745799283    4.6620271519    0.4789125374
 C    0.4781540218    5.4428929682   -0.7515898269
 O   -0.5058706381    4.5053128715   -0.3034937076
 H   -0.6101950234    2.2951268119   -0.4566792256
 H   -0.5522810178    1.4322168239    1.0835047912
 H    2.0401673082    1.3940079768    0.8414491500
 H    2.5443878805    3.7892118358    1.1294209350
 H    0.5181424508    5.1544596980    1.4396267968
 H    0.1852645990    6.4886329218   -0.6875422339
 H    1.0193003652    5.1444638429   -1.6459936078