17

 C   -0.0704036754    1.5670608934    0.0099821820
 C    1.4472495954    1.2716398254   -0.0053459995
 C    1.2197825285    0.1193130801    1.0271987133
 C    2.2181981755   -1.0060794003    0.7537372320
 C    2.2040710402   -0.9977252480   -0.8027733983
 C    1.2010212038    0.1304895624   -1.0459721241
 C    0.0437573796    0.0250961613    0.0006303475
 H   -0.4744046101    2.0262799226    0.9173669339
 H   -0.4907116395    2.0359976940   -0.8849402908
 H    2.2707113913    1.9896966376   -0.0089230585
 H    0.9927417100    0.3799038640    2.0633572096
 H    3.2082584655   -0.7904644365    1.1686868567
 H    1.8893600580   -1.9620070492    1.1743946839
 H    3.1864691756   -0.7776916321   -1.2333127610
 H    1.8674415565   -1.9490890347   -1.2276024574
 H    0.9552961841    0.4022199037   -2.0749819829
 H   -0.7664727946   -0.7078593195    0.0040071536