21

 C    0.0623412868    1.5763629918    0.0855547827
 C   -0.1221352155    0.1010361159   -0.2574335956
 C   -1.4634891599   -0.4529389586    0.1826227543
 O   -2.3290616038    0.2287811638    0.6856332858
 C   -1.7051762247   -1.9556682103   -0.0120490440
 C   -1.6623096831   -2.6550850665    1.3415777557
 C   -2.9100112807   -2.2871460379   -0.9296290284
 C   -1.8471753644   -2.8692267605   -1.8800859476
 O   -0.7787230012   -2.5517265347   -0.9597299639
 H    1.0336939660    1.9359110428   -0.2650113463
 H   -0.7201127444    2.1843232066   -0.3756827609
 H    0.0025559464    1.7395202608    1.1650847809
 H   -0.0293152654   -0.0838749556   -1.3351495002
 H    0.6640176934   -0.5266251906    0.1835124587
 H   -2.4069668391   -2.2142023892    2.0101204748
 H   -1.8699725450   -3.7219393366    1.2206042609
 H   -0.6739841676   -2.5497303762    1.8013192073
 H   -3.6092102166   -3.0115976132   -0.5089940536
 H   -3.4651650961   -1.4220700765   -1.2924517101
 H   -1.9098125378   -3.9465449682   -2.0700813301
 H   -1.7285467570   -2.3477217069   -2.8375850002