21

 C    0.2184668135    1.7243824283    0.0384949283
 C    0.1247109922    0.2061576554    0.0179368812
 C    0.9748559761   -0.6797554738   -0.9275011357
 C    2.3295471445   -0.1422532453   -1.3715534909
 C    3.2745212242    0.3167390077   -0.2922453317
 C    3.1227455121    0.3081502588    1.0333868214
 C    1.9589564205   -0.1632229425    1.8652276119
 C    0.7404708751   -0.6930172092    1.1196477357
 O    1.1170680607   -1.6728390686    0.1193831081
 H    1.2443111108    2.0785370194    0.1583244333
 H   -0.1800535947    2.1462819828   -0.8909878955
 H   -0.3805808151    2.1349756229    0.8590493545
 H   -0.9232398072   -0.0860824704   -0.1039384189
 H    0.4442935902   -1.0928973150   -1.7936433242
 H    2.8322985763   -0.9285057861   -1.9538448491
 H    2.1638980821    0.6792934818   -2.0855296306
 H    4.2209586774    0.6943245350   -0.6770877143
 H    3.9571591863    0.6793965485    1.6269761380
 H    2.3182418579   -0.9575931235    2.5359771667
 H    1.6350215480    0.6493680916    2.5337355869
 H    0.0284819492   -1.1164246679    1.8381063149