23

 C    0.0749592308    1.5217304649    0.2752717775
 C   -0.0473352766    0.0553605180   -0.1755342394
 C   -1.4538703578   -0.4678456836   -0.1469238072
 C   -2.1583284295   -0.9405442122   -1.1830466178
 C   -3.5003869301   -1.4485565070   -0.7868255951
 C   -3.5517850909   -2.6344257963    0.1715463170
 C   -2.4188096528   -3.6120502871    0.3825555374
 C   -3.5740361155   -1.2272858075    0.7207517945
 C   -2.2641608150   -0.5576634857    1.1393311196
 H    1.1152771965    1.8579544652    0.2265810981
 H   -0.5244866912    2.1780173901   -0.3636889551
 H   -0.2686772399    1.6547200828    1.3059335942
 H    0.3558305744   -0.0501350473   -1.1891857559
 H    0.5883933951   -0.5632632708    0.4744126310
 H   -1.7914395574   -0.9863632231   -2.2035124570
 H   -4.3503297962   -1.2830537804   -1.4411772950
 H   -4.5319463138   -3.1069429035    0.1982011295
 H   -1.4415776499   -3.1421623036    0.2499963887
 H   -2.4542143594   -4.0377168854    1.3921443551
 H   -2.4847987407   -4.4428537541   -0.3288101919
 H   -4.4913277086   -0.8855878616    1.1866930451
 H   -1.7258345927   -1.1250921293    1.9120790404
 H   -2.4499435989    0.4352689875    1.5692352264