15

 N    0.0101960933    1.3578805863    0.1452592598
 C   -0.0235492205   -0.0261273826    0.0250964618
 N   -1.1160226575   -0.7628809331   -0.0067620063
 C   -0.6610010200   -2.0569954611   -0.0303151370
 O   -1.4830100403   -3.1418612175   -0.0787087351
 C   -2.8261637641   -2.9588040377    0.0133577474
 N   -3.5744553175   -3.9733930508   -0.0449824643
 C    0.6997739319   -2.1247143619   -0.0272849104
 N    1.1004366279   -0.7855162586    0.0049732706
 H    0.6297117082    1.8138245836   -0.5135582986
 H   -0.9248788507    1.7356452730    0.0628663944
 H   -3.1101019196   -1.9122144322    0.1310593973
 H   -4.5459575925   -3.6801577606    0.0404432706
 H    1.3936422215   -2.9441486600   -0.0655654866
 H    2.0421562297   -0.4540302167    0.1223477764