15

 C   -0.1180499792    1.5556043189   -0.0881572795
 C    0.0051513226    0.0526520121   -0.0228028328
 C    1.3308241348   -0.6247694227   -0.2284082034
 O    2.4683871046    0.1467131540   -0.4374466779
 C    0.6926809408   -0.6455229379    1.1612796093
 C    1.3447955929    0.1063949156    2.1879292073
 C    1.9620350115    0.7287676416    3.0148931971
 H    0.8128293069    2.0394709206    0.2113071605
 H   -0.3443662370    1.8715941396   -1.1117393398
 H   -0.9197432343    1.9160047444    0.5640192565
 H   -0.8556409649   -0.4962919175   -0.3957692863
 H    1.3501850664   -1.5697176206   -0.7674045057
 H    2.8985642395    0.2889662122    0.4158278869
 H    0.2603516899   -1.5874974319    1.4846410386
 H    2.4647760655    1.2828134515    3.7685652693