18

 C   -0.1797405957    1.5417449644   -0.3175776841
 C   -0.0345121120    0.0746783640   -0.0451929854
 C    0.2335844717   -0.9091779002   -0.9713764493
 N    0.2745596864   -2.1170166761   -0.3210367997
 C    0.0356722917   -1.9308009119    1.0204709899
 C    0.0391594572   -3.0915082733    1.9702728942
 C    1.4169008105   -3.7326075955    1.9286245336
 O    1.6840550141   -4.7028790327    1.2643722338
 C   -0.1524490694   -0.5803514081    1.2173621903
 H    0.5442497224    2.1347783350    0.2534680556
 H   -0.0236297964    1.7631257532   -1.3774723918
 H   -1.1767525716    1.9095457312   -0.0476643469
 H    0.3946663013   -0.8435812332   -2.0360054456
 H    0.4896455427   -3.0057453405   -0.7410311871
 H   -0.1759978061   -2.7260408333    2.9785964419
 H   -0.7036431555   -3.8496760416    1.6969715820
 H    2.1987737133   -3.1961144474    2.5103397882
 H   -0.3675228645   -0.1111643940    2.1665708804