14

 O    0.1431105895    1.3178421375    0.3524623205
 C   -0.0227429542   -0.0380903626    0.0276155696
 C   -1.4893328829   -0.4384940785   -0.1716154366
 C   -1.4695215541   -1.3975678001   -1.3510383355
 N   -2.4220638975   -2.1652165753   -1.6756254932
 N   -0.2243552925   -1.2292662050   -1.9784111053
 C    0.6295803666   -0.3709018202   -1.3197451413
 O    1.6879646817    0.0556538604   -1.7164053383
 H    1.0187355379    1.5689384266    0.0274635361
 H    0.4520567012   -0.6898207181    0.7810302864
 H   -1.9634322819   -0.8945124744    0.6968643587
 H   -2.0618902775    0.4537403653   -0.4460273022
 H   -2.2075250949   -2.7169239304   -2.5081907069
 H    0.0135211786   -1.6411913653   -2.8696476719