18

 C   -0.2345328589    1.6157345688    0.0159438135
 C    0.0241769051    0.1124312157   -0.0022378961
 C    0.6802335600   -0.5625169832   -1.2303877896
 C    2.1266718394   -0.2435465431   -1.3670227593
 O    2.6249120614    1.0294326024   -1.0757242998
 C    1.7451471215   -1.2416652891   -0.2996928008
 C    1.1209546199   -0.5296890237    0.8478741967
 N    1.3900830570   -0.6233919826    2.0827975151
 O    0.5044026491    0.1640275481    2.8513255468
 H    0.6785567115    2.1722725505   -0.1954512267
 H   -0.9824002982    1.8790403916   -0.7401784368
 H   -0.6163586301    1.9173343480    0.9947868900
 H   -0.9047057088   -0.4218933342    0.2368145578
 H    0.1250748295   -1.0197094543   -2.0403858979
 H    2.5943256857   -0.7139826570   -2.2340108436
 H    3.4201672414    0.9233489802   -0.5428432285
 H    2.1327727771   -2.2526987460   -0.2863614923
 H    0.8130405372   -0.0051924620    3.7474818716