15

 O   -0.1737381890    1.4252322158    0.2334926528
 C   -0.0291910005    0.0343275610   -0.0202978945
 C   -1.3933898615   -0.5764733765    0.0345597800
 N   -1.6730870258   -1.8637062735    0.0978831919
 C   -3.0385990556   -1.9373358367    0.0936299750
 C   -3.6029966661   -0.6767103634    0.0317373690
 N   -2.5146450322    0.1823359883   -0.0115002414
 C   -4.9365377202   -0.2318798159    0.0165674779
 C   -6.0788856536    0.1524437588    0.0024161191
 H    0.6610711879    1.8585413745    0.0373667563
 H    0.4163255605   -0.1470389410   -1.0108208234
 H    0.6134975632   -0.4604119030    0.7213371814
 H   -3.5601141867   -2.8808485267    0.1388940354
 H   -2.5305120937    1.1890427132   -0.0292202833
 H   -7.0876084666    0.4830824350   -0.0085076862