23

 C   -0.0653123828    1.4740123513   -0.0136445914
 C   -0.1095141970   -0.0190379520    0.2647212677
 O   -1.2961881055   -0.5445601105   -0.3010751691
 C   -1.4188642698   -1.9368409181   -0.1734594026
 C   -1.9452848250   -2.4665400838    1.2048299442
 C   -3.3494381508   -1.9948913817    0.7236031062
 C   -2.8025623815   -2.4366856336   -0.6675283308
 C   -2.6551559235   -3.9584954085   -0.4905966239
 C   -1.9941217942   -3.9807439423    0.9327258290
 H    0.8452149845    1.9137997974    0.4042974995
 H   -0.0813710212    1.6633435130   -1.0907310448
 H   -0.9292542474    1.9737643190    0.4338423406
 H    0.7693938341   -0.5204894727   -0.1746843360
 H   -0.0792977080   -0.2102113918    1.3490697289
 H   -0.5248336848   -2.4363963035   -0.5816255933
 H   -1.5156966664   -2.1390506390    2.1522314336
 H   -4.2271510588   -2.5156338468    1.1181412362
 H   -3.4745775767   -0.9156269427    0.7952780681
 H   -3.2241627409   -2.0666505893   -1.6021377451
 H   -3.6210015295   -4.4703858833   -0.5142694981
 H   -2.0176408287   -4.4101282853   -1.2564797409
 H   -0.9992081841   -4.4367083421    0.9242295068
 H   -2.5990243220   -4.5144861139    1.6709879450