23

 C    0.4803533388    1.7076421298    0.1349171051
 C   -0.0012552161    0.2536384640    0.2185823931
 C    0.1395717856   -0.5058968839   -1.1393860340
 C    1.0800406708   -1.6862201964   -0.9254305551
 C    2.4916620727   -1.3864908038   -0.4811690909
 O    3.0217572543   -0.0892648392   -0.5211693571
 C    1.4560683790   -1.7399180735    0.5449061183
 C    0.6966487216   -0.6504406184    1.3009812104
 C    1.5444361630    0.0730025307    2.3556354838
 H    1.5371596525    1.7628422622   -0.1329336924
 H   -0.0962579222    2.2467939311   -0.6250507297
 H    0.3384773275    2.2346016519    1.0834796902
 H   -1.0662577958    0.2965741848    0.4733365891
 H   -0.8309676856   -0.8825397178   -1.4780554056
 H    0.4994107034    0.1681909010   -1.9267037642
 H    0.9113238640   -2.5874119896   -1.5063185328
 H    3.2291331892   -2.1639788462   -0.6835880028
 H    3.1740450780    0.1403186763   -1.4441408612
 H    1.5877392067   -2.6880712516    1.0576136065
 H   -0.1040091816   -1.1749642573    1.8387963217
 H    2.3873883154    0.5966481649    1.9002608619
 H    0.9487600599    0.7970015364    2.9214612388
 H    1.9479130688   -0.6490710554    3.0738691268