15

 O    0.0642454114    1.3505652006   -0.1374854353
 C    0.0409681507   -0.0587237326   -0.0905400193
 C   -1.3667661143   -0.5870800128    0.1670955510
 O   -2.2217598087   -0.1206047684   -0.9082707938
 C   -2.9999856593   -1.1168418880   -1.4270275122
 O   -3.8799136145   -0.9161904209   -2.2087733946
 C   -2.5433416117   -2.4257128699   -0.8305256064
 O   -1.1504078517   -2.6598387745   -1.1066511545
 C   -1.5095507084   -2.0969539953    0.1540372362
 H   -0.5263387230    1.6186832785   -0.8507572280
 H    0.4215379565   -0.5158666392   -1.0142701457
 H    0.6949863526   -0.3602929127    0.7348277232
 H   -1.7592336306   -0.1678171160    1.1008361172
 H   -3.1984607499   -3.2883824726   -0.8165975235
 H   -1.3006842891   -2.6942081361    1.0357862557