19

 C   -0.0089812808    1.5078408151   -0.0761361845
 C    0.0754322085   -0.0143473029   -0.0541105504
 C    1.2303441815   -0.6175431805   -0.9014259943
 N    1.9745672055   -1.0894276969    0.3233589875
 C    0.8175345418   -0.5848205185    1.1576068852
 C    1.0810925533   -2.0490065139    1.0397768169
 C    0.1735495553   -3.0574917910    0.3558373069
 C    1.7790936203   -2.6214391837    2.1782304052
 N    2.2930449477   -3.1018224031    3.0953725009
 H    0.9695340358    1.9603450761    0.1162466609
 H   -0.3595862781    1.8615157073   -1.0511478023
 H   -0.7057644711    1.8749287112    0.6845737647
 H   -0.9181100769   -0.4412228510   -0.2269418562
 H    0.9926911754   -1.4063650799   -1.6197002989
 H    1.8352460415    0.1419647795   -1.4015410875
 H    0.9775609212   -0.0612861380    2.0959819080
 H   -0.4596876376   -2.6006606487   -0.4044449655
 H    0.7694479467   -3.8455827702   -0.1142212955
 H   -0.4776115102   -3.5257815909    1.0990455589