20

 C    0.2931982057    1.3972733577   -0.1793167856
 C    0.1194991675   -0.0789450025    0.0730892910
 N    0.0061967090   -0.6893884954    1.1801906044
 O    0.0967204273   -0.7507899066   -1.0978130876
 C   -0.1010896764   -2.1763204341   -1.0287355869
 C   -0.1012512789   -2.6693884237   -2.4483814194
 O   -1.1161855056   -2.1109890849   -3.2375082948
 C    1.2023243176   -3.0265324674   -3.1230740802
 C    0.2069877552   -4.1036924214   -2.7345485794
 H    0.3415725168    1.9515048227    0.7591137810
 H    1.2088901426    1.5773871510   -0.7505278892
 H   -0.5410822367    1.7788423135   -0.7762814090
 H    0.0472699214   -0.0331289415    1.9563826423
 H    0.6943206569   -2.6314659278   -0.4315836558
 H   -1.0572112903   -2.3775987532   -0.5351514588
 H   -0.9959606887   -1.1549450289   -3.1940793803
 H    1.2824731191   -2.7844142480   -4.1763143217
 H    2.1253020049   -2.9447678337   -2.5591439592
 H    0.4464532261   -4.7622828547   -1.9067033734
 H   -0.3686950335   -4.5619395211   -3.5302052774