19

 C   -0.2149182613    1.5279272346   -0.0885042976
 C   -0.0296453868    0.0361704397    0.0542319385
 N    1.3221285227   -0.5018168846   -0.1681576034
 C    0.7150247465   -0.6210101504    1.1670573215
 C    1.3829301868    0.1274827509    2.2745533553
 C    0.8320077247    0.0849521623    3.6678442224
 C    2.1427489845   -0.6276634845    3.3667998355
 C    2.1766356639   -2.0625147592    3.3587350222
 N    2.1957579704   -3.2197369151    3.3447603358
 H    0.6546834098    2.0759327094    0.2808827429
 H   -0.3504612826    1.7956280209   -1.1416908862
 H   -1.0998468682    1.8662075953    0.4613438924
 H   -0.8592258419   -0.5508290966   -0.3399368183
 H    1.2928777130   -1.3916606248   -0.6573290304
 H    0.3506516023   -1.6039139153    1.4624085624
 H    1.8692291937    1.0463609038    1.9678359537
 H    0.8859325585    0.9733050095    4.2861034699
 H   -0.0324270189   -0.5437395566    3.8503264079
 H    3.0537105930   -0.1673282992    3.7330406955