18

 N   -0.0586286340    1.4670157230    0.0489929223
 C   -0.0482339918    0.0515036892   -0.0356697430
 C    0.6511391443   -0.8222994118   -1.0981623090
 C   -0.5479381085   -1.8229766609   -1.0502783921
 C   -1.2392562010   -0.9216943218   -0.0273923097
 C   -0.3344834928   -0.7737857268    1.2042551020
 N    0.5831179168   -1.7605840199    1.7206957451
 C   -0.9737152413   -0.0365112997    2.2791604888
 N   -1.4916272169    0.4925587551    3.1670280102
 H    0.7647462568    1.8286309270    0.5190073096
 H   -0.1187837147    1.8964211317   -0.8677310949
 H    0.6959513819   -0.2948369429   -2.0547699093
 H    1.6564566109   -1.1996954976   -0.8773869383
 H   -1.0844095509   -1.8871922441   -1.9982279331
 H   -0.3183835794   -2.8368454671   -0.7093765537
 H   -2.2983423857   -0.7078608178    0.0448490091
 H    0.0924425345   -2.5957010080    2.0232326516
 H    1.2710134717   -2.0307813974    1.0297148742