16

 C    0.0584472779    1.5079998778   -0.0307176108
 C   -0.0667906816    0.0181337208    0.1218790867
 C   -1.3694675305   -0.7010114479   -0.2426863097
 C   -1.3497559925   -1.9435619832    0.6115543929
 C   -0.2725262164   -1.9848677712    1.4140058054
 C    0.0370889486   -2.9968017615    2.3599123236
 N    0.3118248844   -3.7990878661    3.1492401574
 C    0.6097453949   -0.7970415450    1.1501565481
 O    1.0932462166   -0.7613897738   -0.2047579627
 H    1.0371975995    1.8465044943    0.3168084046
 H   -0.0480632526    1.7980483062   -1.0817137882
 H   -0.7178871845    2.0257992643    0.5418051548
 H   -2.2499979917   -0.0830122417   -0.0240665771
 H   -1.4083842035   -0.9410315756   -1.3120711575
 H   -2.1106650156   -2.7127161977    0.5581368204
 H    1.2839863671   -0.4098609096    1.9073779621