20

 C   -0.0790672695    1.6528632631    0.0556327749
 C    0.0096915560    0.1340122716    0.2384138015
 C   -1.3377452722   -0.5545032355    0.0429659497
 C   -2.0184268952   -0.6623264362   -1.3535153271
 N   -2.2847860670   -2.1393924307   -1.1691410475
 C   -0.9525059852   -2.8020170281   -1.0960245374
 C    0.1632196156   -2.4281084633   -1.9191803188
 C    1.0869926027   -2.1825361280   -2.6505438880
 C   -1.4607066245   -2.0769007994    0.1017978778
 H    0.8946868124    2.1280703347    0.2075269774
 H   -0.4199595957    1.9118672598   -0.9529241023
 H   -0.7829816865    2.1000100652    0.7668962511
 H    0.7428428675   -0.2820786293   -0.4583666486
 H    0.3758653071   -0.0939986882    1.2483064578
 H   -2.0597955106   -0.1278491617    0.7484523194
 H   -2.9650570388   -0.1278942016   -1.4424727588
 H   -1.3931519155   -0.4421003502   -2.2232965248
 H   -1.0870428153   -3.8801886988   -1.0311781772
 H    1.9084540710   -1.9552426963   -3.2841931716
 H   -1.7410988862   -2.6434156970    0.9862100425