15

 N    0.0597354060   -1.1540654713    0.0484566291
 C    0.0390114897    0.0006506764    0.0267532194
 C   -0.0218646631    1.4649007688    0.0143672984
 C   -0.5932359957    2.0590046080    1.2984878227
 C    0.5409729634    2.2691656975    2.2708747387
 C   -0.0064446847    3.4379533777    1.4720135002
 C    1.2649963380    3.4013845520    0.5766852754
 C    1.8015892353    2.2561958932    1.3620158247
 N    1.3281220618    2.0553025440   -0.0203850665
 H   -0.5758606211    1.7889255271   -0.8728890232
 H   -1.5903997759    1.8278683202    1.6493386556
 H    0.4963571033    2.0654711895    3.3300497942
 H   -0.5551287071    4.3101131693    1.7951127595
 H    1.7446323288    4.2311716904    0.0749893207
 H    2.8075544212    1.9632507371    1.6294794209