16

 N    0.0601376006    1.5781093496   -0.1848978956
 C    0.0315015573    0.1364630013   -0.0904450169
 C   -1.3673236571   -0.5740014262    0.0901201727
 C   -2.5798403101    0.3651019805    0.0781729742
 C   -3.8171487586   -0.3658356569   -0.1811169499
 N   -4.7739019567   -0.9768871452   -0.3985918099
 N   -1.0981400543   -1.2527434438   -1.1791499965
 C    0.0750381618   -0.6004838355   -1.4563970307
 O    0.8165500234   -0.5800433703   -2.4011272889
 H    0.5441183536    1.9987024716    0.5986841337
 H    0.5500855804    1.8560016433   -1.0290859920
 H    0.7673290885   -0.2807453854    0.6066739048
 H   -1.4266055559   -1.2598809749    0.9412585947
 H   -2.6566067579    0.8787444292    1.0426313529
 H   -2.4366954052    1.1398594436   -0.6802498115
 H   -1.6449400798   -1.9144623712   -1.7115417511