15

 O    0.1864202938    0.6571429772    0.7854245695
 C   -0.1964971176    0.2053286777   -0.4973700942
 C   -1.5430383889   -0.4970082298   -0.4818136957
 C   -1.7839274731   -1.7022637927   -1.3538275938
 C   -1.6009922457   -1.8732065079    0.1453684957
 O   -0.3811323135   -2.3482271707    0.6414306793
 C   -2.7537360663   -2.2357918162    0.9408547712
 N   -3.6670225736   -2.5537514447    1.5755512748
 H    0.3379361784   -0.1298212712    1.3213557267
 H   -0.2627941876    1.0941929986   -1.1331773894
 H    0.5602761302   -0.4590430609   -0.9354542125
 H   -2.3937956978    0.1426555985   -0.2718144023
 H   -2.7691066956   -1.8695995870   -1.7727460648
 H   -0.9544896151   -2.0506247463   -1.9606717512
 H   -0.3641856576   -3.3092748245    0.5671874565