13

 C   -0.0238859963    1.5365159018    0.0941865595
 C    0.0076472809    0.0552793973   -0.0748493531
 C   -0.0086839550   -0.7864486643   -1.1713939633
 O   -0.0532241808   -0.8240836140   -2.4931722752
 N   -0.0232259710   -2.3593602750   -2.7800607523
 N    0.0281963701   -2.9627476967   -1.7072545857
 C    0.0421905272   -2.0856449635   -0.6444376264
 N    0.0881611914   -2.1388322495    0.6833154287
 N    0.0665228156   -0.8277510087    0.9852161889
 H    0.8714481583    1.9094544090    0.6042700006
 H   -0.0712035471    2.0136010907   -0.8863690802
 H   -0.8981204132    1.8644971245    0.6677897668
 H    0.0936111599   -0.5707425416    1.9598334516