16

 C   -0.2595462767    1.5027413668    0.0193255276
 C   -0.2542879468    0.0148588322    0.3621182610
 C    0.9266082602   -0.3922641276    1.2180640330
 O    1.7129009550    0.3750981942    1.6972566354
 C    1.1357473390   -1.9471766455    1.4136354008
 C    2.0659994598   -2.2586090835    2.4904585515
 C    2.8337134204   -2.5152174879    3.3749861140
 C   -0.1389799404   -2.6582952743    1.5708303674
 N   -1.1542134503   -3.1979345980    1.6836967655
 H    0.6329632298    1.7794858746   -0.5479758228
 H   -1.1403250621    1.7510909721   -0.5781413443
 H   -0.2725010866    2.1102497974    0.9270759678
 H   -1.1650220388   -0.2731245505    0.9037357330
 H   -0.2592067694   -0.6115125779   -0.5405095103
 H    1.5662974961   -2.2774599707    0.4545080680
 H    3.5129915110   -2.7369002113    4.1611893225