22

 C   -0.0791633499    1.5433052037   -0.0051068058
 C   -0.0010036241    0.0264294471    0.0030635359
 C   -1.2409321096   -0.6258387178   -0.5858171925
 C    1.3332252150   -0.6400667673   -0.2479154900
 C    0.7351884325   -0.6797514507    1.1398701278
 C    1.4040388310    0.0774263296    2.2740047861
 N    0.1852750647   -1.9476759707    1.5623573871
 C    0.9481259872   -3.0402796498    1.8452946428
 O    2.1488521157   -3.1166035174    1.6993309854
 H    0.8410122843    2.0162068728    0.3431482471
 H   -0.2644723637    1.9020436921   -1.0240600146
 H   -0.9016921516    1.9041647055    0.6241184689
 H   -1.3909527460   -0.2846871911   -1.6162727916
 H   -1.1651475051   -1.7148749885   -0.6046184853
 H   -2.1428713213   -0.3549747975   -0.0216104582
 H    1.3514022922   -1.5662327071   -0.8102670135
 H    2.2080744992   -0.0140054390   -0.3897127171
 H    1.8796011922    0.9981303483    1.9309718252
 H    0.6834076962    0.3381879893    3.0577256492
 H    2.1795209826   -0.5554117018    2.7150137609
 H   -0.7864193939   -1.9830703015    1.8315140740
 H    0.3289657725   -3.8807884083    2.2226732479