16

 O    0.0163493429    0.0336149491   -0.1245187272
 C    0.0240546311    1.2308569848    0.0141843650
 N   -1.0661715149    2.0899142787    0.1432323620
 C   -0.4698738979    3.4220489128    0.0851591058
 C    0.7214871353    3.3467003823   -0.9406895522
 C    1.5885743340    4.5353781779   -0.5542792866
 O    1.5405000318    4.4441415623    0.8881074202
 C    0.7174686113    3.3155924650    1.0873457324
 C    1.1866759459    2.2152063291    0.0646718764
 H   -1.9420757618    1.8703312904   -0.3070761272
 H   -1.1761000026    4.2502664782    0.1133921155
 H    0.5594249522    3.1360654818   -1.9979254898
 H    2.6256897377    4.4600042549   -0.8999802744
 H    1.1740285758    5.4967901624   -0.8802120411
 H    0.5730609031    3.1127143581    2.1471326868
 H    2.1945412760    1.8075908422    0.0663764044