16

 C   -0.0312905878    1.4707109569    0.0496892495
 C    0.0063032546   -0.0173366601   -0.0225099860
 N    0.0673099863   -0.6862378819   -1.1083420154
 C    0.0699329976   -2.1191398491   -0.7460099826
 C    1.1910838379   -2.8284192558   -1.3749907608
 N    2.0772243024   -3.4042225178   -1.8414273681
 C    0.1022404616   -2.1431178263    0.7918616071
 C    1.2220779449   -1.4547464588    1.4701480511
 N   -0.0614552035   -0.7404529027    1.2185621299
 H    0.7911177485    1.8383017375    0.6729104310
 H    0.0424799925    1.9015107352   -0.9484351676
 H   -0.9610228007    1.7960076536    0.5272643804
 H   -0.8574084425   -2.5789705841   -1.1100178728
 H   -0.4847085738   -2.8886474461    1.3152788835
 H    1.4251774784   -1.6629587022    2.5151696390
 H    2.0823095638   -1.1610387081    0.8745575119