15

 O   -0.1338513302    0.2560460341   -0.7329125436
 C    0.1335557414    1.0727002407    0.1181066083
 C    1.3343492211    1.8665796789    0.1428628499
 C    2.3302497935    2.5490689460    0.1939198498
 C    3.5357709788    3.3834522359    0.2588554587
 O    4.4905909263    3.0237685422   -0.7386325376
 C    4.6528737182    4.0925582882   -1.6728429466
 C    3.8600066988    5.2337418229   -1.1040901309
 C    3.2281188939    4.8456078304   -0.0049387692
 H   -0.5536263126    1.2716455012    0.9661210024
 H    3.9961400204    3.2337628606    1.2482907562
 H    5.7236041266    4.3213900785   -1.7669084100
 H    4.2908960546    3.7918048580   -2.6682776369
 H    3.8255828948    6.2159426830   -1.5575990201
 H    2.5666937143    5.4228476795    0.6259611096