20

 C   -0.1051629751    1.5485295098    0.2630540782
 C   -0.0234401138    0.0978689356    0.1727938351
 C    0.0432033405   -1.1040870773    0.1042594577
 C    0.1398914432   -2.5393767521   -0.0079522340
 C    1.3730528561   -3.0789535463   -0.7163349902
 C    1.4551239473   -2.6372679162   -2.1803003017
 O    2.6137269080   -3.1351261440   -2.8323409593
 C   -0.5290222122   -3.3592518687    1.0490995843
 N   -1.1080189690   -3.2998936152   -0.2981208309
 H    0.8602801662    2.0112166375    0.0308812929
 H   -0.8423124556    1.9521215096   -0.4400264585
 H   -0.3934081343    1.8711774230    1.2696386887
 H    2.2776887733   -2.7548029422   -0.1901286453
 H    1.3361431067   -4.1741347786   -0.6716098034
 H    0.5348497779   -2.9357705318   -2.7038584159
 H    1.5255954818   -1.5467727060   -2.2365337526
 H    2.5309736125   -4.0925883441   -2.8844135785
 H   -0.0969115994   -4.3187006418    1.3214985791
 H   -1.0239651209   -2.8314677172    1.8587343810
 H   -1.8968506431   -2.6580554738   -0.3026138767