26

 C   -0.0577004345    1.5796219870    0.1833307928
 C    0.0839494635    0.0616282021    0.0115073871
 C    0.7042418338   -0.4454692693   -1.3211578979
 C   -0.0799196579    0.1114653833   -2.5259301217
 C    2.1641856003    0.0447037143   -1.4088459860
 C    0.6785863570   -2.0160272254   -1.3010945138
 C   -0.7344130445   -2.6211897783   -1.3876096801
 C    1.5598158721   -2.6765701632   -2.3764567378
 H    0.9041256682    2.0987611568    0.1342899224
 H   -0.7127173116    2.0181532547   -0.5756180308
 H   -0.4968237832    1.8058124510    1.1604494981
 H    0.6913380353   -0.3311931340    0.8380632452
 H   -0.9105471289   -0.3807176795    0.1336152949
 H    0.0637682015    1.1918342152   -2.6218580927
 H    0.2561190495   -0.3401525283   -3.4648387824
 H   -1.1551918572   -0.0704855108   -2.4337312953
 H    2.7832059563   -0.4053128318   -0.6237740253
 H    2.6166809957   -0.1989206752   -2.3737798902
 H    2.2225902126    1.1309113481   -1.2956947477
 H    1.0974880661   -2.3060372277   -0.3261945292
 H   -1.4227276892   -2.2121669740   -0.6438470223
 H   -1.1774450035   -2.4615611068   -2.3764511958
 H   -0.6876993593   -3.7031654588   -1.2257293066
 H    2.6173310110   -2.4276757150   -2.2637950546
 H    1.4726292655   -3.7662876154   -2.3116925425
 H    1.2520365513   -2.3895050089   -3.3883044276