22

 C   -0.0987822299    1.5012498925    0.0409341044
 C   -0.0260856218   -0.0138699754    0.0347602510
 C   -1.2460617320   -0.6971554803   -0.5525439347
 C    1.3325366595   -0.6554199663   -0.1911288537
 C    0.6901542950   -0.6939324466    1.1680606751
 C    1.2764606830   -0.0987372554    2.4765648133
 C    0.8367817416   -1.3893133465    3.1844695247
 N   -0.6336401051   -1.4923103739    3.0079846922
 C    0.2806297533   -1.9454474994    1.9215209009
 H    0.8012768896    1.9486973586    0.4731066890
 H   -0.2075349689    1.8917167567   -0.9781299152
 H   -0.9583715863    1.8511945429    0.6244406619
 H   -1.4094086229   -0.3846090538   -1.5908927222
 H   -1.1411574610   -1.7861283680   -0.5460505727
 H   -2.1463341407   -0.4476394670    0.0200294129
 H    1.3774584919   -1.5783341632   -0.7630379246
 H    2.1926412284   -0.0066209183   -0.3309495029
 H    2.3628062333    0.0177066845    2.4353049281
 H    0.8183069824    0.8181886546    2.8567258807
 H    1.3331070886   -1.8920070492    4.0050219897
 H   -0.9288582416   -2.3308952855    3.5097455818
 H    0.2532294938   -2.9664274209    1.5598318803