13

 C    0.0418827727    1.3627676169   -0.1170089414
 C    1.5245605064    1.8568255059    0.0768971828
 C    2.1245311773    0.6152249161    0.6530046440
 N    3.2572661464    0.1390557734    1.1501606709
 N    2.9373088405   -1.1350452812    1.4010466899
 N    1.6756325335   -1.5311013833    1.1099756197
 C    1.1794891740   -0.4060857547    0.6335272135
 O   -0.0269825083   -0.0787598799    0.1387470719
 H   -0.6349643462    1.8490592379    0.5910872761
 H   -0.3286380780    1.5266384353   -1.1304333999
 H    1.9806966124    2.1445135701   -0.8760153996
 H    1.5672497833    2.7256664409    0.7392383021
 H    3.5966388460   -1.7713909473    1.8150143100