16

 N   -0.1331482489    1.3208630961    0.0094505321
 C   -0.0484163853    0.0633242411    0.0024217690
 O   -1.1722548873   -0.6847769495    0.0094224112
 C   -0.9899283029   -2.0964212751    0.0000378239
 C   -2.3897690707   -2.7172516673    0.0095552844
 C   -2.3541089035   -4.1700535278    0.0015684467
 C   -2.3171836190   -5.3772390770   -0.0053790783
 C   -2.2455409424   -6.8164025945   -0.0138995148
 O   -3.2067907049   -7.5499045888   -0.0083098985
 H    0.7971713448    1.7337361295    0.0026556360
 H    0.8752227548   -0.5320583580   -0.0093530829
 H   -0.4409015192   -2.4111184801   -0.8964118055
 H   -0.4246324269   -2.4208073997    0.8828222673
 H   -2.9323279271   -2.3617326653    0.8937750907
 H   -2.9483835687   -2.3524748100   -0.8607840497
 H   -1.2116593725   -7.2177728637   -0.0265597717