20

 C    0.0676914230    1.6010822370    0.0768725071
 C    0.0062825185    0.0622511164    0.0059135146
 C   -1.3786190809   -0.4085486647   -0.0240573831
 C   -2.5147116994   -0.7915375906   -0.1309075062
 C    0.7514282597   -0.5248687717   -1.2311898939
 O    0.1554019528   -0.0932191555   -2.4419347818
 C    2.2158380268   -0.1294724945   -1.2634577137
 C    2.9945974880   -0.2280882924   -2.5195268288
 N    2.6489106133    1.0921688505   -1.9561541168
 H    1.1039931070    1.9410648228    0.1388396090
 H   -0.3867093229    2.0397197145   -0.8147348643
 H   -0.4761507786    1.9644906394    0.9520914853
 H    0.4951626837   -0.3537192264    0.8973758740
 H   -3.5198757621   -1.1313546746   -0.1814749815
 H    0.6937092444   -1.6223674543   -1.1487602654
 H   -0.7845774332   -0.3045480127   -2.3902377872
 H    2.7300642829   -0.3096525515   -0.3207882820
 H    4.0501338139   -0.4820697858   -2.4829169047
 H    2.4660363183   -0.5546631373   -3.4095525178
 H    1.8505530448    1.4527266115   -2.4750841727