11

 C   -0.1284342257   -1.2135942121    0.0015059692
 C   -0.0530732783   -0.0153376913    0.0270107720
 C    0.0217518812    1.4170418499    0.0189844775
 N    0.5323386984    2.0888088612    1.2256947315
 C    1.3376092782    2.1558352849   -0.0009830663
 C    2.5988555252    1.4556384291    0.0030986225
 N    3.6188531417    0.9138764085   -0.0314941997
 H   -0.1814271341   -2.2745558688   -0.0103232318
 H   -0.7740488272    1.9146938578   -0.5320622767
 H    0.0511005677    2.9733394421    1.3686520619
 H    1.3553397630    3.0843455387   -0.5659316701