15

 C    0.1206544414    1.4769281879    0.0045303830
 C   -0.0430467668   -0.0058645863   -0.0167916305
 C   -1.1799758465   -0.7064086440   -0.1238426769
 C   -1.2008126799   -2.1809243814   -0.1330498556
 O   -2.2365294866   -2.8244670500   -0.2307293142
 C    0.1240997361   -2.7771923181   -0.0150021239
 C    1.2125713298   -1.9917266194    0.0876769797
 O    2.4646389878   -2.4505124472    0.1995215365
 O    1.1754080809   -0.6402696192    0.0909906658
 H    0.7583699178    1.8089778719   -0.8220195575
 H   -0.8506355192    1.9651857789   -0.0831491837
 H    0.5964602079    1.8021402175    0.9361504946
 H   -2.1266636002   -0.1874653734   -0.2075835120
 H    0.2365086343   -3.8524944648   -0.0095291113
 H    3.0629885534   -1.6950110326    0.2613567160