18

 O   -0.0093597911   -0.1283184166   -0.1139171943
 C    0.0024011876    1.0875712620   -0.0374651197
 C   -1.3177902860    1.8787381328    0.1138149685
 C   -1.2238919725    3.2432044284   -0.5566576750
 C   -1.9766455598    4.4684078289    0.0453755708
 C   -0.5910028347    5.1086888566    0.3511926523
 N    0.0490909924    3.9309807984   -0.2638278657
 C    1.1669538908    3.2469438843    0.0770360349
 C    1.2186819466    1.8873587134    0.0473931946
 H   -2.1353682409    1.2806020832   -0.2937084594
 H   -1.4956443216    1.9891745620    1.1926376709
 H   -1.3573671348    3.1326780468   -1.6408109565
 H   -2.5942889949    5.0227350219   -0.6618448787
 H   -2.5678310666    4.2344846811    0.9319452346
 H   -0.3712819915    6.0461028907   -0.1705214592
 H   -0.3664703767    5.2353494336    1.4156291387
 H    2.0338615426    3.8555705515    0.3274365766
 H    2.1590107712    1.3650049410    0.1684616665