15

 O   -0.0131440364    1.4029798606    0.0909779522
 C    0.0184574927    0.0075627174   -0.0103164643
 C   -1.3981712723   -0.5814685905    0.0032069461
 N   -1.4250972107   -2.0260622541   -0.2227401642
 C   -0.5232047298   -2.4936557836   -0.9804196554
 N    0.5002871968   -1.7624438167   -1.5908856384
 C    0.7473954868   -0.4403241975   -1.2668759824
 N    1.5105944450    0.3843948980   -1.8646510805
 H    0.6499589354    1.7223897292   -0.5422152452
 H    0.5750630341   -0.4352832109    0.8368025153
 H   -1.8757462231   -0.3599172555    0.9610171539
 H   -1.9988649577   -0.0848183072   -0.7721503928
 H   -0.5057995815   -3.5550501582   -1.2256508564
 H    1.0573501077   -2.2059130359   -2.3058972034
 H    1.9613618731   -0.0013060351   -2.6942524343