15

 C   -1.1547273143    1.5819725218   -1.1241751596
 C   -0.3223335528    0.4829859992   -0.4900459965
 O   -1.1762054068   -0.4972900190    0.1238719191
 C   -1.0845060150   -0.6795393892    1.4649146408
 O   -1.7595483122   -1.4710763383    2.0435858124
 C    0.5154813288   -0.2962717915   -1.5069195237
 O    0.5306000602   -0.0735174405   -2.6911941459
 C    1.4228053409   -1.4015592788   -0.9480298889
 O    1.6785288138   -1.5084341394    0.2223133480
 H   -0.5059185202    2.3067093294   -1.6222320089
 H   -1.8346170096    1.1636912186   -1.8693953646
 H   -1.7395441526    2.0972436909   -0.3585049756
 H    0.3631657348    0.8873043927    0.2681357212
 H   -0.3364451121   -0.0157499104    1.9359107798
 H    1.8658928372   -2.0433017355   -1.7366242476