17

 C   -0.1634708549    1.5864764147   -0.0866251394
 C    0.0394562774    0.0791964838   -0.0576203317
 C    0.7163818618   -0.6187770464   -1.2469761477
 C    2.1635959466   -0.2316868879   -1.3659287899
 C    1.7689156421   -1.2448591415   -0.3323053749
 C    1.1462084402   -0.5515547388    0.8937617985
 C    2.0005616641    0.3584081173    1.6452373358
 N    2.6736787521    1.1002059691    2.2237432729
 H    0.7654857610    2.1215715999   -0.3005272016
 H   -0.8927601116    1.8535097771   -0.8587497598
 H   -0.5404740940    1.9509989502    0.8742620901
 H   -0.9087577439   -0.4136910745    0.1744180726
 H    0.1826522527   -1.0797700814   -2.0689813328
 H    2.6768918790   -0.6413338301   -2.2295784343
 H    2.5179092998    0.7515010130   -1.0689669769
 H    2.1641197705   -2.2522215496   -0.3178491139
 H    0.6960508771   -1.2629315149    1.5896792728