19

 C   -0.0078455697    1.5248315702    0.0235064699
 C    0.0449622385   -0.0027456234   -0.0179443881
 O    0.8728431178   -0.5272603868    1.0222486739
 C   -1.3462364503   -0.6136672766    0.0045475124
 C   -1.9876549418   -1.3017908436   -1.1866446220
 O   -0.9966782517   -1.9713360597   -1.9714699468
 C   -0.6490695239   -2.8381818130   -0.8531278976
 C   -1.6217799167   -2.0912023562    0.0570134841
 O   -2.3358061265   -2.6294804143    1.1047535667
 H    1.0027523773    1.9400418712   -0.0069884951
 H   -0.5750965399    1.9200256821   -0.8257584168
 H   -0.4935803360    1.8737799571    0.9434301430
 H    0.5402385610   -0.3173415765   -0.9416390263
 H    0.4189022042   -0.3832750169    1.8599600811
 H   -2.0882436624   -0.0756314520    0.5951172069
 H   -2.9086926591   -1.0025722354   -1.6729936512
 H   -0.9579692587   -3.8699379154   -1.0643986427
 H    0.4136859937   -2.8039123198   -0.5974626892
 H   -2.8281361458   -3.3926292411    0.7803051178