19

 C    0.1745633192    1.5989506241   -0.0984721676
 C   -0.0160518023    0.0768662556    0.0615938520
 N    0.4032738377   -0.6497638478   -1.1398003852
 C    1.6254368729   -1.2369283602   -1.3492736631
 O    2.0224421430   -1.6087735572   -2.4381201658
 N    2.3676996670   -1.4088525937   -0.1893107605
 C    1.8492464404   -1.1541955368    1.0781373171
 C    0.7167772848   -0.4720591990    1.2680883451
 C    0.1445701889   -0.2101048457    2.6299883187
 H    1.2344025432    1.8404147960   -0.2220165228
 H   -0.3684339699    1.9643237228   -0.9770154080
 H   -0.2054041112    2.1363295716    0.7758931149
 H   -1.0918790410   -0.1123789578    0.1927497398
 H   -0.0829591869   -0.4498253979   -2.0004714817
 H    3.1947531076   -1.9698546340   -0.3032946128
 H    2.4331843410   -1.5505730543    1.9014672392
 H    0.7702685907   -0.6485387695    3.4124206932
 H    0.0542742238    0.8630010365    2.8420671510
 H   -0.8636315086   -0.6342330927    2.7304557766