21

 C    0.0073192358    1.4656473108    0.0393076279
 C    0.0110932721   -0.0382386277    0.0055496049
 C   -0.8729252404   -0.8716936800    0.9245315662
 C    0.6223624932   -0.8723987039    1.1241122714
 C    0.7683475118   -2.2154870165    0.3839187187
 C    1.3423173096   -1.8132061568   -0.9843098870
 C    0.1887671659   -0.8402673854   -1.3286446864
 C   -1.0155997477   -1.8121156420   -1.2989897431
 C   -0.8209008529   -2.2147504417    0.1718234283
 H    0.9503391947    1.8794642761   -0.3373695941
 H   -0.8030878019    1.8803035081   -0.5720144781
 H   -0.1292421206    1.8363116866    1.0610938960
 H   -1.6669267860   -0.4688108388    1.5427567199
 H    1.2267918730   -0.4701853722    1.9290001589
 H    1.2061727909   -3.0611388886    0.9111253752
 H    2.3141180472   -1.3179109750   -0.8875066279
 H    1.4314713057   -2.6362319282   -1.7016734544
 H    0.3083439967   -0.2273549316   -2.2224950975
 H   -1.9783229318   -1.3159205756   -1.4603590479
 H   -0.9142667883   -2.6351499266   -2.0147242792
 H   -1.3824333571   -3.0599374910    0.5656578984