24

 C   -0.0766301644    1.5909728293    0.0751199568
 C    0.0203021590    0.0648900660   -0.0093767498
 C    0.7631452606   -0.5485737179    1.1835843833
 C    0.8147042415   -2.0864852346    1.1931020030
 C    1.5982910539   -2.6703129953    0.0097262060
 C    1.3974700573   -2.5757037645    2.5199909876
 O    1.3076531104   -3.9838228753    2.5808546057
 C    1.8539967837   -4.5186935394    3.7601684729
 H    0.9181552715    2.0499230764    0.1011760236
 H   -0.6112391366    2.0059885269   -0.7851067337
 H   -0.6074827934    1.9053392033    0.9807951966
 H   -0.9891313926   -0.3641617804   -0.0644543951
 H    0.5204723712   -0.2126907522   -0.9445041323
 H    1.7886220311   -0.1517428802    1.2129006773
 H    0.2799261735   -0.2037361492    2.1086416394
 H   -0.2160427139   -2.4655001665    1.1454479260
 H    2.6165378290   -2.2622468957   -0.0214656257
 H    1.6730951468   -3.7557609598    0.1052670864
 H    1.1185912977   -2.4441003413   -0.9464471361
 H    2.4518301728   -2.2564582234    2.6130245789
 H    0.8490944587   -2.1257319867    3.3657946480
 H    2.9258211919   -4.2824890940    3.8600493908
 H    1.3383751279   -4.1422824455    4.6586025172
 H    1.7352808926   -5.6043144501    3.7156781131