20

 C    0.6679594872    1.4564137925    0.0856997437
 N    1.0262667342    0.0539805095   -0.0004984532
 C    0.5192393307   -0.6086299223   -0.9362518858
 O    0.8383292025   -1.9407949546   -1.0417321466
 C    0.2906419160   -2.6599739039   -2.0793780285
 O   -0.4599436251   -2.1896420736   -2.8903495196
 C    0.7897530909   -4.0910371368   -2.0338916014
 C   -0.0319019104   -4.9819533546   -2.9672476150
 C    2.2960249436   -4.1261162025   -2.3672999415
 H    1.5773266584    2.0645621323    0.0296123593
 H   -0.0278331487    1.7921051208   -0.6986095447
 H    0.2135643644    1.6526427676    1.0629081042
 H   -0.1691665839   -0.2581833481   -1.7083633904
 H    0.6718185836   -4.4250287437   -0.9957329347
 H    0.0589029360   -4.6457210959   -4.0036501777
 H    0.3207410892   -6.0155038511   -2.9059724667
 H   -1.0930667677   -4.9629248651   -2.7059041716
 H    2.8691381744   -3.4967044183   -1.6830234353
 H    2.6692552918   -5.1512244586   -2.2893317923
 H    2.4752029128   -3.7795014434   -3.3905874324