14

 N   -0.0838981446    1.5271096793    0.1555712080
 C   -0.0496178093    0.0883671432    0.0091758593
 C    0.8472180787   -0.4900147843    1.0101984633
 N    1.5682383469   -0.9495419888    1.7873082473
 C   -1.3898033424   -0.6661629661   -0.0438715526
 C   -2.1111088705   -0.4221632622   -1.2995397526
 N   -1.0018703413   -1.4261011812   -1.3155802231
 C    0.2040626914   -0.6268942283   -1.3887371562
 O    1.0512667487   -0.5784734082   -2.2167011854
 H    0.8572707647    1.9043523089    0.2042523492
 H   -0.5442217742    1.9583025889   -0.6386746168
 H   -1.8213355737   -1.1947437027    0.7958920487
 H   -3.0857756568   -0.8829039219   -1.4186115785
 H   -1.9832203278    0.5014482735   -1.8577064506