11

 N    0.1498207870   -1.1563467738   -0.0061722956
 C    0.0331226549   -0.0048546572    0.0021167465
 C   -0.0858291826    1.4047130808    0.0119446858
 C   -1.1938178418    2.2315120175    0.0315423990
 C   -0.6537816013    3.5356236466    0.0319588799
 N    0.6881245490    3.5187795662    0.0140033653
 N    1.0035998875    2.2313446799    0.0022957153
 C   -1.3723895037    4.7639516906    0.0486956788
 N   -1.9912918932    5.7405700111    0.0626365995
 H   -2.2293075723    1.9376305004    0.0436126302
 H    1.9748162765    1.9587417580   -0.0122014448