18

 C   -0.0125439954    1.5396953944    0.0462882242
 C   -0.0109150056    0.0331315029    0.0141514358
 C    0.0052361769   -0.6616441414   -1.1979717297
 C    0.0274250105   -2.0525321613   -1.1891394098
 C    0.0438910964   -2.8612355575   -2.4652878639
 O    0.0454881512   -1.9974746848   -3.5872345768
 N    0.0325055462   -2.7800002570   -0.0641772280
 C    0.0144788274   -2.1142855570    1.0897404017
 C   -0.0082268661   -0.7255055163    1.1837431274
 H    0.9894054876    1.9349600722   -0.1596504622
 H   -0.6824729019    1.9519673661   -0.7143330252
 H   -0.3234589607    1.9196888706    1.0230148709
 H   -0.0012194298   -0.1366807490   -2.1452412460
 H    0.9324014646   -3.5114874743   -2.4485128478
 H   -0.8339385246   -3.5260946976   -2.4626513405
 H    0.0495427530   -2.5386144252   -4.3809640491
 H    0.0156283744   -2.7215445719    1.9926039706
 H   -0.0253972842   -0.2459063229    2.1571455684