18

 C   -0.3676542934    1.4627033472   -0.0207071900
 C    0.0217552982   -0.0077181166   -0.0333588019
 C    1.2700658108   -0.3401007639   -0.9154215030
 C    2.0585936008   -0.5448725779    0.3573539215
 N    3.2776701759   -0.6225799216    0.6824996110
 O    4.1050012681   -0.5821134481   -0.4537423855
 C    0.8201886626   -0.5094871414    1.2477292078
 C    0.8262950929    0.2976592478    2.4496876226
 C    0.8148254172    0.9755066748    3.4425239635
 H    0.4987329366    2.1001994220    0.1844014149
 H   -0.7820367630    1.7552828357   -0.9912065793
 H   -1.1168573694    1.6679382992    0.7493674335
 H   -0.8507565784   -0.6302526898   -0.2436642727
 H    1.1738506112   -1.2497839154   -1.5166225517
 H    1.6334197931    0.4618412345   -1.5639839415
 H    4.9849084825   -0.6222709356   -0.0636795865
 H    0.5129801992   -1.5338990705    1.4946594883
 H    0.8183209152    1.5706137596    4.3218565990