15

 O    0.1057186633    1.4489190630   -0.0646092416
 C    0.0811643375    0.0641908275   -0.0627155401
 C    0.0527823703   -0.6797399226    1.3142450697
 N   -1.3607899120   -0.1060557990    1.4583663683
 C   -1.3048310711   -0.6574232358    0.0297538750
 C   -0.5458502026   -1.8743664448    0.5663127595
 C   -0.1254735348   -3.1874829074    0.0991790726
 O   -1.1146196894   -3.0187284897    1.1475708320
 H   -0.5336878710    1.7106627584    0.6157466856
 H    0.7832433307   -0.3050903486   -0.8111753453
 H    0.7748548911   -0.6515734494    2.1298887071
 H   -1.9260093542   -0.7243336556    2.0450216073
 H   -2.1584485561   -0.6033589692   -0.6454280789
 H   -0.5135282142   -3.5871247181   -0.8362041414
 H    0.8228132925   -3.6091056087    0.4281593202