19

 C   -0.0812423773    1.5136581993   -0.2445140821
 C   -0.0500446277    0.0304091737    0.0207094662
 N    1.2441818854   -0.6483467194   -0.1243116151
 C    0.6370460190   -0.5779365368    1.2127262246
 C    1.3686495223    0.1996453760    2.2326806515
 C    2.5893976009    0.8391935261    2.1944454195
 C    2.8044417151    1.4380261797    3.4673702868
 C    1.7115872515    1.1481199145    4.2492717556
 N    0.8472000133    0.3954571713    3.4921543242
 H    0.7833089845    2.0031446013    0.2091851482
 H   -0.0663242934    1.7135976889   -1.3211383112
 H   -0.9910931068    1.9613542121    0.1704029761
 H   -0.9277022140   -0.5155906052   -0.3262894471
 H    1.1305899199   -1.5782684279   -0.5163230647
 H    0.1682972978   -1.4876269624    1.5923724534
 H    3.2464880644    0.8512354346    1.3397134407
 H    3.6667905528    2.0096301431    3.7746374466
 H    1.4767261152    1.4038198501    5.2699953810
 H   -0.0468258929    0.0563487511    3.8018759859