19

 O    0.0177543153    0.0401516369   -0.3473536038
 C    0.0141010170    1.2261049696   -0.0652048613
 C   -1.2521272099    1.9587076467    0.1549526698
 C   -1.3002914304    3.2905758906    0.2846566344
 C   -0.0714996911    4.1565762059    0.3042155695
 C    1.1637568285    3.3608304987    0.7461235105
 C    1.2768630933    2.0394457430    0.0069117894
 C    2.5718932185    1.2648578523    0.0391818432
 C    2.1628954002    1.9366430997   -1.2341752410
 H   -2.1502901031    1.3497231206    0.1294562058
 H   -2.2648237915    3.7882289233    0.3611204570
 H    0.0815034983    4.5779754587   -0.7010412414
 H   -0.2303220992    5.0162201973    0.9650029205
 H    2.0738437799    3.9533783834    0.6037176490
 H    1.0819548732    3.1628783469    1.8231373170
 H    3.3884452564    1.6934722734    0.6105354892
 H    2.4774466668    0.1863819222    0.0860108063
 H    1.8046983933    1.3094712492   -2.0424830025
 H    2.6843596744    2.8369999815   -1.5424349517