17

 C    0.0488932201    1.4515806300   -0.0896676125
 O    1.4997414143    1.4079468911   -0.1636773341
 C    1.4818253949   -0.0080279356    0.0468257744
 C   -0.0377488087   -0.0655655228    0.0332170608
 C    0.7801431132   -0.6932038747   -1.0702484561
 C    0.7590848130   -0.4130210054   -2.5939290144
 C    0.7702912815   -1.9414361473   -2.7942424924
 O    1.9426665804   -2.4570479672   -2.1555079306
 C    0.7900881716   -2.1885593289   -1.3425222422
 H   -0.2707879183    1.9812072345    0.8146362113
 H   -0.4013572594    1.9201524242   -0.9729573000
 H    2.2419066416   -0.4396743920    0.6880252270
 H   -0.7369213220   -0.6205759452    0.6452550754
 H   -0.1719457376    0.0563536093   -2.9241117354
 H    1.6159224780    0.1209124294   -3.0092694666
 H    0.3452164737   -2.5256702891   -3.6016030775
 H    0.3955004037   -3.0033803601   -0.7464626072