17

 C    0.0955302039    1.5759849891   -0.1199146337
 C   -0.0565654179    0.0704177887    0.0901462321
 O    0.5129560120   -0.6324974698   -1.0380181699
 C    1.4802186221   -1.6362386764   -0.6598318893
 C    1.5770118352   -1.4763958732    0.8223426999
 C    0.7077246088   -0.5174604755    1.2280859004
 N    0.8406154029   -0.4475284214    2.5912011313
 C    1.7988201190   -1.3792002368    2.9240972703
 N    2.2657175911   -2.0229111847    1.8733139068
 H    1.1528060542    1.8514272132   -0.1606513401
 H   -0.3804560479    1.8700758399   -1.0592621189
 H   -0.3838677778    2.1304171037    0.6949036250
 H   -1.1304271839   -0.1748861951    0.1421338417
 H    1.1182420463   -2.6270710045   -0.9695271267
 H    2.4201497414   -1.4415430206   -1.1929993269
 H    0.3556636845    0.1580100476    3.2316432556
 H    2.1075187963   -1.5328618443    3.9475388325