17

 O   -0.0567838242    1.3799053439    0.0965953093
 C    0.0108263014   -0.0090139084    0.0421563752
 C    0.9300092720   -0.7609419744    1.0094570807
 O    0.2269573484   -1.5938214940    1.9483886336
 C    0.6301397213   -2.1482725608    0.6792905339
 C   -0.4123548698   -1.9874477572   -0.4227111753
 C   -1.3342876806   -0.7833613260   -0.0348700465
 C   -1.4534517656   -0.4131722500   -1.5360455822
 C    0.0309835794   -0.7940279386   -1.3432809931
 H    0.8214049382    1.7399409579   -0.0654462462
 H    1.8947395446   -0.3758283860    1.3274744538
 H    1.3412389053   -2.9667157616    0.7176604514
 H   -0.8641605148   -2.8665161891   -0.8801297081
 H   -2.1091172943   -0.7876142492    0.7295026414
 H   -2.0529329355   -1.0847366993   -2.1561321631
 H   -1.6638850730    0.6337494860   -1.7580638375
 H    0.8295651572   -0.8036136531   -2.0888989471