15

 C    0.0859315173    1.4448224957    0.0401706304
 C   -0.0695544819   -0.0301572100   -0.0123675377
 C   -1.1392876746   -0.8535126979   -0.2084408673
 C   -0.6222246557   -2.1963622173   -0.1448170101
 C    0.7146728405   -2.0376115114    0.0847215012
 N    1.2863647471   -3.2726126442    0.1595887584
 C    0.2193622741   -4.1465814358   -0.0369421264
 N   -0.9318707694   -3.5405561766   -0.2213090953
 O    1.1176055681   -0.7627465331    0.1758130823
 H    0.7723985929    1.8095496891   -0.7331001934
 H   -0.8856650688    1.9187767176   -0.1165163244
 H    0.4765040855    1.7788947702    1.0087155897
 H   -2.1522455533   -0.5214943754   -0.3742536554
 H    2.2483449928   -3.5168941129    0.3182720122
 H    0.3758426952   -5.2146690780   -0.0294441645