14

 C    0.0302299346    1.4045651174    0.0458801737
 N    0.0495335406   -0.0440340426    0.0329068362
 N   -0.1829148169   -0.7468603593   -1.0659950887
 C   -0.0928328460   -2.0174449493   -0.6670484380
 C    0.2035120707   -2.0090050215    0.7006061746
 O    0.4164023123   -3.0932757716    1.4922337742
 C    0.0138999869   -3.0298232139    2.8034570903
 O    0.2562706177   -3.9102620431    3.5641419818
 N    0.2976521726   -0.7541072216    1.1326640418
 H    0.9804472707    1.7845743273    0.4272361650
 H   -0.1228429991    1.7340360548   -0.9804589017
 H   -0.7829740163    1.7659159815    0.6805621692
 H   -0.2320778755   -2.8432055493   -1.3438257223
 H   -0.5375452324   -2.1040629489    3.0261561840