15

 N   -0.3191482280    1.1371721628   -0.3312998227
 C   -0.1517208553   -0.0712457931   -0.0454891138
 O    0.9386419824   -0.7579348975    0.4368985929
 C    0.1642413633   -1.9954683849    0.5672905349
 C   -1.0581506781   -1.2993199304   -0.0536497127
 O   -2.1736928503   -1.2716400849    0.7963329690
 C   -3.2084177859   -0.4328154745    0.3066624728
 C   -4.3269836172   -0.4721955359    1.2499200499
 N   -5.2258317992   -0.4840115011    1.9740794147
 H    0.5180466198    1.6952235934   -0.1543750731
 H    0.6181943842   -2.8072138340   -0.0028674493
 H    0.0283088825   -2.2685822612    1.6151209307
 H   -1.3274583173   -1.6420461515   -1.0625374637
 H   -2.8587758915    0.6017548096    0.1934072563
 H   -3.5618658595   -0.7766773867   -0.6783822362