19

 C   -0.3064372896    1.3749404818   -0.2099895907
 C   -0.0306686027   -0.1034204200   -0.0048642165
 N    1.2126973711   -0.6151614500   -0.7106492931
 C    1.8900639910   -0.6199724341    0.4985632566
 N    3.0274546341   -0.3385811106    0.9897408374
 C    2.7270446796   -0.0697760577    2.4305529794
 C    1.1943355886    0.2894815503    2.5045525832
 C    0.6454468258   -0.5578390112    1.3452649415
 O    0.0504355294   -1.7797629887    1.7385439796
 H    0.5641227062    1.9858064451    0.0505464650
 H   -0.5624121667    1.5795521569   -1.2549688114
 H   -1.1513939537    1.6955542013    0.4076870353
 H   -0.9035127483   -0.7168683861   -0.2386119018
 H    1.5994585939   -0.1439657108   -1.5208927060
 H    2.9794316005   -0.9359489795    3.0586221489
 H    3.3549269154    0.7583537259    2.7698335558
 H    0.7202978538    0.0466330597    3.4591521699
 H    1.0713224938    1.3614493599    2.3234407037
 H    0.6822464279   -2.2650630621    2.2805217531