21

 C    0.1297227054    1.2305766723    0.6704888129
 C   -0.0326052425    0.0340786529   -0.2507653042
 O    0.8467865838   -0.2608842866   -1.0362517308
 C   -1.3038008448   -0.7684090997   -0.1397259589
 C   -2.5081846838   -0.0855620073    0.4867035184
 C   -1.5407397941   -1.7747232632   -1.2645305333
 C   -1.1443862838   -2.2855504178    0.0854079259
 C    0.1977849004   -2.9410526539    0.3173385224
 O   -2.1632387049   -2.8139619274    0.8985764308
 H    1.1176139747    1.6654202670    0.5166193824
 H   -0.6377301555    1.9855407402    0.4702273604
 H    0.0133097122    0.9318596357    1.7180263825
 H   -2.8005845184    0.7978587373   -0.0916718960
 H   -3.3559216142   -0.7690837659    0.5211813813
 H   -2.3098240589    0.2343912779    1.5142572450
 H   -2.5703077650   -1.9194795629   -1.5733228495
 H   -0.7942258082   -1.7806919150   -2.0508503782
 H    0.9817791111   -2.4770118953   -0.2803824568
 H    0.4704347885   -2.8889812260    1.3763175810
 H    0.1404488467   -4.0009509978    0.0389402392
 H   -2.3031737187   -3.7281791245    0.6279509452