18

 C   -0.1077216297    1.5105671460    0.0756254744
 C    0.0190344109    0.0285877499   -0.0976180220
 N   -0.1086628350   -0.5496366807   -1.2209198402
 C    0.0955690851   -1.9902707250   -1.2152280983
 C    1.5300184691   -2.4655951153   -0.7779626930
 C    0.9335354670   -3.0111502221    0.5188715379
 C    0.0620536473   -1.9784000311    1.1729468766
 O    0.3007413092   -0.5821881847    1.0949079172
 C   -0.4945858128   -2.7128428922    0.0128033048
 H    0.7969691524    1.9159777385    0.5401321361
 H   -0.2648842599    1.9791142059   -0.8951291230
 H   -0.9451480291    1.7463738509    0.7405277607
 H   -0.2172851759   -2.4008828209   -2.1746202574
 H    1.9063371205   -3.2599693073   -1.4267788862
 H    2.2897351997   -1.6842183231   -0.6892256996
 H    1.2933770404   -3.8670388993    1.0780046891
 H   -0.3130112897   -2.2242236372    2.1595941920
 H   -1.4063477094   -3.2950925122    0.0415407910