17

 N    0.0595546632    1.4323673981    0.1156263566
 C   -0.0012866916    0.0167970895    0.0249217165
 C   -1.1909137664   -0.7029452163    0.0693724957
 C   -1.2071365412   -2.0953630329    0.0277167943
 C   -0.0030108460   -2.7839411814   -0.0813237342
 O   -0.0509825824   -4.1508983839   -0.1376985929
 C    1.2019432326   -2.0810595549   -0.1198235406
 C    1.2159582330   -0.6871637165   -0.0562622874
 N    2.4051189877    0.0538927108   -0.1192228077
 H    0.5828166950    1.8343841439   -0.6569424255
 H   -0.8634737483    1.8481472971    0.1294595586
 H   -2.1308818241   -0.1613860620    0.1357836482
 H   -2.1367480359   -2.6498543448    0.0627103031
 H    0.8458426107   -4.4905696867   -0.2152354948
 H    2.1443083033   -2.6211339705   -0.1858999069
 H    3.2318097234   -0.4863438392    0.0970112810
 H    2.3603190371    0.8869693198    0.4574390160