16

 C    0.7777912177    1.0589061352    0.1637012483
 C   -0.2075691393    0.0154514878   -0.3931362848
 C    0.2148426430   -0.5557447054   -1.6667463072
 C    0.5779152980   -1.0169433028   -2.7184153357
 C    1.0192029870   -1.5887157836   -3.9815163440
 O    1.7761140145   -2.8048465499   -3.8082897101
 C    3.0828674696   -2.6597124443   -3.5107457604
 O    3.8024272316   -3.5896596779   -3.3068529613
 H    1.7629232342    0.6144397208    0.3281122473
 H    0.8948621395    1.8941934818   -0.5318923026
 H    0.4139118956    1.4525606013    1.1170315745
 H   -0.3382636778   -0.7957559075    0.3341503370
 H   -1.1986942771    0.4701563629   -0.5167046980
 H    0.1681791926   -1.8767626873   -4.6041976671
 H    1.6141251492   -0.8632604123   -4.5521203813
 H    3.4065585118   -1.6007583088   -3.4896071145