17

 C    0.2788607936    1.6484030082   -0.0230484819
 C    0.1375693576    0.1566318584    0.1582318320
 O    0.2848623035   -0.3662911657    1.2385718700
 N   -0.1163363552   -0.6644802977   -0.9919577787
 C   -0.0017643012   -2.0525082414   -0.7717116792
 N   -0.4055961634   -2.9219897324   -1.6012937459
 C   -0.5306490362   -0.1017569149   -2.2456359758
 C   -0.1959015483   -0.8550816782   -3.5093959312
 O   -1.0939573109    0.9652450611   -2.2678835822
 H    0.8552882397    1.9102140823   -0.9120449599
 H   -0.7030006118    2.1102375876   -0.1371744687
 H    0.7659794856    2.0264972435    0.8762224877
 H    0.4467878436   -2.2495715267    0.2003834610
 H   -0.2102464510   -3.8543228606   -1.2403640082
 H   -0.9278630711   -1.6469247451   -3.6756363219
 H   -0.2338588107   -0.1344685469   -4.3275738136
 H    0.7814432862   -1.3378030316   -3.4556679135