14

 O   -0.0202239809    1.4417427423    0.1792779417
 C    0.0153986397    0.0448170482    0.0567041497
 C   -1.3844278277   -0.6056856000   -0.0869140339
 N   -0.9518860237   -1.1301066057   -1.3968801522
 C   -1.6439405007   -1.9083770795   -2.3107942279
 N   -1.1418940993   -2.2721407196   -3.4170047899
 C    0.2986250848   -0.4981349428   -1.3672421174
 O    1.1920973594   -0.3886630751   -2.1538431319
 H    0.8030492922    1.7861585335   -0.1861393204
 H    0.6407046565   -0.4296999909    0.8254276453
 H   -1.6313426950   -1.3801559469    0.6436650665
 H   -2.1861759059    0.1341745402   -0.1528243248
 H   -2.6491591175   -2.1532377606   -1.9439006717
 H   -1.8129623722   -2.8347626231   -3.9373915232