17

 O   -0.4862265556    1.2533320737    1.0213325482
 C   -0.0411972858    0.2023178374    0.1891704202
 C    0.6292615838   -0.9826801908    0.9258239136
 C   -0.7304261266   -1.7554004541    0.9270579725
 O   -0.7462403029   -3.0922130665    0.4896626603
 C   -1.5217473818   -1.5910044713    2.2041489446
 O   -1.5114187596   -0.5991995401    2.8996704796
 C   -1.2185289482   -0.7448974754   -0.1952066924
 O   -2.4898822411   -0.1929318736   -0.1343872897
 H   -0.7324853581    0.8675449091    1.8802746357
 H    0.5106241151    0.6613684804   -0.6325653502
 H    1.3551152849   -1.5065559872    0.3000140421
 H    1.0688757521   -0.7530240879    1.8990090314
 H   -0.1998937134   -3.6234967897    1.0796175919
 H   -2.1493514721   -2.4687576298    2.4633858503
 H   -1.0712235360   -1.2546169501   -1.1530116159
 H   -2.3799204448    0.6472578759    0.3391453778