17

 C    0.4828742901    1.4584327133   -0.4890769868
 C   -0.0086267251    0.1959498801    0.1845902119
 C    0.3882660584   -1.1297475890   -0.3872484770
 N    0.9806846748   -0.6779668274    0.8729058508
 C   -1.3596051029    0.3415655863    0.8556679353
 O   -1.9832024305    1.3661294063    0.7280734723
 C   -2.0207202795   -0.8247472414    1.6552156157
 N   -1.1754371072   -1.5614277564    2.4175996560
 O   -3.2213529778   -0.9798621603    1.5957871760
 H    1.4379839662    1.2782660739   -0.9925675180
 H   -0.2418589018    1.8069645559   -1.2281936950
 H    0.6138464588    2.2623407322    0.2407315482
 H   -0.2734612157   -1.9858248068   -0.2970428851
 H    0.9936036274   -1.1087652259   -1.2887666716
 H    1.9146781425   -0.3043995477    0.7265304083
 H   -0.1727091164   -1.4534849464    2.3098255725
 H   -1.5663088712   -2.3241710467    2.9485525864