18

 C   -0.0931390824    1.5896507029   -0.0471843306
 C   -0.2511257117    0.0976456338   -0.2991401410
 C   -0.0568745873   -0.8796901031    0.8294179202
 C   -1.4370216412   -0.6429251821    0.2643958105
 C    1.3362426971    2.0383207892   -0.0333695951
 C    2.1114986717    2.5783539258   -1.0340503834
 N    3.3230952463    2.7553351625   -0.4548783322
 N    3.3173474580    2.3587079240    0.8299391097
 N    2.1176680645    1.9244858899    1.0844409420
 H   -0.6478983438    2.1545959857   -0.8057799126
 H   -0.5392889061    1.8373029325    0.9224869840
 H    0.0978549158   -0.2256634337   -1.2766621382
 H    0.4318001219   -1.8236707518    0.6156696605
 H    0.1742457075   -0.4721606468    1.8073983212
 H   -2.1434718944   -0.0818972425    0.8679988805
 H   -1.8916826598   -1.4236051331   -0.3356216490
 H    1.9110936086    2.8424612293   -2.0587279184
 H    4.1672462350    3.1380467775   -0.8493620681