17

 N    0.1291237284    1.3524249866    0.0978522200
 C   -0.0712360287   -0.0146376443   -0.0472537063
 C   -1.1691051000   -0.7827776405   -0.2858186900
 C   -0.7237073168   -2.1510514465   -0.1816962122
 C   -1.5643442754   -3.3782976384   -0.3339962036
 O   -2.7323306470   -3.3487716108    0.4847136266
 C    0.6043549507   -2.1122861839    0.1002198708
 N    1.5473409057   -3.1219894596    0.2850336339
 O    1.0209485821   -0.7838292619    0.1813431485
 H    1.0270039604    1.6564217804   -0.2585628842
 H   -0.6171939389    1.8955085758   -0.3142671640
 H   -2.1709985556   -0.4421836433   -0.4919156785
 H   -1.9442498090   -3.4658768201   -1.3587624862
 H   -0.9458491958   -4.2644227655   -0.1337151736
 H   -2.4381591863   -3.1810158354    1.3861324862
 H    2.1929760091   -3.2126155450   -0.4940666911
 H    2.0953659672   -2.9859253677    1.1286005337