12

 N    0.0266965647    1.4228530278    0.1840090664
 C    0.0096254623    0.0547953695    0.0507991040
 C   -1.0354093094   -0.8281174593    0.0129341053
 O   -0.5693376375   -2.0997764220   -0.0530752034
 N    0.7870920880   -2.1061742876   -0.0584296474
 C    1.1263013648   -0.8364463790    0.0001521328
 N    2.5250533628   -0.4670083555   -0.0138152153
 O    3.3636922422   -1.3462515864   -0.0049078821
 O    2.7567757142    0.7454365860   -0.0400005154
 H    0.9123088195    1.8399023433   -0.0643763752
 H   -0.7815261030    1.9120637524   -0.1676105594
 H   -2.1066590186   -0.7162246092    0.0265440896