17

 N   -0.0963497919   -1.1722251802   -0.2061456979
 C   -0.0686971763   -0.0213603899   -0.1003612061
 C   -0.0140562267    1.4290115630    0.0428300791
 C   -0.5893494427    1.9659013685    1.3891390265
 C    0.3435132797    3.1298978048    1.6967037579
 C    1.7936337800    2.8860414227    1.8981225677
 C    2.2435486139    1.5696833635    1.2798959346
 C    1.4166060476    1.9982434924    0.0413711612
 N    1.2724438152    3.4178316727    0.5738362523
 H   -0.5635537346    1.8780552519   -0.7918717427
 H   -1.6236692903    2.2961643894    1.2732204211
 H   -0.5723649171    1.1989835307    2.1677998463
 H   -0.0721668517    4.0201943704    2.1571380952
 H    2.3897951047    3.5095449820    2.5572294706
 H    3.3135455376    1.5708972628    1.0659342129
 H    1.9825422890    0.6325371344    1.7812282325
 H    1.9095283636    1.9522349110   -0.9283275711