23

 C   -0.1326208952    1.6041407895   -0.0937003150
 C    0.0260606621    0.0917893993    0.0032111619
 C    0.8604345014   -0.7205892284   -1.0396078147
 C    1.3636821292   -1.6531150548    0.1098130072
 C    2.8074192058   -1.4771796548    0.6756082931
 C    3.8035624210   -0.5529644369   -0.0628616425
 C    3.1872457920    0.6777966837    0.6721585308
 C    2.2873082707   -0.2717893924    1.5312630775
 C    0.8080844045   -0.6165370827    1.1427271079
 H    0.8222402933    2.1323058740   -0.1412417541
 H   -0.7037149625    1.8752816064   -0.9894106809
 H   -0.6795213800    1.9923471548    0.7733531946
 H   -0.9813018317   -0.3438246778    0.0220962600
 H    0.2819827159   -1.2107194771   -1.8269238387
 H    1.6498409767   -0.1404324946   -1.5241014620
 H    0.9855795130   -2.6756118015    0.0602576629
 H    3.2099290466   -2.3820237969    1.1360656255
 H    4.8398134526   -0.7409779912    0.2310117950
 H    3.7622966805   -0.5511829647   -1.1558553834
 H    3.9056116275    1.2440590275    1.2702464281
 H    2.6678201917    1.3868192853    0.0280910526
 H    2.4681195921   -0.2070638799    2.6057610432
 H    0.2210805628   -0.9265998068    2.0112476710