18

 C   -0.0970191335    1.1494696018   -1.6674261772
 O    0.2324027109    0.4441321737   -0.4884126757
 C    1.0021847105   -0.7246866179   -0.7053215166
 C    1.5263352536   -1.1705578243    0.6558459308
 C    0.1773093625   -1.8131194001   -1.3833816556
 N    0.6146080551   -2.2350994536   -2.5175269732
 O   -0.1779868508   -3.2322972108   -3.0647169616
 C   -1.0058165751   -2.2803807337   -0.7446075133
 C   -1.9986060550   -2.6541819523   -0.1755732343
 H    0.8049560424    1.4582546068   -2.2176518942
 H   -0.7278736394    0.5587013685   -2.3455053152
 H   -0.6479323638    2.0410931269   -1.3593904944
 H    1.8415365497   -0.5100836139   -1.3836225050
 H    2.1634618553   -2.0529557997    0.5508582325
 H    2.1081948489   -0.3621939123    1.1055713173
 H    0.6943542441   -1.4135338434    1.3218661366
 H    0.2790035530   -3.4310459092   -3.8900159269
 H   -2.8781910184   -2.9868947566    0.3184846458