20

 C    0.0041045635    1.5987521499    0.1158108630
 C    0.0339622916    0.0698919837   -0.0133268455
 C    0.8495781642   -0.5739171215    1.1169844587
 C   -1.3850725069   -0.5063938357   -0.0564085601
 C   -2.3494576496   -0.1467176197   -1.2349979763
 C   -2.7373119314   -1.6470220072   -1.3969009280
 C   -1.5690569977   -1.9842442832   -0.4575487438
 O   -0.9597001886   -2.9889245539   -0.2215681944
 H    1.0189426359    2.0099165400    0.1029105347
 H   -0.5566839436    2.0653075890   -0.7005354095
 H   -0.4649061593    1.9012806752    1.0597588318
 H    0.5189422346   -0.1815381418   -0.9678413035
 H    0.4184507323   -0.3273338441    2.0950814316
 H    0.8642175983   -1.6618623114    1.0188970541
 H    1.8815724526   -0.2079329981    1.1088869970
 H   -1.8803674593   -0.3365544957    0.9105362402
 H   -3.1634177584    0.5403471613   -1.0017192175
 H   -1.8058022616    0.2333110411   -2.1039393233
 H   -3.7017503021   -1.8998211044   -0.9441367761
 H   -2.6968155543   -2.0912030534   -2.3944838530