15

 O   -0.4778225289    0.0740200748   -0.4164085658
 C   -0.2617040482    1.2110557463   -0.1278400267
 C   -1.1710854525    2.4235732200    0.2514434115
 C    0.0864310591    3.2846155606    0.0766613973
 O    1.0243192943    2.8069707178    1.0360439128
 C    0.9658316674    2.1238555437   -0.2343339421
 C    2.2268884141    1.9748190172   -1.0392449555
 C    3.1393757669    0.9796194901   -0.4836458111
 C    3.8874932908    0.1616649332   -0.0227257610
 H   -1.9503833803    2.5674340175   -0.5029140878
 H   -1.6065886282    2.4339801699    1.2519809588
 H    0.1801489961    4.3064547702   -0.2700080418
 H    1.9563689028    1.6974625252   -2.0659998995
 H    2.7227542448    2.9515932694   -1.0905470364
 H    4.5454514417   -0.5648777359    0.3856351073