20

 C   -0.2399536487    1.5341507746   -0.0505479099
 C   -0.0120846282    0.0271325150   -0.0167465897
 O   -1.2283353261   -0.6797224798   -0.1771071217
 C    1.1864660955   -0.4456841823   -0.9090388717
 C    2.0234263598   -0.5651021371    0.3704064995
 C    3.2613324715   -1.3712080332    0.6089955422
 C    3.3224401701    0.1414266763    0.6353858748
 C    0.7611337730   -0.4684119123    1.2360251221
 H    0.6923797293    2.0798394640    0.1239450705
 H   -0.6273843094    1.8467840686   -1.0289505379
 H   -0.9642905750    1.8266407012    0.7162335952
 H   -1.6732668218   -0.3358948474   -0.9595628038
 H    0.9648983753   -1.4172615192   -1.3608558237
 H    1.5390487730    0.2450694124   -1.6814151560
 H    3.3536109317   -1.9022683316    1.5513994871
 H    3.7094360065   -1.8851390103   -0.2358046811
 H    3.8119868641    0.6458830820   -0.1921690363
 H    3.4556014349    0.6294403155    1.5961486348
 H    0.7842218041    0.2025043012    2.0997131811
 H    0.3852642002   -1.4470292375    1.5478118743