17

 C   -0.1295076672    1.5080241511    0.0177236030
 C    0.0051319508   -0.0013242173   -0.0052941128
 O   -1.3266376878   -0.5542838767    0.0255258470
 C   -1.3965951250   -1.8814313373   -0.0022044914
 N   -0.4058622879   -2.7496348749   -0.0407800464
 C   -1.0778573437   -3.9461785345   -0.0534929472
 N   -0.3963783557   -5.1439508836   -0.1577698045
 N   -2.3962731137   -3.8705215220   -0.0176155248
 N   -2.5867712214   -2.5020116290    0.0090382171
 H    0.8632462268    1.9667973091   -0.0043953794
 H   -0.6932751029    1.8626729164   -0.8495982965
 H   -0.6435488212    1.8404263470    0.9239201363
 H    0.5133408129   -0.3558981564   -0.9077592481
 H    0.5632991682   -0.3776209501    0.8581553303
 H    0.5240961535   -5.1092109562    0.2553124889
 H   -0.9358647888   -5.9371902517    0.1579733046
 H   -3.5100533269   -2.1074319738    0.0324583240