18

 O    0.0795336163   -0.0825545056    0.2730612917
 C    0.1263018533    1.1278440040    0.3530230501
 N    1.2106688884    1.8707575458    0.0306714886
 C    2.5220911858    1.4519400399   -0.4628074108
 C    2.9281836510    2.9538594240   -0.4845194466
 C    1.5084185788    3.2983344613    0.0413473797
 C    0.5890213577    4.3280476503   -0.6554426758
 O    0.4948155551    5.1189681806    0.5439847577
 C    1.2741164602    4.1705897044    1.2965400755
 H   -0.7221865736    1.7516982013    0.7011040665
 H    3.0714905088    0.8173991244    0.2388067457
 H    2.4846564912    0.9518214490   -1.4350300765
 H    3.7355448948    3.2220069953    0.1987339239
 H    3.1483605172    3.3564607494   -1.4744686399
 H    1.0417647675    4.8836788194   -1.4864202460
 H   -0.3833014815    3.9300918905   -0.9730832330
 H    0.6913270806    3.6832416645    2.0886883989
 H    2.1724052184    4.6238341317    1.7345983504