24

 C   -0.2189862548    1.4752492104    0.1289134187
 C   -0.0323984929   -0.0256632059   -0.1208718134
 C    0.8119768919   -0.4343421618   -1.3584225474
 C    0.1926134437    0.1447321849   -2.6424224135
 C    2.2610907209    0.0753854111   -1.2226177550
 C    0.8614248156   -1.9678752651   -1.3688312276
 C   -0.1854476148   -2.8520481783   -1.9977137488
 C    1.2097333083   -2.8016351189   -2.5753941740
 H    0.7364624595    1.9917283061    0.2632901894
 H   -0.7509436898    1.9657759421   -0.6919817956
 H   -0.8066757823    1.6366713829    1.0383688680
 H    0.4308751458   -0.4748910044    0.7677413183
 H   -1.0188744599   -0.4971033299   -0.2153996864
 H    0.2547080503    1.2365754956   -2.6424895360
 H    0.7181786764   -0.2029720178   -3.5370188606
 H   -0.8639887444   -0.1230328038   -2.7433509494
 H    2.7252979326   -0.2982107015   -0.3028766440
 H    2.8696187963   -0.2690482468   -2.0650553654
 H    2.3099990306    1.1685479423   -1.2019695054
 H    1.2652116606   -2.3569046318   -0.4355782696
 H   -0.4957086124   -3.7433918666   -1.4630337261
 H   -0.9784884536   -2.3902250089   -2.5752702544
 H    1.3346935413   -2.3092252940   -3.5335919171
 H    1.8619986511   -3.6570814696   -2.4359629346