16

 C    0.0312249929    1.3842133627    0.1080312195
 N    0.0040255082   -0.0557159060    0.0039196803
 C   -0.1575072275   -0.8351792609   -1.0821999092
 N   -0.1185920005   -2.1086702881   -0.7524552468
 C    0.0772484474   -2.0641028218    0.6083464064
 N    0.1867566906   -3.1596856583    1.4403927927
 C    0.0917991733   -4.3202573062    0.9049813708
 N    0.2415914325   -5.4546280599    1.6367922213
 N    0.1575779687   -0.8322445739    1.1069970464
 H    0.9909517962    1.7168113241    0.5126521056
 H   -0.1096778782    1.8117236801   -0.8867256128
 H   -0.7682590654    1.7314065430    0.7680804683
 H   -0.2970650582   -0.4315521180   -2.0750906292
 H   -0.0792883168   -4.4796931140   -0.1633188880
 H   -0.0694601881   -6.3322080758    1.2595529339
 H    0.2641947350   -5.3614585772    2.6405581507