22

 C   -0.1184196375    1.3139550496    0.3712574478
 O   -0.0587436261   -0.0800552568    0.1676269560
 C   -1.3192970383   -0.6679337671   -0.1012476964
 C   -1.1073310666   -2.1899539342   -0.1617044697
 C   -0.2607212867   -2.5810938178   -1.3811184289
 O   -0.4578940263   -2.5935023140    1.0426390724
 C   -2.4632944090   -2.8805624476   -0.2045762070
 C   -2.6383667446   -4.2421282774    0.3495835028
 N   -3.2307736665   -3.0731059518    1.0328915789
 H    0.8959115143    1.6564729669    0.5889427604
 H   -0.4867879925    1.8364696650   -0.5241402754
 H   -0.7742456381    1.5723641224    1.2163945837
 H   -2.0315475176   -0.4248786910    0.7021401838
 H   -1.7316358133   -0.2907284825   -1.0502559457
 H    0.6743632630   -2.0148182272   -1.3923795395
 H   -0.0289342503   -3.6479991759   -1.3414600137
 H   -0.7961657708   -2.3756615896   -2.3144191016
 H    0.1945835642   -1.9064264930    1.2288853465
 H   -3.0700072081   -2.5881799323   -1.0601634036
 H   -3.3537840657   -4.9228878180   -0.1028424801
 H   -1.7737711366   -4.7110561589    0.8080394286
 H   -2.6133574570   -2.8335933187    1.8078285207