20

 C    0.1282488634    1.6219357566    0.0818209991
 C    0.0707780254    0.0927114328    0.0794298748
 C    0.6014356105   -0.5187845616   -1.2231591235
 N    2.0236428402   -0.1697956312   -1.4357656526
 C    2.6431326446   -1.2679716240   -1.5528197318
 O    1.9686809772   -2.4388197003   -1.4836525265
 C    0.5968646893   -2.0596699925   -1.2814756444
 C   -0.2238066917   -3.0017116986   -0.4593942532
 C   -0.4258815450   -2.9083414826   -1.9633430167
 H    1.1544657033    1.9687591884   -0.0605397882
 H   -0.4806529656    2.0403393014   -0.7275812885
 H   -0.2485897518    2.0265262923    1.0260253192
 H    0.6508522254   -0.3105671114    0.9181440881
 H   -0.9652902925   -0.2385943957    0.2251376751
 H    0.0220771610   -0.1060299739   -2.0603822646
 H    3.7106765039   -1.3773426381   -1.7100410296
 H    0.2785836765   -3.8839210604   -0.0789219338
 H   -0.9842409949   -2.5932208100    0.1964214241
 H   -1.3205100611   -2.4195107656   -2.3368706619
 H   -0.0672965180   -3.7318480957   -2.5705168249