17

 C   -0.0001935024    1.5396999872    0.0102403966
 C    0.0079150383    0.0094455428    0.0019349683
 C   -1.4075334085   -0.5775800226    0.0124495737
 N   -1.4294506715   -2.0446572452    0.0047732425
 C   -1.4113736887   -2.7147782763    1.2356404604
 O   -1.3771911726   -3.9006231205    1.4062906473
 C   -1.4349424372   -2.7014873846   -1.2333573985
 O   -1.4043270406   -3.8854282748   -1.4173826878
 H    1.0180913594    1.9374663202    0.0025308500
 H   -0.5205439209    1.9400166805   -0.8667691260
 H   -0.5034439579    1.9305118099    0.9014016920
 H    0.5391611890   -0.3625192337   -0.8826343175
 H    0.5561052588   -0.3719568772    0.8720280821
 H   -1.9543269316   -0.2326226239    0.8960835155
 H   -1.9712670361   -0.2231875073   -0.8566878128
 H   -1.4417697276   -1.9838111777    2.0693527614
 H   -1.4814445399   -1.9615986468   -2.0584120772