19

 C   -0.0795480187    1.4436000065   -0.2202586370
 N    0.3674766152    0.0875613588    0.0855124867
 C    0.7469576186   -0.7360588991   -0.9608060010
 C    0.6386666744   -2.0796007955   -1.1700319246
 C    1.3411445094   -2.3525501200   -2.3990074707
 C    1.5215270343   -3.6801528896   -3.0629384761
 C    1.8066270459   -1.1609704216   -2.8530503242
 N    2.5258655441   -0.8175883647   -3.9969183353
 O    1.4419532252   -0.1468706065   -1.9610080013
 H    0.7184721646    1.9781216615   -0.7387777587
 H   -0.9817566876    1.4798305384   -0.8502633571
 H   -0.2848768893    1.9642141645    0.7180930424
 H   -0.2464826183   -0.3978357775    0.7240558054
 H    0.1310373683   -2.7907342065   -0.5368509491
 H    0.5582504089   -4.1321422031   -3.3283488973
 H    2.1105910138   -3.5690239961   -3.9762410234
 H    2.0363450160   -4.3907064363   -2.4054760457
 H    3.3958350402   -0.3400125934   -3.7818869110
 H    1.9980714450   -0.2277993199   -4.6338317816