11

 N   -0.0882742454    1.3355191279    0.1563521701
 C    0.0856954302    0.0213996892   -0.1771222711
 O    1.1536948732   -0.4405819145   -0.5060807633
 C   -1.2256988211   -0.7925898821   -0.1649864692
 C   -1.0212437126   -2.2196492800    0.0153767644
 C   -0.8764692822   -3.4008185309    0.1721302164
 H    0.7314312076    1.9191642376    0.1974629326
 H   -0.9396389084    1.6795404024    0.5641041265
 H   -1.9039939076   -0.4063233206    0.6061570770
 H   -1.7222325653   -0.6027632631   -1.1266303002
 H   -0.7319970883   -4.4438627959    0.3075413967