21

 C    0.5656259817    1.3688640400   -0.1082219147
 O    0.7764051194   -0.0102706718   -0.3042569092
 C   -0.2527030869   -0.6220402444   -1.0502186764
 C    0.0597520600   -2.1065631987   -1.1312154652
 O   -0.9945450062   -2.7516355582   -1.8345121712
 C   -0.4415376857   -3.9784602487   -2.2345080615
 O    0.8993001333   -3.7345829692   -2.5904422424
 C    1.3290987268   -2.5376716027   -1.9203574973
 C    1.8530688383   -1.5526234205   -2.9564111282
 H    0.5203275193    1.9150432644   -1.0632365748
 H   -0.3683137787    1.5617441479    0.4422481424
 H    1.4066536052    1.7479406311    0.4769856329
 H   -1.2299699005   -0.4877992767   -0.5598505399
 H   -0.3275289420   -0.1888790835   -2.0589659082
 H    0.1268497644   -2.5042124528   -0.1060682973
 H   -0.4929897094   -4.7126740348   -1.4085582016
 H   -0.9940214975   -4.3527767209   -3.1021797827
 H    2.1303164303   -2.7937785905   -1.2167764774
 H    1.0673933299   -1.2777822455   -3.6663117911
 H    2.2299497105   -0.6501446331   -2.4678110182
 H    2.6685890481   -2.0146816915   -3.5191693381