11

 O   -0.1298855302    0.0046750547   -0.0028843892
 C   -0.0242930094    1.1964520392    0.0067279191
 C    1.3262106406    1.8963570363   -0.0020847981
 N    2.4318248607    1.2574802250   -0.0189365780
 C    3.6063690345    2.0275511837   -0.0253326690
 O    4.7138117726    1.5497863491   -0.0416441775
 C    3.3848783189    3.4953741995   -0.0114953269
 N    2.2477400963    4.0859475226    0.0052394144
 O    1.1357526463    3.2315577137    0.0103421236
 H   -0.8851588673    1.8925719095    0.0213215354
 H    4.2473949270    4.1559428866   -0.0155875740