19

 C    0.1238761465    1.6102976048   -0.0812242689
 C   -0.0572191284    0.1047780508    0.0563773850
 O    0.3177684011   -0.4550973304   -1.2120935048
 C    0.5951420418   -1.8448567493   -1.2492556013
 C   -0.3900275095   -2.7108586123   -0.4783025818
 O    0.2067220117   -3.7645395999    0.2881003000
 C   -0.3753918846   -2.6581071414    0.9934808754
 C    0.5541459888   -1.7114533340    1.6751410332
 C    0.7151445536   -0.4627563084    1.2377982911
 H    1.1812024171    1.8554553283   -0.2225146664
 H   -0.4329769701    1.9793017095   -0.9458412588
 H   -0.2384020078    2.1235664362    0.8148777479
 H   -1.1249769764   -0.1069428015    0.2182929794
 H    0.5916923006   -2.1096609500   -2.3112716826
 H    1.5928129096   -2.0648052654   -0.8494188728
 H   -1.3163860903   -2.9869540336   -0.9808521386
 H   -1.2823250136   -2.9293878376    1.5369596611
 H    1.1046718630   -2.0823487310    2.5363245373
 H    1.4193043470    0.2012689349    1.7338982655