15

 C   -0.0608172082    1.6087860369    0.0582899590
 C   -0.0841221319    0.0815253741   -0.0059811811
 O   -1.3982824596   -0.3850296474    0.1778698828
 C    0.7353522728   -0.4952847627   -1.2174322364
 C    1.9575372688   -0.7514672398   -0.2783752381
 C    0.9686835459   -0.6067765064    0.8821837396
 O    0.8681144459   -1.0969796201    1.9727713130
 H    0.9418086677    2.0116135896   -0.1158261945
 H   -0.7320188875    2.0084903751   -0.7080345816
 H   -0.4113973137    1.9497305948    1.0362753037
 H   -1.3945231235   -0.9419892221    0.9664803024
 H    0.2878682664   -1.4248283035   -1.5728063472
 H    0.8938078402    0.1850304144   -2.0551756064
 H    2.4789399957   -1.7081684559   -0.3426269824
 H    2.6933655811    0.0575340231   -0.3052688727