20

 C   -0.1095457715    1.3330968422   -0.5365819436
 C    0.1597621953   -0.1137694355   -0.1776656507
 O    1.2825825079   -0.7210454884   -0.9668685705
 C    1.9779984830   -0.8476359786    0.2851169119
 C    2.7085104952   -1.6408310212    1.4149907024
 N    2.0476392077   -0.4134804178    2.1418833665
 C    2.5790482087    0.3998063222    0.9701017583
 C    0.7903134302   -0.7406202416    1.1637926841
 C   -0.0746144154   -1.8652335003    1.7010904315
 H    0.7794744572    1.9617115867   -0.4914247964
 H   -0.4999164160    1.3844362322   -1.5584679629
 H   -0.8692448544    1.7464949902    0.1352459334
 H   -0.7455126685   -0.6984980748   -0.3717300468
 H    2.3136676126   -2.6119067374    1.7085844803
 H    3.7990013638   -1.6051373136    1.4790381279
 H    3.6660795439    0.5079355206    0.9687307200
 H    2.0852076085    1.3629491972    0.8665584386
 H    0.3594497261   -2.3290721884    2.5889724918
 H   -1.0538379630   -1.4671753594    1.9909251547
 H   -0.2478549813   -2.6447067444    0.9497692794