20

 C    0.2813609332    0.8210172420    0.5917318027
 O    0.2825613317   -0.4727616210    0.0370658561
 C    0.5907567961   -0.5205574950   -1.3457535765
 C    2.1139661532   -0.5235557678   -1.6305031157
 C    2.4910460786   -1.9911841088   -1.7541402254
 N    2.0030451240   -2.8078768323   -0.6223178494
 C    1.2634489406   -2.8056464071   -1.9029058143
 C    0.0507505828   -1.8863763884   -1.8907632892
 O   -1.0637824799   -2.3578330071   -1.1788537029
 H    1.2760750551    1.2890636697    0.5551050465
 H   -0.4308467698    1.4826302186    0.0742810474
 H   -0.0183384688    0.7239893427    1.6379712347
 H    0.0899562595    0.3192688858   -1.8475496515
 H    2.3255347201   -0.0086046570   -2.5749795569
 H    2.6677554242   -0.0078188547   -0.8398290917
 H    3.4224895080   -2.2671072398   -2.2385666914
 H    2.5544591942   -3.6608046961   -0.5653774149
 H    1.2334732434   -3.7123296436   -2.4984350202
 H   -0.2727248956   -1.7440158439   -2.9299862308
 H   -0.8977295805   -2.1107044464   -0.2589096166