15

 C   -0.0202955119    1.4266462178    0.0387816622
 N    0.0487575160   -0.0133831204   -0.0778654264
 C    0.6405858313   -0.6508861545   -1.0944384628
 N    1.2095553769    0.0087451888   -2.0737253888
 N    1.7568793148   -0.8033138222   -3.0133133876
 N    1.7869337103   -2.1156892154   -3.0625344616
 N    1.2382795059   -2.7942258290   -2.1182290094
 C    0.6216838578   -2.1242127730   -1.0595508315
 N    0.0477323179   -2.7049780038   -0.0721082422
 H    0.9817395979    1.8686810189    0.0745852165
 H   -0.5493022985    1.8672716025   -0.8137250734
 H   -0.5528697729    1.6798989010    0.9562508547
 H   -0.3529647411   -0.6309874854    0.6137367807
 H    2.2057744479   -0.3369804830   -3.7857605474
 H    0.1132249076   -3.7185094024   -0.1830400427