17

 C   -0.0390534834    1.5110468661    0.0291482914
 C   -0.0184885918   -0.0207199830   -0.0144540367
 N   -1.3432761378   -0.6379837471    0.0196996812
 C   -2.1091977102   -0.7155981432   -1.2147861786
 C   -1.9590776196   -0.7736868630    1.2161738515
 N   -1.4323636948   -0.4917546598    2.3884201283
 O   -2.4166623483   -0.8616938257    3.2755275499
 N   -3.4994689701   -1.3303075925    2.5841657651
 N   -3.2473728887   -1.2830768182    1.3510566703
 H    0.9832744467    1.8991587140   -0.0110985270
 H   -0.5907931734    1.9293751446   -0.8183730231
 H   -0.5007070601    1.8645589012    0.9547199841
 H    0.4734386999   -0.3705136955   -0.9283372845
 H    0.5508523298   -0.4104029727    0.8342413305
 H   -1.4915013357   -1.1786407629   -1.9904193491
 H   -2.9958085534   -1.3288687848   -1.0580207876
 H   -2.4295999491    0.2731158826   -1.5709751058