19

 C   -0.0018509346    1.2324117654    0.3036122510
 O    0.0171353017   -0.1456585884    0.0141649333
 C    0.6215750549   -0.4767526779   -1.2317828113
 C    2.1252749138   -0.5200259892   -1.1450802100
 C    2.8826821153   -1.4407784415   -1.7365440062
 C    2.3393688665   -2.5775122671   -2.5565566129
 C    0.8574773931   -2.8001990819   -2.3528780697
 O    0.4286295692   -2.9691319271   -1.0017021256
 C    0.0216781154   -1.7875105432   -1.6906146928
 H    1.0062681570    1.6582968800    0.4178250908
 H   -0.5278090323    1.8048417483   -0.4774227036
 H   -0.5353580831    1.3542475076    1.2494894508
 H    0.3246437975    0.2846317983   -1.9783620316
 H    2.5903410107    0.2717408700   -0.5646985373
 H    3.9638539262   -1.3914585611   -1.6338619806
 H    2.5271433556   -2.4013248459   -3.6261487147
 H    2.8763336798   -3.5043107380   -2.3132051905
 H    0.3803255173   -3.4781777463   -3.0614036889
 H   -1.0448104839   -1.7434887819   -1.9100411104