20

 C    0.1083366056    1.5393581142   -0.0829059550
 C    0.0228985622    0.0141821725    0.0139235184
 C    0.7062383120   -0.5453630060    1.2657538641
 C    0.6430887670   -2.0749711526    1.3521155751
 O    1.3003243742   -2.6658043508    0.2218004379
 C    2.3081957136   -3.5777213193    0.6462437616
 C    2.2993550815   -3.5017382710    2.1471119368
 C    1.3515791549   -2.6618883354    2.5446078310
 H    1.1505970932    1.8764070368   -0.1134887358
 H   -0.3867475373    1.9101388314   -0.9860098160
 H   -0.3676603473    2.0209314694    0.7790037049
 H   -1.0306923756   -0.2965016887    0.0094866986
 H    0.4814835677   -0.4450180578   -0.8682907410
 H    1.7603343080   -0.2404196652    1.2880448816
 H    0.2351962655   -0.1276122157    2.1666300858
 H   -0.4190205740   -2.3791305884    1.3360823723
 H    2.0791200239   -4.5917917280    0.2792049138
 H    3.2793328161   -3.2919180436    0.2124072463
 H    2.9753767055   -4.0692855311    2.7740269253
 H    1.0944216432   -2.4031628907    3.5640172140