21

 C   -0.0908750921    1.5260300087   -0.0295813787
 C    0.0492982223   -0.0020210787    0.0118946956
 C    0.7209326972   -0.5314714443   -1.2562597365
 O   -0.0929870507   -0.1745195672   -2.3660551680
 C    0.8214633129   -0.4485161973    1.2549728709
 C    0.1348565204   -0.1119094310    2.5956667399
 O    0.4400630697   -1.2278618951    3.4170377735
 C    0.4191626524   -2.3206311961    2.5379950952
 O    0.9576950185   -1.8768698659    1.3083715303
 H    0.8933650938    2.0093736610    0.0009043404
 H   -0.5852258401    1.8296096254   -0.9540573290
 H   -0.6771582297    1.9051399910    0.8134739550
 H   -0.9515145764   -0.4525972312    0.0571467403
 H    1.7299400071   -0.0932619298   -1.3468880635
 H    0.8350884055   -1.6201231987   -1.1763233204
 H    0.3130498196   -0.5301060926   -3.1613537172
 H    1.8342464188   -0.0197449499    1.2292254584
 H    0.5213631626    0.7875383957    3.0773443342
 H   -0.9540901250   -0.0094971113    2.4612507252
 H    1.0430348826   -3.1202923133    2.9497365732
 H   -0.6138277594   -2.6855568692    2.3885450314