21

 O    0.4973052799    0.8575241046   -0.7205316305
 C    0.1366203605   -0.2221161438    0.1011856335
 C    0.0014348758   -0.0313336648    1.6298462972
 C   -1.1610425076   -1.0570932367    1.6003757478
 C   -1.3213223445   -0.8099700272    0.0604411021
 C   -2.4223932262    0.2060773237   -0.3425685502
 C   -3.5290357300   -0.6206153486   -1.0479957589
 C   -2.8144322050   -1.8992482911   -1.4125509488
 C   -1.6273747538   -1.9907646732   -0.8152825002
 H   -0.0094088236    1.6277753947   -0.4432372951
 H    0.8547363730   -1.0162487830   -0.1296447506
 H    0.8726015522   -0.2406625334    2.2546410443
 H   -0.3612895810    0.9759710021    1.8658481698
 H   -0.8175532296   -2.0736297257    1.8122562269
 H   -2.0355042769   -0.8503974905    2.2218954102
 H   -2.8020104572    0.7861410334    0.5036708595
 H   -1.9966400274    0.9120069326   -1.0646790100
 H   -4.3779359916   -0.8268704075   -0.3812096031
 H   -3.9455528895   -0.1000217801   -1.9178106215
 H   -3.2526410402   -2.6523491454   -2.0586133717
 H   -0.9461312973   -2.8324025500   -0.8954090904