17

 C   -0.1212384614    1.4198215064   -0.0539212690
 N   -0.2534713286   -0.0304569979    0.0067280258
 C    0.2670675529   -0.6475312217    1.2183612235
 C   -0.0647454116   -0.6861701243   -1.1882909844
 N    0.1276023109   -0.0999411061   -2.3365602085
 N    0.1530325123   -1.1540194233   -3.2439538060
 C    0.0139383337   -2.3928893599   -2.6778139819
 O    0.0014175677   -3.4962576374   -3.1795220977
 N   -0.1166866375   -2.0572263307   -1.3166705767
 H    0.9248736734    1.7440814697   -0.1574287908
 H   -0.6776654932    1.7953985955   -0.9130523598
 H   -0.5358219990    1.8465316425    0.8630430731
 H   -0.0442389468   -1.6922881311    1.2919027934
 H    1.3658808289   -0.6076845912    1.2842822322
 H   -0.1488722732   -0.1239776458    2.0827896198
 H    0.3025666560   -0.9714789758   -4.2193192438
 H   -0.3315385846   -2.7414060991   -0.6144235593