19

 C    0.0995214449    1.4185887950    0.1190625265
 C    0.0009941654   -0.0754752731    0.0718935248
 C    0.5407727656   -1.0529189300   -0.9557617105
 C    1.2823678012   -1.0021345894    0.3445159476
 C    0.5097504081   -2.1479848427    0.9568031533
 C   -0.1628304079   -2.0928949169    2.1235051599
 C   -1.5611579319   -1.5598594113    1.7895415338
 C   -1.2695595458   -0.9683163762    0.3638275720
 C   -0.4211426216   -2.0781111708   -0.2870415615
 H    1.0572397844    1.7637819336   -0.2857052103
 H   -0.6959671469    1.8899081598   -0.4713096417
 H    0.0178758204    1.7967101678    1.1454437571
 H    0.8613776436   -0.9119001364   -1.9787708852
 H    2.2251591880   -0.5283676729    0.5923655876
 H    0.3077574010   -1.8466347169    3.0706673940
 H   -2.3841554958   -2.2857942132    1.7147424471
 H   -1.8580108597   -0.8303027014    2.5526470563
 H   -2.1437892762   -0.5967920031   -0.1832826197
 H   -0.8342455369   -2.9751622620   -0.7438939613