20

 C    0.0234813197    1.4780313780    0.0757956167
 C   -0.0273362001   -0.0288402000   -0.0393248893
 C    0.6380873425   -0.6490443244   -1.2925090433
 C    0.1038319230   -2.1168360337   -1.2689429718
 C   -0.7579707241   -2.1397441030    0.0159980808
 C    0.1847676662   -1.9630917280    1.2164160310
 O    0.6317822858   -0.6009605915    1.1137632625
 C   -1.3952075014   -0.7362259954   -0.0157232194
 H    1.0603532034    1.8282009189    0.0850509462
 H   -0.4889159645    1.9468379707   -0.7698009272
 H   -0.4536977103    1.8088363764    1.0026614434
 H    0.3440127913   -0.1207372814   -2.2051529254
 H    1.7255795848   -0.5898002332   -1.2046539475
 H   -0.5098851608   -2.3317806087   -2.1490042398
 H    0.9054425865   -2.8604612438   -1.2405104597
 H   -1.4321937053   -2.9931433217    0.1024700656
 H   -0.3292854396   -2.1078440690    2.1767877426
 H    1.0458266019   -2.6432788413    1.1830651068
 H   -1.9778985122   -0.4902716884    0.8764740455
 H   -1.9965421968   -0.5521260307   -0.9105421479