18

 O    0.2018987876    1.3369426054    0.0639779731
 C    0.0377825648   -0.0545573036    0.1136022356
 C    0.0825327412   -0.6902640822    1.5383731064
 C   -1.4775995295   -0.8476276223    1.5276487519
 C   -2.1749422043    0.2521290195    2.2844635783
 O   -1.8628076010    1.4208116049    2.2000052218
 C   -1.4182381038   -0.5454254134    0.0039784496
 C   -2.4606095912   -0.0835230923   -0.9314419519
 N   -1.9489084110   -1.4691897857   -0.9873419108
 H   -0.4048279119    1.7122414067    0.7224723143
 H    0.7340301457   -0.4774327987   -0.6179140495
 H    0.5827011603   -1.6604208008    1.5598258262
 H    0.4960756754   -0.0428117317    2.3134300787
 H   -1.8776524284   -1.8282626886    1.7890845367
 H   -3.0215691884   -0.0468793631    2.9372505581
 H   -3.4937484621    0.0059574351   -0.6066040465
 H   -2.1588795234    0.6249811267   -1.6983298947
 H   -1.2892338402   -1.5724783858   -1.7561498672