15

 C   -0.3200987401    1.4066748571   -0.0393860002
 N    0.0519089633   -0.0086837635   -0.0118263553
 C    0.4389188543   -0.6000290839    1.1769564237
 O    0.4523052785   -0.0417550119    2.2473516943
 C   -0.0194031985   -0.7608356239   -1.1702008247
 C   -0.5409918343   -1.9722483499   -1.4912253518
 N   -0.2458661957   -2.2566328611   -2.8192757127
 C    0.4030594823   -1.2197238183   -3.2305098917
 O    0.5975638565   -0.2612297202   -2.2909827411
 H    0.3300406074    1.9601710195   -0.7215648193
 H   -1.3593076571    1.5210865762   -0.3619360003
 H   -0.2046377466    1.7878347017    0.9746166721
 H    0.7353894464   -1.6526293862    1.0237581443
 H   -1.1106711528   -2.6452543640   -0.8716446758
 H    0.7902921265   -1.0145735015   -4.2159835915