19

 C   -0.0395311598    1.5640374632   -0.0452678588
 C    0.0214853633    0.0554827049   -0.0060421588
 C   -0.8648792790   -0.7410974960    0.9320747721
 C    0.6354791999   -0.7484952393    1.1354205380
 C    1.4722387882   -1.8843581452    0.5359816978
 C    1.1182951628   -3.2522216401    1.0988275905
 O    1.9229232525   -4.0646724829    1.4758363701
 C    1.1674048992   -1.7751838892   -0.9513812624
 C    0.4107812886   -0.7109484473   -1.2292289916
 H    0.9109615787    1.9939363908   -0.3797439198
 H   -0.8221359307    1.9106232331   -0.7303374645
 H   -0.2643004885    1.9739819765    0.9440962620
 H   -1.4398016768   -0.1861781683    1.6673305098
 H   -1.3671581789   -1.6175819846    0.5387725131
 H    1.0170556171   -0.2476719738    2.0175168629
 H    2.5429307768   -1.7429856798    0.7273783985
 H    0.0264013786   -3.4635538421    1.1359665508
 H    1.5327240775   -2.5013899090   -1.6680357744
 H    0.0916095204   -0.4152922308   -2.2232422953