19

 N    0.6327651908    0.1158097673   -0.9220306427
 C   -0.1032091683    0.2207067806    0.2161919137
 O    0.2407194396    0.8539221181    1.1990938990
 C   -1.3948171153   -0.5573355442    0.1898603984
 C   -2.5005995344   -0.1493500514    1.1508046289
 C   -3.4505167142   -1.3679715060    1.2066091040
 C   -2.5562906395   -2.5949499518    0.9062770052
 C   -1.4338123653   -2.0497094729    0.0397852576
 N   -1.7724685715   -1.1818699081   -1.0934052305
 H    1.4745624394    0.6608321771   -0.9998897926
 H    0.2061881400   -0.2932514188   -1.7382876389
 H   -2.0353966893    0.0524049059    2.1196402419
 H   -3.0113461093    0.7692432595    0.8432796627
 H   -3.9621637551   -1.4525584685    2.1679900505
 H   -4.2370494002   -1.2766419829    0.4496202167
 H   -2.1179660547   -2.9941253944    1.8284521676
 H   -3.1054709461   -3.4146446280    0.4302466983
 H   -0.5276989821   -2.6333963165   -0.0921523904
 H   -2.7760718344   -1.1319892750   -1.2504062994