22

 C    0.2621561233    1.4043772652   -0.3193385783
 C    0.1066267709   -0.0395577762    0.0987293258
 N    1.3344262623   -0.8357531111    0.2598045399
 C    0.4811525228   -0.5840517240    1.4331111245
 C    1.0722305334    0.2400827286    2.5445354365
 O    1.7614866229   -0.6340332705    3.4188655500
 C    2.3880990913    0.0173385447    4.5085903958
 C    3.2552792912   -1.0272318213    5.1938352109
 O    4.2192096979   -1.5520174462    4.3041061209
 H    1.1489466914    1.8569622006    0.1288247733
 H    0.3686370595    1.4747300038   -1.4071172707
 H   -0.6155421933    1.9925062634   -0.0297014516
 H   -0.7409814672   -0.5405714188   -0.3688306134
 H    1.2023746875   -1.7830771808   -0.0827398557
 H   -0.1219905966   -1.4133674236    1.8002722650
 H    1.7605550908    0.9953367929    2.1403536766
 H    0.2727289173    0.7681252283    3.0920315399
 H    3.0171595808    0.8460260455    4.1462636707
 H    1.6403528276    0.4314323638    5.2053981104
 H    3.7938311521   -0.5721416854    6.0317879115
 H    2.6059826075   -1.8199798638    5.5998482466
 H    3.7378057964   -1.7503152651    3.4914379714