16

 C   -0.4125465691    0.8890324353    0.5264431261
 C    0.3023205103   -0.3989506943    0.1206951343
 N    0.7368587558   -0.3975894677   -1.2861933510
 C    2.0412412328   -0.0907180998   -1.5783334078
 O    2.5517933423   -0.0229970832   -2.6810224459
 C   -0.2798634045   -0.7081787937   -2.2529806517
 N    0.1260588410   -0.6892303268   -3.5387848692
 O   -1.4063827575   -0.9648110307   -1.8770853137
 H    0.2367013840    1.7607732160    0.3961656908
 H   -1.3127773659    1.0254462059   -0.0760188230
 H   -0.7066245853    0.8367165215    1.5792796211
 H    1.1937835671   -0.5579516597    0.7340875172
 H   -0.3586263721   -1.2556068437    0.2554989962
 H    2.6268899970    0.0988953802   -0.6618167646
 H    1.0848321601   -0.4597667835   -3.7684692893
 H   -0.5684673261   -0.8985282058   -4.2342327895