20

 C   -0.0566587597    1.5973672546   -0.0044799619
 C    0.0116858819    0.0738320631    0.0237627469
 O    0.7530131977   -0.3984346357    1.1503724388
 C   -1.3852791761   -0.5664420393    0.0095251847
 N   -2.1817769993   -0.1349037243   -1.1574571321
 C   -2.7287605115   -1.1865243670   -1.6068685880
 O   -2.4868900498   -2.3793688561   -1.0280803978
 C   -1.4355728944   -2.1290129230   -0.0382012993
 C   -0.1809085007   -2.8679960567   -0.4808061767
 H    0.9522061875    2.0184607947    0.0144428343
 H   -0.5803904214    1.9434760667   -0.8977110639
 H   -0.6042971166    1.9751775447    0.8691753185
 H    0.5733425689   -0.2762320288   -0.8485094162
 H    0.3910053727    0.0268641147    1.9358206169
 H   -1.9037563153   -0.2121465149    0.9140895470
 H   -3.4092165600   -1.2253055717   -2.4512289927
 H   -1.7984818501   -2.5421611972    0.9055532458
 H    0.1567696559   -2.5203234179   -1.4617259711
 H    0.6207255215   -2.7084299687    0.2426599876
 H   -0.3905596110   -3.9383386872   -0.5561226508