14

 C    0.0546582415   -3.7457063852   -0.0170554261
 C    0.0335763745   -2.5384283657   -0.0139790325
 C    0.0107147911   -1.1791934354   -0.0096138329
 C   -0.0058551162    0.0309287756   -0.0030147317
 C   -0.0155286238    1.4645924481    0.0113500162
 C    0.5028147392    2.1954450244    1.2637687583
 C    1.3299719069    2.2134331417    0.0272448304
 C   -1.1003293439    2.0965424937   -0.7051152456
 N   -1.9614725766    2.6186064815   -1.2732036321
 H    0.0707908985   -4.8074950973   -0.0217152804
 H   -0.0325907648    3.0940188264    1.5452966950
 H    0.8019865667    1.5542724078    2.0834941610
 H    2.2103702995    1.5849081080   -0.0218707374
 H    1.3736484874    3.1245947664   -0.5569019622