23

 C   -0.0219005297    1.5386847056   -0.1442056575
 C    1.3942743931    2.1404478638   -0.0400753855
 C    2.2637761276    1.5240185213    1.0760677431
 C    1.7825027957    1.7953034699    2.5176030778
 C    0.4998499060    1.0316853091    2.8877400271
 O    0.4790872795   -0.3169361406    2.4384699278
 C    0.9068054478   -0.5497228288    1.0943860110
 C   -0.0458613999    0.0034655775    0.0153021840
 C    2.3215212369   -0.0000190264    0.8881385163
 H   -0.6715777249    1.9969995470    0.6058645471
 H   -0.4598865584    1.8084040800   -1.1121466242
 H    1.9215896452    1.9813055001   -0.9903235690
 H    1.3238977677    3.2270708895    0.0907488084
 H    3.2712356084    1.9457380433    0.9786716540
 H    2.5847057248    1.4859873482    3.1988987633
 H    1.6191119059    2.8669431752    2.6848695792
 H    0.4024412425    0.9738971473    3.9770895669
 H   -0.3850593442    1.5701157828    2.5232912858
 H    0.9093083798   -1.6420234249    1.0151879875
 H   -1.0649491020   -0.3402734912    0.2223337280
 H    0.2541667759   -0.4626950319   -0.9329603631
 H    2.6842809492   -0.2593133245   -0.1135998688
 H    3.0001620231   -0.4572534420    1.6164792609