19

 C    0.2132724211   -1.0293545837    0.6688787237
 C    0.0725733368    0.1103202586    0.3026259584
 C   -0.0349139675    1.4545555788   -0.1556025921
 C   -1.1548577930    2.1672783697    0.0487010523
 C   -1.3697023351    3.5734079701   -0.4296560150
 C   -0.0930244423    4.3039575039   -0.8041469951
 C    1.0430401427    4.3851468000    0.1871178592
 C    1.1723715909    3.5159971546   -1.0399971940
 C    1.1620772474    2.0037503519   -0.9104471840
 H    0.3192056637   -2.0333632676    0.9970900468
 H   -1.9803952735    1.6978345911    0.5759251806
 H   -2.0409260988    3.5454234637   -1.3022486864
 H   -1.9210825116    4.1375828426    0.3357148306
 H   -0.2460433092    5.1781721372   -1.4296456317
 H    1.6228619136    5.3002657065    0.2340579218
 H    0.9113080842    3.8883501238    1.1434009427
 H    1.8354527177    3.8846289768   -1.8170319277
 H    2.0816335297    1.6559388100   -0.4234196665
 H    1.1714045131    1.5512548119   -1.9119089335