18

 O   -0.2399139107    1.3875084699    0.8214593013
 C   -0.0502262943    0.1537807536    0.1695867024
 C    0.5561538419   -0.9967245345    1.0259327851
 C   -0.8257772375   -1.7055600625    1.0386217616
 N   -1.6766488798   -1.3637341379    2.1574799730
 C   -2.7636426037   -0.5630899979    1.8842605291
 O   -3.6130869206   -0.2398700080    2.6828861160
 C   -2.6717835222   -0.1637802965    0.4047004734
 C   -1.3357917292   -0.7250204802   -0.0682022538
 H   -0.5580548279    1.2212799217    1.7155087687
 H    0.4992279865    0.3915709176   -0.7439544685
 H    1.3162208963   -1.5688232593    0.4867967140
 H    0.9614540506   -0.7035990694    1.9985361628
 H   -0.8281542246   -2.7805916700    0.8327276707
 H   -1.5927691842   -1.7900322667    3.0677992704
 H   -3.5290722892   -0.5901166326   -0.1246770225
 H   -2.7321699197    0.9236254715    0.3162303273
 H   -1.3608607816   -1.1534173988   -1.0704700511