17

 C    0.2317142760    1.4762282236    0.0850582477
 C   -0.0348617515   -0.0257002252   -0.0363193437
 C    0.6636022933   -0.6448166519   -1.3085499233
 C    1.8720213551   -1.2698359758   -0.6883982616
 N    3.0249980738   -1.8289167898   -1.0230240198
 N    3.5298253641   -2.1678482726    0.1675578749
 N    2.7900790208   -1.8661296400    1.2633964236
 C    1.7345340142   -1.2993101696    0.7022089497
 N    0.5201634951   -0.7832703146    1.1322525396
 H    1.3080616769    1.6796710669    0.0945933321
 H   -0.2122722897    2.0175481317   -0.7568061869
 H   -0.2025228834    1.8800858948    1.0062226577
 H   -1.1142289232   -0.1985147059   -0.0785976782
 H    0.0174809978   -1.3919897065   -1.7831271681
 H    0.8779834543    0.1253465779   -2.0548938819
 H    4.4374098533   -2.5912626797    0.2535031422
 H    0.5236838933   -0.2696409735    2.0037327160