18

 C   -0.0110995585    1.4993720779   -0.0090367519
 C    0.0113223533   -0.0193783151   -0.0141192367
 O    0.6777220220   -0.4552939809   -1.1832169510
 C    0.7549721875   -1.8584316283   -1.2881306324
 C    1.4747885801   -2.1958694306   -2.5525611006
 C    2.0007548602   -1.3530003309   -3.5009399613
 N    2.5306128970   -2.1974944492   -4.4182764427
 N    2.3508996558   -3.4839222843   -4.0718283264
 N    1.7092768320   -3.4826938090   -2.9380615533
 H    1.0072777167    1.8981430962   -0.0178024779
 H   -0.5364850538    1.8782732612   -0.8902803141
 H   -0.5211897963    1.8695498135    0.8850878995
 H    0.5284452059   -0.4034060053    0.8811727096
 H   -1.0147342270   -0.4232564793    0.0089637565
 H    1.2867051849   -2.2906215304   -0.4235411857
 H   -0.2514582724   -2.3102168938   -1.2939566527
 H    2.0348774141   -0.2816281275   -3.5852910025
 H    3.0130853985   -1.9814486643   -5.2756915764