19

 C   -0.1729600341    1.5939164331    0.2313474423
 C    0.0035718260    0.1162320791    0.0254597037
 C   -1.1516312844   -0.8853617576   -0.1437579705
 C   -0.3672751284   -1.9365744837    0.6997974982
 C    0.7952325620   -0.9490928090    0.8403837407
 C    1.2576537451   -0.4808908115   -0.5075533390
 O    1.2180370982   -1.2984395324   -1.6685213148
 C    2.0743374955   -2.3411213829   -1.7007917398
 O    2.1622593738   -3.0723009906   -2.6409886179
 H    0.7738190186    2.0799423563    0.4880887964
 H   -0.5562401544    2.0721568306   -0.6780534356
 H   -0.8844372010    1.7981649072    1.0389285272
 H   -2.0630525353   -0.5495334264    0.3553767533
 H   -1.3888740842   -1.1590269686   -1.1744884997
 H   -0.8506923510   -2.1422319494    1.6564935903
 H   -0.1389775288   -2.8903850699    0.2149702390
 H    1.4221768457   -0.8294262071    1.7174806216
 H    2.1192029266    0.1825343619   -0.5012126138
 H    2.6692780404   -2.4340441892   -0.7726503816