23

 C   -0.4566999577    1.5187752235    0.2696582099
 C   -0.0544267925    0.0645639974    0.0530004316
 C   -1.2435919883   -0.7690769229   -0.4229205624
 O   -1.6822618084   -0.2560649932   -1.6748111864
 C    1.2056146132   -0.1837728226   -0.8397852379
 C    1.7709164705   -1.1621741670    0.2294883916
 C    0.6985101660   -0.6541673781    1.2012692973
 C    0.9724624247   -0.0969914877    2.5678512993
 C    0.1397859072   -1.3488534961    2.4102037114
 H    0.4003764367    2.1209663759    0.5856302047
 H   -0.8595214481    1.9431006502   -0.6541129532
 H   -1.2326535463    1.6073719507    1.0404980119
 H   -0.9436358161   -1.8248013798   -0.5132040838
 H   -2.0497301769   -0.7212801743    0.3275439561
 H   -2.4287035852   -0.7838553517   -1.9719319486
 H    1.0058265810   -0.5882725732   -1.8336958732
 H    1.8153766592    0.7169663285   -0.9459937540
 H    1.6448225117   -2.2151691498   -0.0421391911
 H    2.8112141933   -1.0093158722    0.5298969983
 H    1.9790682139   -0.1964645886    2.9626094025
 H    0.4657356609    0.8144965082    2.8685080635
 H   -0.9249870668   -1.2750052019    2.6091068368
 H    0.5782538881   -2.2994989155    2.6984045756