16

 C   -0.7390675655   -0.0541725958    1.3377269263
 C   -0.1705098381    0.3086837787    0.3426859743
 C    0.5302871677    0.7668840025   -0.8502254964
 C    1.6888315437    1.7039992495   -0.5552359078
 C    2.6132906119    1.5367667132    0.6327689511
 C    1.7678983665    2.7741349458    0.5211498814
 O    2.3715855623    3.8977190177   -0.1100083311
 C    2.6499748788    3.4792219404   -1.3705406769
 N    2.3035668246    2.3069460341   -1.7233083252
 H   -1.2526175492   -0.3860371351    2.2059845977
 H    0.9141927749   -0.0937309546   -1.4128221741
 H   -0.1720467396    1.2798261732   -1.5190646896
 H    2.2958296566    0.8324749710    1.3935291587
 H    3.6829150283    1.6074136799    0.4664235813
 H    1.0117576446    3.0431668499    1.2460699355
 H    3.1575021324    4.2076591997   -1.9909415751