18

 O    0.1624845778    1.3885170016   -0.1032645405
 C    0.0739136404   -0.0152135350   -0.0510904754
 C    0.3382108977   -0.6379263089    1.3721637715
 C   -1.1386527372   -1.0759591312    1.4219441183
 C   -2.2783925049   -0.6943242797    2.3529415602
 C   -3.1709213359    0.1375077184    1.4293960508
 C   -2.6674520470    0.3019282411    0.1978665593
 C   -1.3967694840   -0.4571705794    0.0771959288
 N   -1.5031123697   -1.9079554011    0.2776679247
 H    1.0924629704    1.6331618548   -0.0587346792
 H    0.6245053005   -0.4790990706   -0.8848754369
 H    1.0904541719   -1.4296420462    1.4679212872
 H    0.5629347402    0.1642256823    2.0800596438
 H   -2.8103450039   -1.5633114743    2.7571301579
 H   -1.9272923363   -0.1061353001    3.2104413155
 H   -4.1376527024    0.5101153200    1.7542460593
 H   -3.1341126468    0.8646040139   -0.6010844773
 H   -0.6964882908   -2.4042202855   -0.0985497181