18

 C    0.1473320097    1.6491437175    0.7167064938
 C   -0.1620632946    0.3589755679   -0.0620556747
 C    0.6142374561   -0.8000907755    0.5633395664
 O    1.4848201823   -1.4136941982    0.0080934541
 C   -1.6504458910    0.0158730481    0.0276068374
 O   -2.3059707519    0.2084573644    1.0281486109
 N   -2.1429009802   -0.6681475391   -1.0774441047
 C   -2.3419525415   -0.1142779092   -2.4054678278
 C   -3.4998805593   -0.5369903127   -1.5476979482
 H    1.2206110336    1.8572955795    0.7064507672
 H   -0.3734507863    2.5006932555    0.2703150746
 H   -0.1914512506    1.5570113232    1.7509093941
 H    0.1571867271    0.4276370953   -1.1045465491
 H    0.3148844478   -1.0209133505    1.6121397550
 H   -2.1811973558    0.9528169791   -2.5394242336
 H   -2.0184394086   -0.7370017725   -3.2345098667
 H   -4.0179649523   -1.4659246395   -1.7662933764
 H   -4.1061594445    0.2375236667   -1.0860841123