16

 C   -0.0591946013    1.4396973338   -0.1159080011
 C    0.0441873976   -0.0772329685   -0.0451336711
 O    0.7810389760   -0.5195300687    1.1104166928
 C    2.1217925504   -0.6113096393    0.9914652457
 N    2.7337139378   -0.3154978401   -0.0833185631
 C    2.7275542288   -1.0766134216    2.2083686120
 C    3.2806786943   -1.4617716475    3.2035598642
 C   -1.3072286192   -0.7713451661    0.0502653290
 O   -2.3048044377   -0.3658794665   -0.4840528202
 H    0.9189622199    1.8766428024   -0.3222441773
 H   -0.7542463866    1.7089385162   -0.9144892629
 H   -0.4442213250    1.8397479607    0.8261174075
 H    0.5495415998   -0.4603789499   -0.9419106183
 H    3.7345758551   -0.4632832116    0.0178823994
 H    3.7664598949   -1.8024812231    4.0852748139
 H   -1.2885261647   -1.7109671204    0.6444057694