17

 O   -0.0855879874    1.4059293181   -0.0341957377
 C   -0.0367374176    0.0127408868    0.0184813338
 C   -0.5114705862   -0.7060675874    1.2398375377
 C   -1.3834491538   -0.6637859672   -0.0091526355
 C   -2.6966726586    0.0870305576   -0.1237983503
 O   -3.6563777532   -0.8953146696   -0.5364815092
 C   -3.0022467856   -1.8818221878   -1.3088480296
 C   -1.5545945667   -1.9104534668   -0.8151831453
 O   -0.7215464237   -2.7547796594   -1.0349648532
 H    0.6349061302    1.7534951274    0.5021094117
 H    0.7467831427   -0.4605810338   -0.5731819390
 H   -0.0572007364   -1.6619570037    1.4797185842
 H   -0.8466418582   -0.1063263383    2.0797221535
 H   -3.0501791145    0.5149575570    0.8168583648
 H   -2.6238289208    0.8950586062   -0.8663537086
 H   -3.5000515985   -2.8457119516   -1.1713343763
 H   -3.0058971817   -1.6421427673   -2.3867002909