22

 C   -0.1761441885    1.3934525014   -0.4381195596
 C   -0.1013214825   -0.0831929590   -0.2035509150
 C   -1.0946108182   -0.9359839635    0.0898559851
 C   -0.5636019204   -2.3304713289    0.3786957436
 C    0.8851607174   -2.2832501909   -0.1581648834
 C    1.2446465137   -0.7804623361   -0.1916085755
 C   -2.5444320127   -0.6513612927    0.2460824350
 C   -3.3242038837    0.1240333089   -0.7523807142
 N   -3.5262876922   -1.3312366052   -0.6349316826
 H    0.4608463065    1.9271177599    0.2795777867
 H    0.2002733377    1.6573040653   -1.4351727749
 H   -1.1916075377    1.7801929590   -0.3387930969
 H   -0.5934414696   -2.5296971383    1.4603933398
 H   -1.1632702816   -3.1203804531   -0.0878690375
 H    1.5823731744   -2.8763236559    0.4389710629
 H    0.9088890608   -2.6862998009   -1.1759080002
 H    1.8660986129   -0.5110644208   -1.0546444232
 H    1.8157744721   -0.4744036652    0.6979703743
 H   -2.8947220669   -0.6223154366    1.2786612792
 H   -4.1678486802    0.7295865230   -0.4322267901
 H   -2.8020514498    0.5016193077   -1.6263197563
 H   -3.0199863714   -1.7904520181   -1.3899948573