16

 N   -0.0540450866    1.2102425485    0.6804818650
 C   -0.0122978944    0.0654758391    0.1225216309
 N   -1.1539174467   -0.5431296719   -0.3404791284
 C   -1.1945635529   -1.7511273958   -1.0900398058
 C   -0.6117653474   -1.8553916306   -2.4921622838
 C    0.1023472788   -2.4658002650   -1.2988906904
 N    1.2696725527   -1.8513941408   -0.7479434026
 C    1.3120256189   -0.6716116113   -0.0668279330
 O    2.3477602992   -0.1947173839    0.3557966609
 H    0.8983728849    1.4564552762    0.9556796007
 H   -1.9811555500    0.0347062673   -0.3093101729
 H   -2.0633357515   -2.3640607158   -0.8698019473
 H   -1.0887587485   -2.5217203788   -3.2025242771
 H   -0.1764017039   -0.9548247270   -2.9105651872
 H    0.1054662751   -3.5467278572   -1.2039907130
 H    2.1717274722   -2.2702123932   -0.9266965062