19

 C   -0.0278622343    1.5149981375    0.0513365247
 C    0.0003508799    0.0085918667   -0.0102739047
 C    0.3552131330   -0.8138568389   -1.2931206141
 C   -0.3001198190   -1.9444835626   -0.4685890390
 O    0.5934677959   -2.1205204804    0.6315686299
 C    0.8538880714   -0.7519357825    1.0170010856
 C   -1.3180898265   -0.8708561645    0.0400453618
 C   -2.0264977949   -1.0595494942    1.2844860918
 C   -2.6120950363   -1.1986672657    2.3261810239
 H    0.9786182424    1.9329833886   -0.0639957400
 H   -0.6567491054    1.9332548510   -0.7408469781
 H   -0.4252774745    1.8581043945    1.0129529535
 H   -0.2241834288   -0.5081465603   -2.1664449421
 H    1.4104447638   -0.9396434843   -1.5445971831
 H   -0.6017607536   -2.9114187623   -0.8663477341
 H    1.9238265046   -0.5291677720    0.9264497637
 H    0.5329579436   -0.5871814128    2.0511208267
 H   -1.9987644193   -0.5670529707   -0.7601491360
 H   -3.1297789820   -1.3355018173    3.2430443795