19

 C    0.1156742172    1.5480274879   -0.0514655735
 C   -0.0209820807    0.0261835061    0.0319681267
 C   -1.4749422566   -0.5057680418    0.0446616693
 N   -1.4787971925   -1.9813521075    0.1141683679
 C   -2.5394745853   -2.4361956464    1.0268944468
 C   -2.8465348711   -1.1976109851    1.8208988872
 C   -2.2709630690   -0.1283540949    1.2846263454
 C   -2.1900022844   -0.0208398309   -1.1657714395
 N   -2.7407832327    0.3182031346   -2.1252008250
 H    1.1715272502    1.8317370566   -0.0809730879
 H   -0.3619400873    1.9445508263   -0.9526965689
 H   -0.3327371236    2.0459166414    0.8143823588
 H    0.4939920970   -0.4421213854   -0.8146157511
 H    0.4497183536   -0.3624159097    0.9402609314
 H   -1.5335178042   -2.4074396108   -0.8015603522
 H   -3.4435553090   -2.8001613953    0.5103428872
 H   -2.1798270189   -3.2613169221    1.6565168171
 H   -3.4728261817   -1.2072130640    2.7041674469
 H   -2.3456354011    0.8944325311    1.6270837532