20

 C   -0.0334132997    1.5212147448    0.0298915846
 C    0.0407291342    0.0213103682    0.0108390096
 C   -0.8491559799   -0.8611141348    0.8476610667
 C    0.6377754198   -0.9841556589    1.0145866588
 C    1.1942595644   -1.8446513951   -0.1241163770
 C    0.6327808696   -0.7919101813   -1.1330330215
 O   -0.3212587716   -1.2368717029   -2.0931833274
 C    0.1243642844   -1.5251439525   -3.3290388889
 N   -0.6512442334   -2.0402183846   -4.1820560722
 H    0.9208774891    1.9764933356   -0.2599595332
 H   -0.8011768586    1.8858030214   -0.6627612421
 H   -0.2893698295    1.8902291542    1.0282210850
 H   -1.3693937788   -0.3368700655    1.6431817116
 H   -1.4206371726   -1.6662548945    0.3939325005
 H    1.1397196328   -0.7761583366    1.9512266497
 H    2.2839619766   -1.9129106950   -0.1553285156
 H    0.7682799260   -2.8486013857   -0.2127562817
 H    1.4388601171   -0.2506235571   -1.6430029720
 H    1.1790017013   -1.2561114978   -3.4878690676
 H   -0.1587410513   -2.1663159518   -5.0639123973