15

 N   -0.1380899344    1.4647688973    0.1850010677
 C   -0.1392371721    0.0208113903    0.0048427342
 C   -1.5296349845   -0.4640235230   -0.1045650925
 N   -2.6055992488   -0.8693395095   -0.2138003731
 C    0.6539557326   -0.5198461440   -1.2037440017
 O    0.8821944137    0.3851183947   -2.2712371922
 C    2.0270080592   -0.0784688606   -1.5272574233
 C    2.7792250072    0.8664901387   -0.7445652332
 C    3.4856065534    1.6030097066   -0.1075764189
 H    0.7903867663    1.7638230262    0.4635670905
 H   -0.3280880517    1.9092379949   -0.7090254098
 H    0.2824964819   -0.4384418580    0.9084235585
 H    0.3771441999   -1.5294111604   -1.5110379441
 H    2.6462557503   -0.7806487464   -2.0850680960
 H    4.1026969071    2.2643403531    0.4505952739