19

 O   -0.0118863135    1.4215227641   -0.0646139226
 C   -0.0043721053    0.0010472747   -0.0237530362
 C   -1.4309855627   -0.4818076874   -0.0303391079
 C   -2.5151894738    0.0442614008    0.9835588337
 C   -3.4895691761   -0.5553235034   -0.0903753710
 C   -2.4473877554   -0.0856589966   -1.1399181377
 C   -3.1454225980   -2.0534306706    0.0703145639
 O   -2.3591660537   -2.6357380652   -0.9845072495
 C   -1.6854319758   -2.0029249288    0.1152791007
 H    0.8992645518    1.7265509494   -0.0983148943
 H    0.5281707169   -0.4207133088   -0.8919095047
 H    0.5068507955   -0.3662781370    0.8826121860
 H   -2.5284367621   -0.3973362591    1.9855536228
 H   -2.5424501859    1.1338654035    1.0439313006
 H   -4.5402938394   -0.2736853639   -0.1456430175
 H   -2.4672969936    0.9949835844   -1.2797730032
 H   -2.3993715465   -0.6126030227   -2.0913223783
 H   -3.7658138187   -2.7380219155    0.6388032131
 H   -1.0490591838   -2.6395780379    0.7223703619