16

 O   -0.1314694810    1.4040267779   -0.1177799250
 C   -0.1121805944    0.0189752980   -0.0475965838
 C   -0.4865994848   -0.7127275196    1.2230771167
 N   -1.1571766214    0.0706437774    2.2343531660
 C   -2.2747921723    0.4532644167    1.7299367043
 N   -2.5523288228   -0.0085505138    0.4533435625
 C   -3.6864019733    0.2706416651   -0.2849958867
 N   -4.6337774968    0.9785691983    0.1814979708
 C   -1.4131088426   -0.7573253343   -0.0080514899
 H   -0.0403909678    1.7480986061    0.7794663715
 H    0.6807836552   -0.4441155351   -0.6306980888
 H    0.1191993348   -1.5412240387    1.5708699126
 H   -2.9969448592    1.0935697671    2.2183053799
 H   -3.6508137773   -0.1881191149   -1.2787012502
 H   -5.3805416569    1.0684375422   -0.5029064592
 H   -1.6057020893   -1.6171335426   -0.6385131508