15

 C    0.0601721303    1.4902019215    0.1354388921
 C   -0.0222356454    0.0135894330   -0.0399716546
 C   -0.1466439083   -0.7846666781   -1.1427055634
 N   -0.2002888126   -2.1264759042   -0.7951173266
 C   -0.0978388294   -2.1226090224    0.5015481223
 N    0.0113512403   -0.8770729562    1.0296531822
 O   -0.1041893741   -3.1829761246    1.3534084064
 C    0.1586724486   -4.4284748384    0.8301020475
 O    0.1095929258   -5.3962670035    1.5197164297
 H    0.9951556707    1.7986342395    0.6188948686
 H    0.0167927987    1.9770186604   -0.8414554115
 H   -0.7675638781    1.8822831988    0.7388933040
 H   -0.2106098814   -0.4762573651   -2.1748582339
 H    0.0990694342   -0.6582057253    2.0081586599
 H    0.4012651706   -4.3841630554   -0.2398072728