19

 O   -0.2288203139    1.4570063241   -0.0228389542
 C    0.0279456498    0.0689119481   -0.1484662502
 C   -1.2473106957   -0.7779467564   -0.1441423631
 C   -0.9421943199   -2.2642423908   -0.3646050081
 N   -2.0420612650   -3.2157584500   -0.3739323079
 C   -3.2318586871   -2.8212183868   -0.2093020508
 N   -4.2745954051   -3.7444641844   -0.2227459509
 C   -5.5962319146   -3.4131143598   -0.0447560025
 O   -6.0083834747   -2.2928429357    0.1451973813
 H   -0.6534145817    1.6032091818    0.8285310532
 H    0.5503342794   -0.0469713908   -1.1047598778
 H    0.7154105595   -0.2846624530    0.6375742048
 H   -1.7631514152   -0.6396068893    0.8167608837
 H   -1.9171981263   -0.3980823369   -0.9245316275
 H   -0.4099081180   -2.3871171635   -1.3183429110
 H   -0.2331036842   -2.6093130681    0.4011248947
 H   -3.5829097582   -1.8015530568   -0.0494961608
 H   -4.0162548455   -4.7096500414   -0.3731974050
 H   -6.2498651235   -4.3041557102   -0.0960307180