15

 N    0.0087083288    1.3727856967   -0.0959173860
 C   -0.0082767839   -0.0162764661   -0.0358917705
 C   -1.1908940187   -0.7518954358   -0.0929403624
 N   -1.1637713187   -2.0950087478   -0.0989121327
 C    0.0017314329   -2.6852057892   -0.0436568272
 O    0.0847142866   -4.0466029179   -0.0555002126
 C    1.2108233953   -1.9509829684    0.0227887592
 N    2.4151306620   -2.6038278567    0.1362963550
 N    1.1881482018   -0.6257230784    0.0218862166
 H    0.8676840018    1.7687447835    0.2583093976
 H   -0.8128110699    1.8300482003    0.2703765408
 H   -2.1626103457   -0.2714211634   -0.1441627734
 H   -0.8231350714   -4.3706903503   -0.1208667149
 H    2.4305781873   -3.5618501485   -0.1753174529
 H    3.2244072117   -2.0503562879   -0.0993438965