16

 C   -0.0682464753    1.5027597652    0.0525194413
 C   -0.0402804370    0.0111376336   -0.0268042135
 C    0.0641111444   -0.7724593823   -1.1057489408
 C    0.0477536312   -2.2508093124   -0.7820755907
 C   -0.0049858882   -2.2721403385    0.7388578265
 O    1.1091663151   -1.6609710936    1.3847687647
 C   -0.0854904781   -0.8647741185    1.1979318958
 C   -0.7571623410   -0.4439052485    2.4015805894
 N   -1.3117517593   -0.0683133334    3.3437392654
 H    0.7936382684    1.8855823740    0.6122156961
 H   -0.0564843274    1.9494629345   -0.9444214249
 H   -0.9641559824    1.8545904553    0.5772069151
 H    0.1897777357   -0.4044416837   -2.1179498949
 H   -0.8247238461   -2.7593183379   -1.2108020569
 H    0.9375218105   -2.7721420244   -1.1549773815
 H   -0.4660114903   -3.0911318796    1.2830502790