16

 C    0.0125817244    1.4824506954    0.0588956140
 C   -0.0241213126   -0.0589260215   -0.0184718347
 C   -1.4615207853   -0.5851420506    0.0202063293
 C    0.6922650519   -0.4938494216   -1.3017141647
 C    2.1917164913   -0.7136878296   -1.2020422528
 O    0.0950170734   -0.6402224727   -2.3436747117
 H    1.0352271659    1.8725648706    0.0394441919
 H   -0.5324301619    1.9181412253   -0.7844984536
 H   -0.4586875300    1.8265891983    0.9844812772
 H    0.5400025650   -0.4532292496    0.8367271964
 H   -2.0086353040   -0.2533524815   -0.8656185842
 H   -1.4849435677   -1.6790104651    0.0326192942
 H   -1.9815642778   -0.2224914192    0.9121314357
 H    2.6814633802    0.1114725762   -0.6744940121
 H    2.3843212376   -1.6206370038   -0.6156877896
 H    2.6221775395   -0.8325166106   -2.1971158055