14

 O   -0.2109973875    1.4635287889    0.1103546765
 C   -0.1145492595    0.0985762550    0.0343935932
 C   -1.3249887178   -0.8012353106   -0.0398821577
 C   -0.7389757137   -1.9438959604   -0.8714124578
 N    0.5258138592   -1.6974867443   -1.5111474759
 C    0.9238566058   -0.6622958856   -0.8703464686
 O    1.8814372849   -0.8353872488    0.1607464013
 C    0.6291881792   -0.8485244514    0.9945028554
 C   -0.5287585294   -1.8900538461    0.6726129111
 H    0.6634255054    1.8453313695   -0.0331697835
 H   -2.3702815414   -0.5343623922    0.0044543915
 H   -1.3888646899   -2.7083556968   -1.2812677872
 H    0.8475822964   -0.6336817789    2.0391182533
 H   -0.8686000416   -2.6767722182    1.3302635183