19

 C    0.0065132888    1.4882319845   -0.4148557379
 C   -0.0150089695    0.0377379066   -0.2414601017
 C   -0.0027792849   -1.1589707924   -0.0943281798
 C   -0.0020957438   -2.5875483478    0.0523736518
 C   -0.3413142222   -3.2051655800    1.3697557486
 N   -1.2799490420   -3.3184084126    0.2493340892
 C    1.3848802033    2.0952208491   -0.1947823478
 C    1.5072579537    3.4710109188    0.3437298529
 N    1.8993600543    2.3078663742    1.1620196102
 H   -0.3421491886    1.7461070798   -1.4244214443
 H   -0.7057667931    1.9551370859    0.2798975824
 H    0.6929803378   -3.1197883955   -0.5921613867
 H    0.1429380090   -4.1336253270    1.6587540657
 H   -0.5745523861   -2.5317660011    2.1890009002
 H   -2.0284064595   -2.6383741106    0.3610327582
 H    2.1410248890    1.7385211330   -0.8906053574
 H    2.3276235571    4.1120937967    0.0342815688
 H    0.5907344798    4.0012852412    0.5926940115
 H    1.1732346170    2.1005128072    1.8443341162