20

 C   -0.7950089101    1.1640205080   -0.0012338260
 C    0.0706460776   -0.0901636628   -0.0199579081
 C    1.1920350866   -0.0401726799   -1.0653235221
 O    1.1606295919    0.5064453790   -2.1461215569
 N    2.2459599799   -0.7467047997   -0.5483376232
 C    1.9713973421   -1.3684169396    0.7330930725
 C    0.7886915729   -0.5142449809    1.2821578134
 C    1.3111668624    0.6653320322    2.1056420519
 O   -0.1173225087   -1.2969174317    2.0477799044
 H   -0.2182578987    2.0539154127    0.2660795568
 H   -1.2072103521    1.3319148758   -0.9991598607
 H   -1.6202524291    1.0573503489    0.7083452144
 H   -0.5580228655   -0.9480899658   -0.2985431086
 H    3.0458433482   -0.9652704512   -1.1213118274
 H    1.6422348451   -2.4120174354    0.6357482819
 H    2.8488473022   -1.3405841855    1.3885695430
 H    2.0012279874    1.2829772733    1.5229653436
 H    0.4878904992    1.2940496164    2.4521055857
 H    1.8567081424    0.2992503519    2.9842722401
 H    0.2508416862   -1.4109159557    2.9304213853