19

 C   -0.0119308717    1.5290504882   -0.0684010824
 C    1.5366663363    1.4483312655    0.0177817395
 C    1.3340762539    0.1224726568    0.8120375787
 C   -0.0035863939   -0.0212232086    0.0247658674
 C    0.2418694239   -0.6119931225   -1.3747274666
 C    1.6382418864   -0.2092558741   -1.9083519497
 C    2.1086107957    1.1690654536   -1.3831931036
 H   -0.4476916398    1.9900109639    0.8227501007
 H   -0.4512124398    1.9852172075   -0.9623001887
 H    2.0639288541    2.2688533161    0.5112754931
 H    2.0865845899   -0.6666521740    0.7249284085
 H    1.1504723887    0.3199444102    1.8716082307
 H   -0.8456023424   -0.5071278844    0.5244698427
 H    0.1653666271   -1.7054238616   -1.3507641476
 H   -0.5509240086   -0.2613817708   -2.0477526005
 H    2.3600243306   -0.9641973386   -1.5791526191
 H    1.6591417228   -0.2363607928   -3.0023052896
 H    1.7924089326    1.9743932203   -2.0583792032
 H    3.2045286940    1.1942417552   -1.3645463401