14

 O   -0.5670005798    0.6538411933    0.7056933284
 C    0.1625424584    0.9412319959   -0.2049968494
 C    1.3196638054    1.9314874656   -0.0872155487
 C    1.4256892570    2.6299715453    1.3022384938
 N    2.6089824064    1.8063156725    1.5708164334
 C    2.6459401272    1.1515238284    0.3803677374
 O    3.3581485676    0.3295605312   -0.1135989120
 C    1.4644556093    2.7360555579   -1.2758436835
 C    1.5639214790    3.3826791940   -2.2844347521
 H    0.0676212891    0.4847974713   -1.2100697286
 H    1.6309443160    3.7008837927    1.2454195642
 H    0.5759734633    2.4196069475    1.9541436492
 H    3.2038427034    1.7210060446    2.3814602509
 H    1.6639868577    3.9578714198   -3.1718490630