23

 O   -0.0272589542    1.4316994903    0.0087164219
 C    0.0279410772    0.0123899686    0.0017752409
 C   -1.4002204848   -0.5145895895    0.0122160731
 C   -1.4707182534   -2.0458156341    0.0059497553
 C   -2.8819061560   -2.5819945381    0.0158040193
 C   -4.0043144152   -2.3456883260   -1.0482151677
 C   -4.6389665881   -3.2693197985    0.0279063735
 C   -3.3149368838   -4.0816014331    0.0134974049
 C   -3.9861750775   -2.3542185611    1.1004608649
 H    0.8736624358    1.7675545518    0.0019047507
 H    0.5560070601   -0.3611865323   -0.8914240744
 H    0.5719460607   -0.3692369723    0.8819132193
 H   -1.9102221234   -0.1167096647    0.8975500031
 H   -1.9259850838   -0.1087942006   -0.8602127696
 H   -0.9493361132   -2.4371645853   -0.8790624944
 H   -0.9339935568   -2.4450922727    0.8781526202
 H   -4.4068087372   -1.3313798479   -1.1233721904
 H   -3.8386637470   -2.7836718944   -2.0373514236
 H   -5.6543840306   -3.6666575343    0.0349034457
 H   -3.0960293469   -4.6518967812   -0.8945708429
 H   -3.0807561155   -4.6590728283    0.9131819373
 H   -3.8039063939   -2.8000191772    2.0831609753
 H   -4.3872716424   -1.3405615789    1.1904238976