14

 N   -0.0540157319    1.2839324927   -0.0670387870
 C    0.0090208430    0.0304693534    0.0121295530
 O    1.1608809922   -0.7243602841    0.0550153264
 C    0.7568635547   -2.0382676573    0.4528336655
 C    0.1272770824   -1.9668367306    1.8766460565
 C   -1.2267518555   -1.7685445783    1.1845983715
 C   -0.6711610373   -2.1963438998   -0.1311991617
 N   -1.1375126906   -0.8232435538    0.0302989142
 H    0.8855701092    1.6816436705   -0.0641401778
 H    1.5561416223   -2.7430905287    0.2409073925
 H    0.1620971166   -2.9349184097    2.3831047139
 H    0.5062543114   -1.1825001085    2.5375181996
 H   -2.2141787655   -1.9064416451    1.6062117863
 H   -1.0447633613   -2.8214264608   -0.9319037429