20

 C   -0.0201080290    1.4460257535    0.0294122695
 C    0.0289510411   -0.0665490722   -0.0224855902
 C    0.3926409629   -0.6749844529   -1.3829571415
 C   -0.2746737138   -2.0793041732   -1.3574625921
 C   -0.9097193662   -2.1335223639    0.0290643981
 C    0.0349592813   -2.1455495653    1.2263788869
 C   -0.6789000545   -0.9569953704    1.7935901724
 C    0.6748908111   -0.7409120126    1.1923841766
 N   -1.2993514994   -0.7086136055    0.4124246156
 H    0.9636388505    1.8751075629   -0.1926080267
 H   -0.7358722337    1.8291944310   -0.7046531642
 H   -0.3252214091    1.7955575315    1.0204511905
 H   -0.0027138677   -0.0630657779   -2.1998635248
 H    1.4784282586   -0.7224685100   -1.5098424481
 H   -1.0364627061   -2.1677902868   -2.1377460045
 H    0.4383081896   -2.8961723257   -1.5023607515
 H   -1.7585217472   -2.8136185153    0.1280197938
 H    0.5041578105   -2.9737438426    1.7437065515
 H   -1.1313274972   -0.7321013951    2.7483253923
 H    1.6171115284   -0.5315251195    1.6853456765