19

 C   -0.0328646485    1.4222590354   -0.0306436940
 C    0.0316080552   -0.0757215762    0.0492615660
 O   -1.1746730858   -0.7011495488   -0.3678672635
 C   -1.2915198856   -1.9291528665    0.3598060669
 C    0.1320098422   -2.2284509760    0.8185814825
 C    0.6965023982   -0.8190503875    1.1532908140
 C    1.3427441181   -0.7917555231   -0.2421448123
 C    1.0951438890   -2.2809549739   -0.4178340507
 O    2.3001488668   -2.9769161547   -0.1665318308
 H    0.9139160290    1.8684315353    0.2862477516
 H   -0.2356837505    1.7436655386   -1.0571133235
 H   -0.8325443352    1.8068153526    0.6097575508
 H   -1.9788545518   -1.8066290091    1.2106288584
 H   -1.6994621462   -2.6907929823   -0.3143486045
 H    0.2457425962   -3.0375387279    1.5395653356
 H    1.0233991903   -0.4254434188    2.1068256131
 H    2.2307984608   -0.2684593922   -0.5792953159
 H    0.6407005484   -2.6077487548   -1.3658558687
 H    2.1062242995   -3.9197626902   -0.1881955850