20

 C    0.0717663029    1.5482482272   -0.0929279770
 C   -0.1447797237    0.0351051353    0.0260684639
 C    0.6143737264   -0.5741706559    1.1898362223
 C    0.7337311529   -2.0999159791    1.3957109152
 C    1.5266156921   -2.6311001341    0.1751202956
 C    2.8626612100   -2.6212086936    0.9014635599
 C    2.5039097832   -1.4609943569    0.0235670180
 N    2.1339459168   -0.5364825142    1.1432033338
 C    2.1460435167   -1.8143810821    2.0074710948
 H    1.1351738773    1.7812968259   -0.2012043415
 H   -0.4591233784    1.9586041771   -0.9573800810
 H   -0.2895488869    2.0701639541    0.7999435632
 H   -1.2133232101   -0.1821837890    0.1555593021
 H    0.1583976655   -0.4603377179   -0.9040895533
 H    0.3237287037   -0.0901685873    2.1318630814
 H   -0.0340793939   -2.7267068939    1.8492382637
 H    1.1982009674   -3.2498753858   -0.6482156215
 H    3.7036193316   -3.3002730944    0.8923561916
 H    2.9266975166   -1.1236944168   -0.9133117163
 H    2.3888986600   -1.7268571388    3.0645416650