18

 C    0.0706239445    1.4919813628    0.0694204881
 C   -0.0093183063   -0.0030922896    0.0089591345
 C   -0.0262734352   -0.7298254737   -1.1159859165
 C   -0.0077177252   -2.2434878058   -1.0628032030
 C   -0.0209122864   -2.6953407074    0.4159826598
 N   -1.0267329884   -1.9335998101    1.2254741927
 C   -0.0663855476   -0.7917665370    1.3210997714
 C    1.0318522890   -1.8665852872    1.1807760312
 O    2.1616491628   -2.0121283288    1.5300150699
 H    0.9732201193    1.8131972722    0.6045903630
 H    0.0943610400    1.9344310513   -0.9300681580
 H   -0.7822915169    1.9137453501    0.6160375952
 H   -0.0360520161   -0.2493024766   -2.0907849318
 H   -0.8580978430   -2.6750524811   -1.6101080644
 H    0.8955751837   -2.6324430062   -1.5521722859
 H   -0.0369718657   -3.7811055405    0.5373237657
 H   -1.8534414839   -1.6869580999    0.6829091230
 H   -0.1374024247   -0.1711723926    2.2162906853