16

 C    0.0977865549    1.5103905168    0.0056380796
 C    0.1222830934    0.0040935748   -0.0486161504
 O   -0.9843847403   -0.5937945517   -0.6191709720
 C    1.3593035747   -0.7705908059   -0.2216766922
 C    0.7444812325   -0.8199072358    1.1872939684
 C    1.4584335953   -0.0994658575    2.2780813955
 O    2.2799769233    0.7670628233    2.0902121243
 C   -0.0020197299   -1.9739755180    1.5934136508
 N   -0.6090388631   -2.8842698310    1.9705326393
 H    0.9941498170    1.9102869736    0.4784460520
 H    0.0311137091    1.8957067956   -1.0167109153
 H   -0.7780665928    1.8656367272    0.5606879691
 H   -1.7816987415   -0.2665659588   -0.1857345440
 H    1.3000838179   -1.6825353405   -0.8032758796
 H    2.2987231578   -0.2294812338   -0.2522645814
 H    1.1727096618   -0.4173641483    3.3007470761