13

 O    0.1439340105    1.1976088682   -0.2652436589
 C   -0.0158203921   -0.1603576131    0.0867237943
 C   -1.5272621403   -0.5339093287    0.0307052693
 O   -2.0649119997   -0.1501263575   -1.2080392809
 C   -1.6594289323   -2.0617225505    0.1508083014
 O   -1.4865354833   -2.6622531241    1.1725805168
 C   -2.2119744272    0.1499578754    1.1500355820
 N   -2.7078948085    0.7471839391    2.0060125258
 H   -0.1349261593    1.7406476814    0.4825882546
 H    0.5088257579   -0.7422751526   -0.6766085402
 H    0.3939050757   -0.4050108151    1.0725749061
 H   -1.6393437109    0.6902983292   -1.4356345013
 H   -1.8840767804   -2.5430272518   -0.8231651190