23

 C   -0.2019786710    1.5826265432    0.0127188936
 C    0.0411597604    0.0708592678    0.0122047175
 C    0.8447531274   -0.4564888097   -1.1527315414
 C    1.6432105727   -1.4717542479   -0.8144431699
 C    2.5342879132   -2.2714988943   -1.7105221706
 C    1.5032681249   -1.7789274118    0.6611744879
 C    0.7985124282   -0.5181114111    1.2434614009
 C    1.8398910274    0.4410027613    1.8293816564
 O   -0.1841255728   -0.8289934660    2.2300363859
 H    0.7316723121    2.1505608160   -0.0471700326
 H   -0.8154723164    1.8672185352   -0.8486052882
 H   -0.7371552955    1.8916961211    0.9161052418
 H   -0.9453836761   -0.4171575046    0.0171132809
 H    0.7345769727   -0.0640112784   -2.1593414370
 H    2.4991527802   -1.9096854749   -2.7420441903
 H    3.5774427137   -2.2354196503   -1.3704623212
 H    2.2472032066   -3.3311982390   -1.7125645324
 H    0.8637804257   -2.6583670566    0.8201940156
 H    2.4637878313   -1.9906233258    1.1494829783
 H    2.5816898950    0.7269524919    1.0773311326
 H    1.3706519482    1.3465978937    2.2212865649
 H    2.3770073318   -0.0477143442    2.6519193647
 H    0.2745842403   -1.0762819556    3.0397893827