16

 C   -0.0414207138    1.5096199587    0.0051970484
 C    0.0065532366   -0.0124890616   -0.0020620047
 C    1.3541146636   -0.6919542141   -0.2242271709
 C    0.7311937036   -0.7181310824    1.1398294685
 C   -1.1534267380   -0.6583724761   -0.5441204607
 C   -2.1466697732   -1.1762142783   -1.0076038712
 C   -3.2551155186   -1.7695407926   -1.5254162848
 C   -4.2406084428   -2.2949056024   -1.9865499120
 H    0.8793311880    1.9168226730    0.4338342433
 H   -0.1491527717    1.9023039283   -1.0103856357
 H   -0.8853223637    1.8714397614    0.6002832184
 H    1.3640596575   -1.6088254954   -0.8009474255
 H    2.2027140209   -0.0381189069   -0.3943093786
 H    1.1490292655   -0.0824244293    1.9130309613
 H    0.3152660881   -1.6528960092    1.4956060025
 H   -5.1057125518   -2.7585543731   -2.3905556784