26

 C    0.2080684502    1.3835399288    0.2008788076
 C    0.0317937604   -0.0902789806   -0.1787767231
 C   -1.4061299524   -0.6300532916   -0.0509921592
 C   -2.3719206328    0.0760840391   -1.0137524573
 C   -1.4066546337   -2.1610407030   -0.2583396760
 C   -2.7299203925   -2.8508468012    0.0120748502
 C   -2.7806221602   -4.2746820436    0.4560543521
 N   -3.2137860984   -3.2085550998    1.3510954441
 C   -2.3997490136   -2.9484626674    2.5281249227
 H    1.2634503351    1.6715520354    0.1632442762
 H   -0.3355697114    2.0517607592   -0.4734739805
 H   -0.1509278266    1.5747476536    1.2186795643
 H    0.3816221950   -0.2484468269   -1.2087694487
 H    0.6884525931   -0.6972436946    0.4580660888
 H   -1.7448912451   -0.4304544801    0.9758884809
 H   -2.0761870272   -0.0962782057   -2.0562402812
 H   -3.3976365202   -0.2835145088   -0.8943457016
 H   -2.3881197807    1.1565934767   -0.8470189941
 H   -1.1218294336   -2.3762503787   -1.2985106443
 H   -0.6207389626   -2.6059781503    0.3615591539
 H   -3.5421549576   -2.5144817262   -0.6306936852
 H   -3.5542808275   -4.9504261355    0.0990396254
 H   -1.8243569598   -4.7553721823    0.6658109653
 H   -1.3184685497   -3.1068390173    2.3915406100
 H   -2.5563508807   -1.9171176034    2.8611352820
 H   -2.7317726374   -3.6141654260    3.3317839879