17

 O   -0.1252180154    1.4221683606    0.1541263585
 C   -0.0597805953    0.0400219446    0.0216759261
 C    0.9638994750   -0.5642272593   -0.9382630714
 C    0.2158086396   -1.7474217674   -1.5967685647
 O   -1.1298761979   -1.7667797547   -1.0625244750
 C   -1.2926265954   -0.7418481660   -0.1579381660
 C   -0.5398843022   -0.8047913319    1.2186047174
 C    0.1158420731   -2.0200522879    1.7262979314
 O    0.8192667245   -2.7762032310    1.0914140217
 H    0.6213386564    1.7090425095    0.6923237785
 H    1.2147821528    0.2141953005   -1.6639052834
 H    1.8795111169   -0.8960665992   -0.4461139649
 H    0.1400334530   -1.6355932607   -2.6834933256
 H    0.6853327893   -2.7007571327   -1.3583575754
 H   -2.2871734099   -0.3111886055   -0.1345074964
 H   -1.0425769745   -0.2078000831    1.9741553457
 H   -0.0946636399   -2.2234495957    2.8003081234