17

 O   -0.1375590096   -0.0869044474   -0.1822262242
 C   -0.0260074139    1.1055893030   -0.0245684095
 N   -1.0850456316    2.0065968345    0.0361908098
 C   -0.7856685916    3.4172479737    0.3475905400
 C    0.6593064880    3.2231043359    0.7815341822
 C    2.1256743426    3.7241009459    0.7815691350
 N    2.2845287848    2.2186218647    1.1418204341
 C    1.0791297075    2.4611003847    2.0632912003
 C    1.2039550729    2.0211363855    0.0311486567
 H   -2.0270172575    1.6612321408   -0.0637227421
 H   -0.8913538022    4.0609889885   -0.5356370562
 H   -1.4445501528    3.7961756131    1.1361806556
 H    2.5754008338    3.9951159465   -0.1765400473
 H    2.4537933196    4.3857676794    1.5870397846
 H    1.3222844586    3.0528255160    2.9494536050
 H    0.5479058811    1.5455521114    2.3318740691
 H    1.6222858802    2.1612862137   -0.9706645832