15

 O    0.2206318666    1.4714527424   -0.0219282384
 C    0.1560999335    0.0624084249   -0.1414956176
 C   -1.3426235882   -0.3435475641   -0.2032860493
 O   -1.8125656490   -1.3012952572    0.3454889318
 C    0.7608554588   -0.3647768855   -1.4011307018
 C    1.2050360570   -0.7623807547   -2.4444914921
 C    0.8351086782   -0.6155242425    1.0524501697
 C    2.0942064350   -0.0919130314    1.5780943509
 O    0.8411105085    0.1926705155    2.2322111991
 H    0.2146170652    1.6392374320    0.9349977457
 H   -1.9430267267    0.3718251614   -0.8027224605
 H    1.6130241455   -1.1022491239   -3.3650786735
 H    0.5578916803   -1.6545951187    1.2020903964
 H    2.7592144775   -0.7485216663    2.1335435452
 H    2.5598342678    0.7606996482    1.0900221045