16

 C   -0.0338535802    1.5606773456    0.0182262229
 C    0.0148829652    0.0632016127    0.0003812114
 C   -0.8839398733   -0.8301939894    0.8232559745
 C    0.6112368586   -0.9412551548    0.9927135633
 O    1.1506001655   -1.7577223701   -0.0590432086
 C    0.7030377726   -0.7991343778   -1.0543245023
 C    1.3281798096   -0.7849594198    2.2074565693
 C    1.9335870811   -0.6447545018    3.2381041032
 H    0.9273850243    1.9936170087   -0.2784123433
 H   -0.8009320057    1.9405667630   -0.6672502113
 H   -0.2732896922    1.9312083946    1.0196625161
 H   -1.4073153585   -0.3288977634    1.6310160574
 H   -1.4091903674   -1.6692061046    0.3741534525
 H    0.0747888346   -1.2617516371   -1.8246671822
 H    1.5622362338   -0.3043233213   -1.5228179397
 H    2.4695879821   -0.5272854046    4.1471796466