21

 C   -0.3338257666    1.2279497364   -0.0773252379
 O   -0.0667883219   -0.1537401303   -0.0265250164
 C    0.8073756898   -0.5295799486    1.0249090914
 C    0.1290872670   -0.6109121952    2.4172189986
 O   -0.1170880131   -1.9886487508    2.6944858750
 C    0.7927019555   -2.7695576364    1.9582613385
 C    0.3767486689   -3.1004595501    0.5515753625
 C   -1.0520996866   -2.9723907715    0.0743642539
 C    1.3357136984   -1.9419618560    0.8227060349
 H    0.5911646720    1.8151916431   -0.1947007783
 H   -0.9750806502    1.4021134263   -0.9447150876
 H   -0.8567050174    1.5916773716    0.8205880348
 H    1.6461489457    0.1832423727    1.0569233936
 H    0.7901377592   -0.1875093298    3.1887377345
 H   -0.8265761714   -0.0782625732    2.4466720091
 H    1.3953245327   -3.4420333220    2.5621463796
 H    0.9027741636   -3.9569185422    0.1335530502
 H   -1.0942479250   -2.6858063346   -0.9797969456
 H   -1.5665801669   -3.9329768564    0.1901907440
 H   -1.5994520953   -2.2250682891    0.6485166627
 H    2.3576971117   -2.0483965738    0.4800382425