23

 C    0.4552485209    1.0194741057   -0.2947147717
 O   -0.2626880537   -0.0128692576    0.3512247126
 C    0.4937751253   -0.6710197993    1.3186067638
 C   -0.0133317081   -1.9984887374    1.7799728017
 C    1.2687592154   -1.9281316048    0.9739838788
 C    1.3091681129   -2.4452380231   -0.4645858008
 C    2.8085135336   -2.4469093228   -0.8094751589
 C    3.4695525765   -2.8929891784    0.5062992229
 C    2.6470644425   -2.1846098086    1.6093002718
 H    1.3401856659    0.6375335324   -0.8233990251
 H   -0.2217069484    1.4804598437   -1.0179437407
 H    0.7863198397    1.7871765275    0.4214283466
 H    0.9394867500   -0.0031257263    2.0606440184
 H    0.0398183364   -2.2349392322    2.8382958162
 H   -0.8958305730   -2.3765840452    1.2729373678
 H    0.9202067810   -3.4709682793   -0.5080596993
 H    0.6981142489   -1.8409594888   -1.1398694610
 H    3.0548281791   -3.0945485399   -1.6558541686
 H    3.1360645193   -1.4319234685   -1.0680712673
 H    3.3723131002   -3.9802266464    0.6096804899
 H    4.5367143981   -2.6592304567    0.5574548898
 H    3.1204300341   -1.2370455732    1.8945505143
 H    2.5808208935   -2.7893233607    2.5195126589