17

 O   -0.1157187437   -0.0379963409   -0.0214140058
 C   -0.0158159232    1.1495385241    0.0047390405
 C   -0.9712844627    2.3466933231    0.0891844496
 O    0.1651423811    3.2329438141    0.1343135549
 C    1.1396072386    2.1619998063    0.0132192758
 C    2.1254443852    2.0996204958    1.1741618968
 C    3.0345668377    3.3064614577    1.1899820847
 C    4.4510440633    3.2096423792    1.5592923658
 O    4.0579282255    3.3284600925    0.1903540174
 H   -1.6008482972    2.4992353004   -0.7969165284
 H   -1.5950562080    2.3968901808    0.9904264484
 H    1.6815761076    2.2213335205   -0.9407039914
 H    1.5740945651    2.0392845849    2.1201156495
 H    2.7229052424    1.1871435536    1.0704230167
 H    2.5295339336    4.2625419983    1.3278425649
 H    4.9644604358    4.0749038077    1.9758611638
 H    4.8652282188    2.2430126119    1.8441620367