19

 O   -0.0760659956    1.4329005746    0.1088412091
 C   -0.0220469313    0.0168416690   -0.0152375016
 C   -1.4301009265   -0.5014170813   -0.0115059846
 C   -2.5679319837   -0.1965723570   -1.0140100209
 C   -3.1949789363   -1.1625101590    0.0167782523
 C   -1.8727101633   -2.0163737899    0.0331327046
 C   -1.6696469888   -2.4955130646    1.4619909359
 C   -2.0523492929   -1.4532477583    2.2050748472
 C   -2.4620309140   -0.4057008280    1.1838039323
 H    0.8260947012    1.7639446104    0.1426377644
 H    0.4792033671   -0.2855707536   -0.9496736997
 H    0.5290828149   -0.4417463717    0.8216209262
 H   -2.9439905155    0.8293470784   -1.0247435126
 H   -2.4387806025   -0.5786432549   -2.0314847155
 H   -4.2148077777   -1.5553752092    0.0428965447
 H   -1.6403665323   -2.6695143051   -0.8099545386
 H   -1.3004519546   -3.4642372685    1.7684796027
 H   -2.0737475524   -1.3448768818    3.2804669913
 H   -2.8169893257    0.5742636804    1.5023804127