18

 C   -0.0015792053    1.4858409220   -0.0639509559
 O    1.4365530202    1.5566409360    0.0544277859
 C    1.5236215227    0.1638031868    0.3970985070
 C    0.0328906709   -0.0590408266   -0.0061418097
 N   -0.9154197041   -0.7265949774    0.8651415813
 C   -1.1493881510   -2.1056035991    0.4187433424
 C   -0.8390246583   -2.0458866559   -1.0625889853
 O   -1.4745037555   -0.9579915202   -1.7417056035
 C   -0.1161745753   -0.7975999233   -1.3193451232
 H   -0.5117785986    1.9355550954    0.7984703123
 H   -0.3707334165    1.9472378185   -0.9859056164
 H    2.2984473725   -0.3604384108   -0.1767854053
 H    1.7084122477    0.0085228218    1.4712326990
 H   -0.6916903191   -0.6462927175    1.8476472041
 H   -0.4830793945   -2.8532295618    0.8814655442
 H   -2.1836879561   -2.4072161694    0.6230382682
 H   -0.7030385754   -2.9562990924   -1.6389624050
 H    0.6189555859   -0.6597201260   -2.1072783300