17

 C   -0.1353286973    1.3319140363    0.1745158445
 O   -0.1146850064   -0.0057166940   -0.2835336301
 C   -1.3429827349   -0.6631507872   -0.1314579307
 C   -1.1619035813   -2.1008967416   -0.6271293475
 C   -0.9850572434   -2.6015302334    0.7584388804
 C   -1.5775443371   -1.2662132434    1.3106372557
 N   -3.0304803336   -1.4776893411    1.4222385381
 C   -3.2708796503   -2.4192716178    0.6036496145
 N   -2.1437337406   -3.0659426922   -0.0212010143
 H    0.8566534717    1.7485130557   -0.0127613722
 H   -0.8838900500    1.9297684993   -0.3660833034
 H   -0.3519137997    1.3984496734    1.2501740048
 H   -2.1739054348   -0.0605635640   -0.5259670348
 H   -0.7048184884   -2.3967310432   -1.5628233006
 H   -0.2951526024   -3.3136534988    1.1950127727
 H   -1.1354085723   -0.7501469735    2.1589965410
 H   -4.2647446792   -2.7811918247    0.3627012920