17

 O   -0.0141670349    1.4132609129    0.0167044231
 C    0.0140558938    0.0299955877    0.0040336757
 C   -1.2495403733   -0.8665310230    0.0870047923
 C   -0.8972173493   -1.5020469347   -1.2726071968
 C    0.5003153418   -0.7989727752   -1.2251478415
 O    1.5865322254   -1.6156694909   -0.8260450551
 C    1.7367828571   -1.6041131917    0.6003715160
 C    0.5557109835   -0.8352343166    1.1683365501
 O   -0.6693976738   -1.6122564889    1.1835879611
 H    0.8274580656    1.7447861840   -0.3162249710
 H   -2.2634445122   -0.5258254106    0.2995344994
 H   -0.8881767063   -2.5924395074   -1.3119587697
 H   -1.5148894544   -1.0997476507   -2.0814225338
 H    0.7810390670   -0.2472594674   -2.1266652508
 H    1.7648681376   -2.6348042514    0.9709344305
 H    2.6837758020   -1.1109876734    0.8648961970
 H    0.7449292305   -0.3539928727    2.1322965934