20

 C   -0.6719100367    1.4739705548    0.4619546553
 N   -0.6637998141    0.0890033683    0.0129994261
 C    0.6659102770   -0.3280756962   -0.4141201537
 C   -1.2273249804   -0.8204335547    0.9985326712
 C   -1.6387963457   -2.1591206071    0.3868895638
 O   -1.4290577233   -3.2126434472    0.9387620545
 C   -2.3579480011   -2.0908257169   -0.9401523344
 C   -2.1246110654   -3.1664878427   -1.9271541376
 O   -3.3154847111   -3.1284458707   -1.1654820030
 H   -0.3068414427    2.1213780215   -0.3414344235
 H   -1.6931350201    1.7804551020    0.7075822126
 H   -0.0374058729    1.6468143161    1.3511404480
 H    1.4108894514   -0.2877279459    0.4023281354
 H    0.6375295171   -1.3549127147   -0.7907084930
 H    1.0126137036    0.3195643610   -1.2248470207
 H   -0.5621811219   -1.0262159184    1.8549851334
 H   -2.1457351371   -0.3690070499    1.3991804395
 H   -2.6416369186   -1.1037626662   -1.2937570612
 H   -2.2259327851   -2.9378788759   -2.9872435128
 H   -1.4330294028   -3.9647590370   -1.6639131398