18

 C    0.1668680966    1.2760988092    0.6201463612
 C   -0.0547418744   -0.0369789356   -0.1001628306
 C   -1.4236103286   -0.5470883082   -0.3452933475
 N   -0.6029527414   -0.0545991278   -1.4700789004
 C    1.4516682194    1.9538067091    0.2321033113
 N    2.1551582375    2.6324110844    1.1382999827
 N    3.2114821442    3.1153504829    0.4555207129
 C    3.2074327477    2.7607438331   -0.8512424850
 C    2.0737932496    2.0012951166   -1.0404630516
 H   -0.6870861800    1.9379152188    0.4123946211
 H    0.1757628864    1.1191102997    1.7044110975
 H    0.7405651900   -0.7664346023    0.0411123263
 H   -1.6176106550   -1.6157612951   -0.3536034737
 H   -2.2602791572    0.0602419018   -0.0082907418
 H   -0.9116426611    0.8829525357   -1.7198254726
 H    3.8977729541    3.6632132780    0.9452547403
 H    3.9935270441    3.0642005097   -1.5246209147
 H    1.7457768780    1.5318446399   -1.9533345355