18

 C   -0.3189926231    1.5220162943    0.0063735882
 C    0.0093184741    0.0343715170    0.0458061087
 C    1.2051820650   -0.6124750325   -0.7708823123
 C    2.2003713500   -0.1153016352    0.3248624918
 O    2.5576678160    1.2405114091    0.2871510104
 C    0.9429878655   -0.6193207514    1.1445047905
 C    1.0051110259   -1.7821406736    0.1822405020
 N    0.9061596529   -3.0355410959    0.2492050076
 O    1.0365106510   -3.6242225050   -1.0358438433
 H    0.5557050671    2.1564420591    0.1199013654
 H   -0.8056066761    1.7630241744   -0.9455368222
 H   -1.0349930822    1.7581907300    0.8020825256
 H   -0.9173706044   -0.5343629335   -0.0816724688
 H    1.3566876581   -0.6370459898   -1.8470608451
 H    3.0900453631   -0.7453468803    0.4475828372
 H    3.1137442354    1.4214777602    1.0514374768
 H    0.8018427526   -0.6482573633    2.2236672310
 H    0.9375446291   -4.5601633235   -0.8317905535