19

 N   -0.3288103524    1.3741329445    0.2277638415
 C    0.0347671985   -0.0098130937   -0.0909698867
 C    0.7968751512   -0.1313458378   -1.3582290987
 N    1.3895360022   -0.1869662476   -2.3499515251
 C    0.8210362329   -0.6245196890    1.0559198597
 C    0.1000638166   -1.2354466282    2.2278277627
 C    0.8998136509   -2.1144875709    1.3000780260
 C    0.2248568299   -3.1316110548    0.4153003788
 O    0.0285786064   -4.3056861116    1.1909599942
 H    0.5144388966    1.9282583428    0.3523199999
 H   -0.8309143279    1.7900533120   -0.5517210951
 H   -0.8990511356   -0.5655239370   -0.2274143386
 H    1.7320654548   -0.0726281655    1.2742372917
 H    0.4748997891   -1.0429328991    3.2262627801
 H   -0.9817598395   -1.2980612117    2.1640227356
 H    1.8551456278   -2.4657135019    1.6792833833
 H   -0.7369716041   -2.7442759430    0.0426815959
 H    0.8554533414   -3.3367770148   -0.4633797256
 H   -0.2761177086   -5.0036139930    0.6033495802