18

 C    0.0886810121    1.5125807008   -0.1454908283
 O    1.5464001571    1.5184842800    0.0338523275
 C    1.5172379419    0.2078685125    0.5947961637
 C    1.7812248337   -0.3112441078    1.9931995435
 C    0.9951858938   -1.5436646290    1.4381916069
 C   -0.4460729571   -0.9572249066    1.2611350067
 C    0.0390273653    0.0125735838    0.1749190644
 N    0.5057685190   -0.8598096863   -0.9533516132
 C    1.5973433221   -1.2032359975   -0.0437560397
 H   -0.3967491144    2.1690590890    0.5869061721
 H   -0.1913839504    1.7933495292   -1.1634118667
 H    2.8372161702   -0.5368702615    2.1681495835
 H    1.3590601424    0.2156143110    2.8538436806
 H    1.1247375309   -2.5300683510    1.8792405652
 H   -1.1992404784   -1.6713003083    0.9153065709
 H   -0.8043644828   -0.4825926443    2.1782101842
 H   -0.1321342099   -1.6233292054   -1.1761633675
 H    2.4678420344   -1.7623940688   -0.3920221238