17

 C   -0.1113581842    1.4928198604   -0.1719094267
 C   -0.0404188446   -0.0082853393   -0.0065711210
 N   -1.1987318549   -0.6350033210    0.9549207221
 C   -0.3577612771   -1.9111412078    0.8923780151
 C    0.6904791077   -0.8021343716    1.0077685580
 C   -0.2366671367   -0.2031193458    2.1144509768
 O    1.8968307702   -0.9466811548    0.1464580516
 C    1.0313287080   -0.6416840152   -0.9433196381
 N    1.2295724389   -0.7430379006   -2.1730418931
 H    0.8866338569    1.9443024055   -0.1448374080
 H   -0.5443209175    1.7188068357   -1.1511711130
 H   -0.7361390766    1.9670636093    0.5875398853
 H   -0.5098425748   -2.5765493130    1.7434520738
 H   -0.4416532987   -2.4335878506   -0.0623209417
 H   -0.1992311879    0.8669508388    2.3044539228
 H   -0.4100753366   -0.7830859929    3.0225258553
 H    2.1603978278   -1.1115460171   -2.3787164492