19

 O    0.1485150641    1.2152180528    0.2611259858
 C    0.0431541210   -0.1605988051   -0.0674237731
 C   -1.4288770848   -0.5432557092    0.0389451820
 C   -1.6821073872   -2.0233989554   -0.2508013296
 O   -0.9694461510   -2.8828382324    0.6340934557
 C   -3.1762276339   -2.3547496607   -0.2288688027
 O   -3.4061539872   -3.6904615698   -0.6717433456
 C   -3.4048837870   -4.6688190537    0.2570543469
 O   -3.4873303587   -5.8246562651   -0.0268059449
 H    1.0767321592    1.4634754476    0.2232326028
 H    0.4002848724   -0.3593433769   -1.0910121509
 H    0.6377118454   -0.7883454451    0.6113881926
 H   -1.7856911074   -0.2929883789    1.0482157169
 H   -2.0067767927    0.0760442799   -0.6568620293
 H   -1.3022735079   -2.2785905823   -1.2474385231
 H   -1.1362653832   -2.5873120149    1.5369618314
 H   -3.5819596900   -2.2104859290    0.7832103459
 H   -3.7304342668   -1.7068772072   -0.9131062806
 H   -3.3490096743   -4.2788918144    1.2905581698