17

 C   -0.0185902927    1.5348626563    0.0103990436
 C    0.0021031962   -0.0041367248    0.0019697952
 C    0.7464395386   -0.5139075983    1.2488763773
 C   -1.4419016588   -0.5367361547    0.0131145689
 C    0.7223497068   -0.5004960583   -1.2644563185
 H    0.9977692777    1.9442052940    0.0043547439
 H   -0.5418188317    1.9284141452   -0.8681991137
 H   -0.5275840238    1.9188837592    0.9014852983
 H    0.2554957551   -0.1760272790    2.1683306655
 H    0.7781538944   -1.6089237237    1.2708890384
 H    1.7796478595   -0.1497583374    1.2694403516
 H   -1.9987189464   -0.1888879379   -0.8640806634
 H   -1.4595690917   -1.6322723502    0.0064991561
 H   -1.9808882660   -0.1997963912    0.9056158002
 H    1.7548247334   -0.1355401842   -1.3011808274
 H    0.7539698884   -1.5952403591   -1.2982228033
 H    0.2135822110   -0.1534389960   -2.1706718128