16

 N    0.0243110436    1.4069875787    0.1499154512
 C   -0.0075310558    0.0218398768    0.0547188325
 C   -1.2207562051   -0.6140493212    0.0325170539
 C   -1.5927419199   -2.0191639713    0.0114827902
 O   -2.7832911055   -2.3361912215    0.0161769288
 C   -0.5865474925   -3.0969944864   -0.0324497081
 C    0.7640475283   -3.0474768861   -0.0428194088
 C    1.6273218821   -1.9028804576   -0.0068250440
 C    1.3012758989   -0.5906430908    0.0398854518
 H    0.8375195142    1.8698639648   -0.2248903698
 H   -0.8377498136    1.8879636903   -0.0557575016
 H   -2.1034729572    0.0228666704    0.0414569816
 H   -1.0604384552   -4.0749462557   -0.0610576097
 H    1.2827517813   -4.0027559969   -0.0791526617
 H    2.6904306682   -2.1291823106   -0.0145386701
 H    2.1297519979    0.1133532970    0.0793139637