23

 C    0.0812538237    1.5748749646   -0.0706382232
 C    0.0202537001    0.0429441977   -0.0371939862
 C   -1.4249540605   -0.4675057525    0.0118649725
 C    0.7540728490   -0.5670379105   -1.2305122486
 O    2.1144265713   -0.1859798341   -1.1853085659
 C    2.8745252822   -0.6926339431   -2.2567008190
 C    4.2957429514   -0.2277250473   -2.0991574058
 C    5.1937483077   -0.1188625090   -3.2538715855
 O    4.6283263649    1.0456329094   -2.6544569925
 H    1.1154152453    1.9209074134   -0.1309199079
 H   -0.4578830146    1.9669553857   -0.9419448775
 H   -0.3782282220    2.0049367075    0.8251763391
 H    0.5429721909   -0.3033885183    0.8645858835
 H   -1.9808034423   -0.1660102901   -0.8841105276
 H   -1.4670555779   -1.5599570484    0.0795884612
 H   -1.9523865008   -0.0579132028    0.8787921249
 H    0.6690112114   -1.6675867525   -1.2103653016
 H    0.2936082368   -0.2239478534   -2.1744327888
 H    2.8453385265   -1.7973420072   -2.2632095354
 H    2.4827423592   -0.3423287854   -3.2257111680
 H    4.7282690802   -0.4146594691   -1.1159010287
 H    6.2660076623   -0.2500961942   -3.1165070779
 H    4.8231125453   -0.3588648903   -4.2502285012