17

 C   -0.0058585565    1.5551355904   -0.0457939364
 O    1.3764749170    1.9286151814   -0.0107799596
 C    2.0900852315    0.7189173439    0.2006533077
 O    1.3401236169   -0.2877101195   -0.4255300119
 C    0.0088288387    0.0041866333    0.0158368620
 C   -0.1852742428   -0.5534467387    1.4321021787
 C    0.9907070297   -0.1649120033    2.3214237615
 O    2.2130161204   -0.8875256128    2.1252165583
 C    2.1664705503    0.4712171613    1.7064730046
 H   -0.5469958479    2.0012842268    0.7965839074
 H   -0.4417111502    1.9220809173   -0.9804397581
 H    3.0697280806    0.7883745454   -0.2786211061
 H   -0.6856080597   -0.4480859366   -0.6947739574
 H   -1.1172618235   -0.1674843431    1.8609973861
 H   -0.2674028424   -1.6449206755    1.3979251456
 H    0.7679022903    0.0388980715    3.3678271674
 H    2.7800830977    1.1702745380    2.2730173903