15

 O   -0.0298907064   -0.0253642241   -0.0051290609
 C   -0.0241389664    1.1660056604    0.0450223583
 C   -1.0498289030    2.3053288784    0.0059186586
 C   -0.8117497812    2.8861852863    1.4287349820
 C    0.6355411342    3.3413689257    1.1228597246
 C    0.3680183637    4.2927340065   -0.0560171358
 N   -0.0161331303    3.0729771273   -0.8539872850
 C    1.0067994495    2.2852895827    0.0052137943
 H   -2.0587845249    2.2051216016   -0.3854204318
 H   -1.4670629314    3.7225861750    1.6847944783
 H   -0.8951950210    2.1243159932    2.2090668548
 H    1.2923235213    3.5824987392    1.9590205938
 H   -0.4013156059    5.0646194052    0.0492415177
 H    1.2680897243    4.7245219397   -0.5005530387
 H    2.0330840275    2.1948823428   -0.3458227400