16

 C   -0.0266015110    1.4965623514    0.0264305443
 C    0.0006503941    0.0050132029    0.0013073416
 C   -0.0217633939   -0.7927718739   -1.0683176923
 N    0.0165623367   -2.1667817371   -0.7260267467
 C    0.0036743520   -3.1938710724   -1.6650816842
 O    0.0345797636   -4.3697629000   -1.4256044083
 C    0.0683334023   -2.2963072759    0.6960328184
 O    0.1104860770   -3.3217986780    1.3117942678
 C    0.0605867594   -0.8606743812    1.2343689176
 H    0.8641866171    1.9043555913    0.5204397006
 H   -0.0713327196    1.9109904301   -0.9844888275
 H   -0.8937403180    1.8711161016    0.5846379243
 H   -0.0635884428   -0.5222125285   -2.1146985679
 H   -0.0400321514   -2.7794491298   -2.6929168751
 H    0.9578160061   -0.6957927927    1.8431952496
 H   -0.7969237115   -0.7287427579    1.9052896778