19

 C    0.0631528673    1.4674709979    0.0326847557
 C    0.0327439006   -0.0275185771   -0.0225742401
 C    0.0020426545   -0.8019301101   -1.1195494236
 C    0.0047895813   -2.2545198575   -0.8016334307
 C    1.2227435957   -2.7603727694   -0.0242671878
 O    2.4362492840   -2.0799897787    0.0113723797
 C    0.0167045585   -2.3210711000    0.7389488724
 O   -0.6541296740   -3.2970540885    1.4704173493
 C    0.0136418925   -0.8738011045    1.2373901408
 H    0.9592533622    1.8358369279    0.5476855431
 H    0.0434248984    1.9071665975   -0.9683424146
 H   -0.7961938876    1.8571221604    0.5937033133
 H   -0.0041516169   -0.4225987237   -2.1364236668
 H   -0.5395995046   -2.9639546974   -1.4156591697
 H    1.3734454711   -3.8351344156   -0.0547227506
 H    2.2841829638   -1.2006395497   -0.3588567496
 H   -1.5990353900   -3.1101745640    1.4258548582
 H    0.8822470913   -0.6752837851    1.8786173348
 H   -0.8778048179   -0.6688233025    1.8475047562