15

 O   -0.3286033197    0.4766118353   -0.7001563185
 C    0.1274818836    1.1077131648    0.2262882279
 C    1.3502902251    1.9109539950    0.1258301430
 O    1.8001207232    2.7342045888    1.1978824214
 C    2.5237621618    3.5651827031    0.2316155256
 C    3.9549896118    3.0556159869    0.2101839821
 O    3.8236265093    1.6874697999   -0.2159818890
 C    2.5561234953    1.5487001084   -0.7830652117
 C    1.8543268235    2.8432282931   -0.9646900686
 H   -0.3408975112    1.1141426078    1.2343162020
 H    2.3698308335    4.6313778397    0.3941180242
 H    4.5858391818    3.6182002733   -0.4939605125
 H    4.4088033338    3.0680811858    1.2041832231
 H    2.4408363242    0.7144056854   -1.4624768295
 H    1.3605400338    3.2443781627   -1.8385691796