23

 C   -0.2500755938    1.4876215560    0.0124715948
 C    0.1238483822   -0.0002781597   -0.0471123469
 C    0.8237785944   -0.4792937834    1.1966585060
 C    2.2822748497   -0.1353317503    1.5453417479
 C    2.4983031446   -1.6296423796    1.9670524180
 O    2.9536279675   -1.9319559322    3.2721879861
 C    1.0281715863   -1.9231690148    1.7125958698
 C    0.0965910930   -0.9666043843    2.4206530930
 C    0.2518007233   -0.4488191993    3.8374153385
 H    0.6382683175    2.1125773181    0.1540102589
 H   -0.7408088270    1.8102494499   -0.9111781740
 H   -0.9316230729    1.6877718876    0.8457012370
 H   -0.7820775987   -0.5993960663   -0.2042855003
 H    0.7653213121   -0.1782368832   -0.9214225991
 H    2.8812619662    0.1462606470    0.6746150987
 H    2.4331643352    0.6098335037    2.3317139560
 H    3.1201557354   -2.1406028248    1.2193761870
 H    3.8961501171   -1.7399024566    3.3115956879
 H    0.6614756095   -2.8535888489    1.2925460181
 H   -0.9383837328   -1.2085466864    2.1772054278
 H    1.2959764514   -0.2967932093    4.1106157461
 H   -0.2883936097    0.4964222941    3.9670086804
 H   -0.1628896907   -1.1696290076    4.5505013080