17

 C   -0.0672589256    1.4376606014    0.0787323072
 N    0.0062248590   -0.0085386343   -0.0415229511
 C   -1.2207624225   -0.7731691449    0.0993359481
 C   -1.0805750057   -2.0808263810   -0.6509950700
 O    0.0408300482   -2.8178146568   -0.1678192772
 C    1.2257620677   -2.1470683792   -0.0470292028
 N    2.3111070972   -2.7496304354    0.1817607808
 C    1.2344186920   -0.6172339996   -0.1256139991
 O    2.2775294168   -0.0079879553   -0.2275438211
 H    0.9395012034    1.8369908638   -0.0334117967
 H   -0.7175865981    1.8550086425   -0.6987445989
 H   -0.4673829040    1.7284106811    1.0583552285
 H   -1.4625989049   -0.9609137134    1.1564149490
 H   -2.0476335945   -0.1955333550   -0.3292099101
 H   -1.9512029530   -2.7219491934   -0.4978092163
 H   -0.9663935664   -1.8904039456   -1.7263412236
 H    2.1434755903   -3.7579575350    0.2230846432