13

 O   -0.0267756924    0.0219404837   -0.4027316705
 C   -0.0530583136    1.2067722571   -0.1543589383
 C   -1.2525667849    2.0367600317    0.3196244069
 C   -0.7937804614    3.4961718402    0.1711317315
 C    0.7484074982    3.4120933852    0.2562465920
 N    1.0114678330    2.0687848588   -0.2281518223
 H   -2.1455406542    1.7827386017   -0.2535947145
 H   -1.4484924417    1.7691512060    1.3646120997
 H   -1.0815883185    3.8801699654   -0.8119953268
 H   -1.2092212442    4.1671651277    0.9253657755
 H    1.2412702209    4.1662774566   -0.3652837953
 H    1.1012806306    3.5485697094    1.2892404476
 H    1.9393140882    1.7057937765   -0.3788854156