14

 O   -0.2042245039   -0.1051008215    0.1250771485
 C   -0.0523836172    1.0922803736    0.1181334167
 N   -1.0183674721    2.1030078072    0.0733457710
 N   -0.5435849814    3.4073256769    0.2145941601
 C    0.7320126731    3.2050189887    0.2061344566
 C    2.0868818372    3.6410439213    0.6923749092
 C    2.3883621916    2.8119429187    1.9400279949
 C    2.4605878289    2.1507107849    0.5955127432
 N    1.1096464836    1.8886201638    0.0669103758
 H   -2.0066691523    1.9415398581   -0.0144385778
 H    2.6587058604    4.5090573040    0.4011829901
 H    3.3462512125    3.0249529856    2.4063646570
 H    1.5913501365    2.5576973383    2.6309364515
 H    3.3297333030    1.6754879604    0.1644355332