18

 C   -0.0241445706    1.5797362261    0.0945535690
 C    0.0381165532    0.0655324463    0.2298305798
 C    0.6501771401   -0.7741901362   -0.9556032760
 C    1.7069265088   -1.3044482772    0.0139756768
 O    2.4079618609   -0.1740191753    0.5675210701
 C    1.1397039168   -0.5172520539    1.1343739712
 C    2.3625832108   -2.6474720067    0.0134579804
 N    3.4885142875   -2.7138069803    0.7745720198
 O    1.8833411915   -3.5829354770   -0.5997284822
 H    0.9652638481    1.9828953952   -0.1392557623
 H   -0.7103155336    1.8715199212   -0.7071625525
 H   -0.3745953848    2.0477242693    1.0209633385
 H   -0.9353438247   -0.3446221542    0.5153519748
 H   -0.0123822847   -1.5629204822   -1.3126453437
 H    1.0480586050   -0.2084939992   -1.8013470530
 H    1.1201288827   -0.7342316962    2.1971053223
 H    3.9031424748   -1.8650851058    1.1214129324
 H    4.0163275182   -3.5706068840    0.7750755748