12

 N   -0.2053257723    1.2845593321    0.0110166526
 C   -0.0353426525    0.0413277555    0.0040481611
 O   -1.1603710836   -0.7541119802    0.0089257278
 C   -0.9763759591   -2.0780247075    0.0009785416
 N    0.1168935892   -2.7662473503   -0.0101552252
 C   -0.3411745816   -4.0856249658   -0.0134506004
 C   -1.6898568619   -4.0940748788   -0.0039285790
 O   -2.1169487029   -2.7803973296    0.0055939617
 H    0.6964678714    1.7576604438    0.0051144257
 H    0.8890429981   -0.5373459089   -0.0070474389
 H    0.3433394611   -4.9183190997   -0.0224070736
 H   -2.4597048859   -4.8444172406   -0.0021278032