23

 C   -0.0243326797    1.5791413656   -0.0237162881
 C    0.0185962298    0.0493025110    0.0006301818
 C    0.6948992024   -0.5318656896   -1.2489139965
 C    0.6195771994   -2.0643983943   -1.2645225194
 C    0.9840211676   -2.6720117578    0.0709840607
 C    1.2824752406   -4.1468045784    0.0391011754
 O    1.5182050080   -4.6469722574    1.3417468029
 C    1.0345107559   -1.9522554942    1.1920493043
 C    0.7235330031   -0.4804720903    1.2605958645
 H    0.9876760389    1.9984768725   -0.0769196007
 H   -0.5833461640    1.9490781654   -0.8899927645
 H   -0.5008192989    1.9790930821    0.8780450768
 H   -1.0161237929   -0.3236109294    0.0192065283
 H    0.2353485521   -0.1242103895   -2.1570131222
 H    1.7477791617   -0.2180339198   -1.2621637582
 H   -0.3945903193   -2.3859491820   -1.5477527566
 H    1.2780589226   -2.4646219623   -2.0481548323
 H    0.4355396255   -4.6706291575   -0.4414819367
 H    2.1555444585   -4.3184613070   -0.6166168118
 H    1.7603672476   -5.5736369222    1.2651733107
 H    1.3152359316   -2.4467116954    2.1164862557
 H    1.6560887341    0.0836848568    1.4243197575
 H    0.1066982053   -0.2741893863    2.1456669287