16

 N    0.0162133242    1.3903247083    0.4888563084
 C   -0.0060238690    0.0826840165   -0.1772119006
 C   -1.4069474862   -0.4834644362   -0.1876044104
 C   -1.9265707869   -1.3028704385   -1.1253416056
 C   -3.2844036873   -1.8466718236   -0.9899633692
 O   -3.7765788077   -2.6034585674   -1.8036520327
 N   -4.0143129019   -1.4336390885    0.1575274700
 C   -3.4543114916   -0.6380802964    0.9964458488
 N   -2.1842576239   -0.1499246108    0.8965129277
 H    0.9648179129    1.6403079051    0.7438321071
 H   -0.3215292041    2.1139529340   -0.1385225950
 H    0.3813355644    0.0790668454   -1.2049268244
 H    0.6353434531   -0.5908636882    0.4053381830
 H   -1.3508969475   -1.5889833688   -1.9973560729
 H   -4.0023921449   -0.3019180563    1.8763862820
 H   -1.8073642535    0.5371281555    1.5368835339