14

 C   -0.0615394151    1.4575326602   -0.0060896683
 C    0.0146563067   -0.0305855562   -0.0247634722
 N    0.0486525857   -0.7943155371   -1.1005107953
 C    0.1161891432   -2.0836760008   -0.6516060716
 O    0.1676062350   -3.1628768391   -1.4825638180
 C    0.1242068902   -2.1197435897    0.7130946500
 O    0.1784263236   -3.1063650301    1.6464108682
 N    0.0586788917   -0.7997591479    1.1085846829
 H    0.8014191473    1.9105584618    0.4971353809
 H   -0.0813662148    1.8145813672   -1.0367357377
 H   -0.9648051598    1.8201161196    0.4997203515
 H    0.1433457494   -2.8127180756   -2.3801740146
 H    0.2214595802   -3.9454981422    1.1755746518
 H    0.0487422967   -0.4850796502    2.0642166224