18

 C   -0.2255305603    1.2778973500    0.1419667493
 O    0.3868336810    0.0299478738   -0.1153889497
 C    0.8828833148   -0.5856013680    1.0325799725
 C   -0.1107702501   -1.4035587265    1.9607304580
 C   -0.2059952055   -2.4260133724    0.7692054336
 C    1.3247337237   -2.0689594651    0.8484515807
 C    1.1370750602   -2.1724843641    2.3459600784
 N    1.7604726794   -2.6870660441    3.3117936419
 O    1.0665523798   -2.4755031989    4.5320371790
 H    0.4700181691    1.9737439462    0.6346885705
 H   -0.5215279941    1.6960321218   -0.8224818388
 H   -1.1179312250    1.1727516789    0.7754204369
 H    1.5858067661    0.0707977896    1.5625811720
 H   -0.9045224251   -1.0367534161    2.6056360367
 H   -0.4806549988   -3.4491764537    1.0270313197
 H   -0.7190583247   -2.0596327139   -0.1181320258
 H    2.1409864821   -2.4465484153    0.2374122173
 H    1.6441883575   -2.9177225122    5.1629341779