21

 C   -0.0977890925    1.3900882900   -0.0215386273
 C    0.0660345348   -0.1117597858    0.0797902157
 C    1.4362680072   -0.6764799216   -0.2112400044
 C    0.8676909666   -0.6754491991    1.2196994666
 C    0.7884658149   -2.1881450246    1.1878200568
 C    1.0369150395   -3.1645278253    2.2921568577
 C   -0.3309416485   -3.0767120363    1.6496283891
 C    1.4463653300   -2.2094736510   -0.2151097331
 O    0.8299623587   -2.9175790870   -1.2643123175
 H    0.8022252337    1.9083486884    0.3260898075
 H   -0.2808732196    1.7007270752   -1.0558975246
 H   -0.9387398883    1.7386319733    0.5874107874
 H   -0.8142812434   -0.6743323479   -0.2343522336
 H    2.2132216606   -0.0481003529   -0.6314324239
 H    1.1839576365   -0.0731116448    2.0632421520
 H    1.6506824542   -4.0343744942    2.0777692169
 H    1.1485281615   -2.7788345671    3.3008577494
 H   -1.1410175753   -2.6379388670    2.2235039181
 H   -0.6274693970   -3.8806377919    0.9829279918
 H    2.4676497953   -2.5984507874   -0.1626596580
 H   -0.0485005990   -2.5440392731   -1.3937036566