17

 C   -0.1964927333    1.3956722612   -0.0917613923
 O    0.2171573451    0.0452342035    0.0550643216
 C    0.7271618564   -0.5386717230   -1.1183398974
 C    1.3151182572   -1.9070616571   -0.7514504996
 C    2.4466558126   -1.7589743617    0.2833676495
 C    3.0284724587   -3.0475799189    0.6482313857
 N    3.4808369509   -4.0734983196    0.9267732781
 C   -0.3223611946   -0.6872827298   -2.1536943971
 N   -1.1467798340   -0.7918539173   -2.9562141704
 H    0.6355253445    2.0328625179   -0.4245756193
 H   -1.0238654666    1.4872419791   -0.8068142984
 H   -0.5323615907    1.7269883125    0.8919664758
 H    1.5177791663    0.0987169188   -1.5513324376
 H    0.5178415982   -2.5356340473   -0.3459860245
 H    1.6879840108   -2.3903550958   -1.6584683251
 H    3.2436157836   -1.1173644516   -0.1116314685
 H    2.0600575349   -1.2714869909    1.1827334497