18

 C    0.0436005910    1.4189597058    0.0416916746
 N   -0.0001207336   -0.0100824646   -0.2000335540
 C    1.1978413483   -0.7718288221    0.1225026400
 C   -1.2193026821   -0.6192769971   -0.1142353037
 C   -2.4966173430   -0.1264491986   -0.0291103644
 C   -3.2960805240   -1.3034537730   -0.0523601495
 N   -4.6820211824   -1.3592802018   -0.0700230518
 N   -2.5852411680   -2.4089703126   -0.1150415120
 O   -1.2359725760   -1.9591959947   -0.1629003455
 H    1.0123767880    1.8046072578   -0.2856986978
 H   -0.7342708008    1.9192984239   -0.5410271686
 H   -0.0936703013    1.6789458320    1.1031591354
 H    1.3866169635   -0.8217275702    1.2059912717
 H    1.1004123261   -1.7878584185   -0.2580947338
 H    2.0586938618   -0.2974421392   -0.3568870065
 H   -2.8233323337    0.8967792487    0.0232782679
 H   -5.1253450186   -0.6684575522    0.5187955809
 H   -5.0308367951   -2.2885884835    0.1265123772