16

 O    0.0676512007   -0.0412905142   -0.1407229865
 C   -0.0057137598    1.1537632219   -0.1022894345
 C   -1.2796727503    2.0204948065   -0.1482360734
 N   -0.8699262401    3.3347367171   -0.6612790433
 C   -0.0717944696    4.2076549166    0.2152975204
 C    0.3549739938    3.7233215007    1.5833180609
 O    1.1458993389    2.5496497812    1.3810639466
 C    1.1470720542    2.1798655607   -0.0106905623
 C    0.6173598834    3.3636228527   -0.7900593915
 H   -2.0065081146    1.5754804027   -0.8326025101
 H   -1.7455949755    2.0754488976    0.8422765487
 H   -0.2433649482    5.2696089303    0.0691449228
 H    0.9612186079    4.4880363672    2.0851515286
 H   -0.4945235127    3.4850936014    2.2384989751
 H    2.1258897087    1.7894369370   -0.2865565572
 H    1.0540969932    3.7067857006   -1.7200449343