21

 C   -0.0653746773    1.4918932673   -0.2039592697
 C    1.4211049811    1.8997388899   -0.0413626762
 C    2.0857721749    0.7233569738    0.7154722181
 C    3.5460208765    0.3900693305    0.3057644157
 O    3.7271039509   -0.9723739057   -0.0566599341
 C    3.1336468786   -1.8549285992    0.8762723781
 C    1.5991403572   -1.8373380144    0.7377710822
 C    1.1444616245   -0.4365258734    0.4305539583
 C   -0.0119446719   -0.0121893044   -0.0784157273
 H   -0.6929584018    1.9289264723    0.5866550576
 H   -0.4917835334    1.8318490497   -1.1545849375
 H    1.8795637205    1.9870552195   -1.0329170791
 H    1.5492118578    2.8613475945    0.4629800218
 H    2.0735897958    0.9252926717    1.7974506811
 H    3.8410447467    0.9658795395   -0.5770123144
 H    4.2405379830    0.6475748138    1.1221057817
 H    3.5372326103   -2.8502141885    0.6709666561
 H    3.4317593801   -1.5803434296    1.9021815407
 H    1.2871513155   -2.5139112764   -0.0650648199
 H    1.1428751777   -2.2154746250    1.6631664385
 H   -0.8475780368   -0.6530180259   -0.3415219815