15

 O   -0.1000364177   -0.0263989385    0.0012297689
 C   -0.0247415831    1.1803366317    0.0102217616
 N    1.1559246472    1.8841179715    0.0024244013
 C    1.2715607956    3.3581816505    0.0131044518
 C    2.8042610914    3.6203517762   -0.0020900603
 C    3.3945053333    2.2163002032   -0.0204667460
 C    2.4095707601    1.3003316993   -0.0169124411
 C    4.7798055162    1.9500180247   -0.0384737642
 N    5.9263161376    1.7745380111   -0.0530328509
 H   -0.9027342602    1.8523686210    0.0259141503
 H    0.7732868038    3.7806618295   -0.8635503126
 H    0.7932754795    3.7662939869    0.9075155528
 H    3.1099147249    4.1967808216   -0.8802206506
 H    3.1298421397    4.1820352778    0.8784301451
 H    2.4750181617    0.2227694134   -0.0266211859