16

 C    0.2415136698    1.3345320470   -0.7773685317
 C    0.0731522503   -0.0109982674   -0.2458438520
 C   -0.0524397397   -1.1216996173    0.2010466093
 C   -0.2050346561   -2.4687022511    0.7428122760
 C   -1.4666598968   -3.1566439217    0.3006403677
 C   -2.4777881279   -2.7189717069   -0.5198551584
 N   -3.3409282224   -3.7621102652   -0.5525544085
 N   -2.9045398279   -4.7897808008    0.1967771269
 N   -1.7679797817   -4.4225420494    0.7141520870
 H    1.1749721506    1.7849397432   -0.4223485486
 H    0.2727832145    1.3314472498   -1.8725325539
 H   -0.5793021806    1.9920272295   -0.4702330288
 H    0.6553960850   -3.0875354940    0.4558751830
 H   -0.1852715246   -2.4355640597    1.8401437794
 H   -2.6379288737   -1.7975004131   -1.0513637067
 H   -4.2160635887   -3.8472328329   -1.0440198105