21

 C    0.7691322405    1.3409338103   -0.0208600174
 O    0.9648828009   -0.0373487569   -0.2288621574
 C   -0.0532822153   -0.6265954851   -1.0073634870
 C    0.2314068070   -2.1016032321   -1.1448368799
 C    0.5797374006   -2.9492231729    0.1009937741
 C    1.7259866457   -3.6387486137   -0.7053543294
 C    1.3999229047   -2.7576759529   -1.9416450180
 C    0.2816128841   -3.3083018646   -2.8388855484
 O   -0.7508596660   -2.7394723488   -1.9948997812
 H    0.7530345236    1.8989718210   -0.9703397389
 H   -0.1743761761    1.5430322947    0.5103354063
 H    1.6020387985    1.7022732670    0.5871907365
 H   -1.0428949223   -0.4920368805   -0.5350726762
 H   -0.1052913395   -0.1639690874   -2.0070316839
 H    0.9406186852   -2.3449810198    0.9354513214
 H   -0.2385802227   -3.5898599212    0.4368622465
 H    2.7185114981   -3.4512206062   -0.2907593500
 H    1.6186086783   -4.7150615407   -0.8668846080
 H    2.2112176841   -2.2030891531   -2.4110721798
 H    0.2449392756   -2.8814834131   -3.8495414845
 H    0.2032857450   -4.4007206841   -2.9111482549