16

 O   -1.1161908984    1.9229385765    0.2424450975
 C   -0.2003087018    1.2818351573   -0.2015682678
 C    1.2021605963    1.8588292481   -0.4515997130
 O    2.0345453495    1.1204622192   -0.9307052716
 C    1.4429212032    3.2795266908   -0.0388002298
 C    1.9247924560    3.4724081515    1.4479912457
 C    2.9418385310    4.5238345354    0.9308957639
 C    2.7474571167    3.9703359359   -0.5059906081
 H   -0.2800581092    0.2095493001   -0.4809547347
 H    0.5420908683    3.8712938284   -0.2152305917
 H    1.1686359425    3.7910769731    2.1669362807
 H    2.4207761635    2.5739601949    1.8255975120
 H    2.5559256431    5.5416340984    1.0331662562
 H    3.9489735622    4.4902724645    1.3514306073
 H    3.4975952875    3.2217600251   -0.7717014931
 H    2.6595141496    4.6912574107   -1.3212132635