18

 O   -0.1916696314    1.4898335100    0.1644144129
 C   -0.0413669484    0.1110866487   -0.1101009329
 C   -1.4064860532   -0.5909312040   -0.0840019300
 C   -1.4266515385   -2.1558168348   -0.1079611744
 O   -0.1445742399   -2.6989897355   -0.3188645274
 C   -1.9687190900   -2.1786716116    1.3635243166
 C   -2.0021662981   -0.6669793332    1.3061303565
 N   -2.3084674458    0.2830262754    2.0878088514
 O   -2.7559009033   -0.1967456284    3.3309448635
 H   -0.6797433078    1.5621983839    0.9958404595
 H    0.4044840853    0.0290056910   -1.1055415946
 H    0.6427543681   -0.3774613806    0.5975120527
 H   -2.0552640277   -0.1226740892   -0.8300207795
 H   -2.1512551001   -2.5540404935   -0.8293915519
 H   -0.2074501712   -3.6579598237   -0.2691432950
 H   -2.9326733443   -2.6681476115    1.5279102064
 H   -1.2451403955   -2.5708558277    2.0856533226
 H   -2.9814041083    0.6158228246    3.7968594137