20

 C   -0.1693694620    1.4909155689    0.1044178272
 C   -0.1637522286   -0.0365002128    0.1966872766
 C    0.9218042343   -0.5862295113    1.1374637741
 O    0.7297638746   -0.0168515687    2.4472597211
 C    0.4219563249   -0.7361542084    3.5604394670
 N    0.3959204244   -0.1881854887    4.7024710354
 C    0.0792277039   -2.2030346680    3.4182935153
 C    0.5905412046   -2.8238804824    2.1540446541
 C    0.9753124142   -2.0816677637    1.1238965651
 H    0.7836843053    1.8663392400   -0.2847478292
 H   -0.9628948205    1.8379995277   -0.5636702714
 H   -0.3293047043    1.9390013668    1.0880812577
 H   -1.1360127221   -0.4053808215    0.5447300137
 H    0.0000724663   -0.4742462018   -0.7958009388
 H    1.8924256077   -0.1886907767    0.8056515034
 H    0.6380102308    0.8014756231    4.6203161432
 H    0.4599390976   -2.7144711362    4.3065827720
 H   -1.0145190865   -2.3048311558    3.4718325884
 H    0.6237302876   -3.9081685231    2.1031054190
 H    1.3309574480   -2.5300481174    0.2008885460