17

 C    0.0583088977    1.5889598460   -0.1305286020
 C    0.0929848478    0.0746132358   -0.1220569192
 C    0.7313367354   -0.7231151533   -1.2863185622
 C    1.2618385675   -1.6820540669   -0.1403144030
 C    2.3707097821   -0.6983928881    0.0726931850
 N    1.0641301572   -0.5944744064    0.8331437566
 C    2.1492450355   -0.1687854886   -1.2957802675
 N    2.9519837063    0.3442169236   -2.1288115261
 O    2.3183502530    0.5595614082   -3.3743741221
 H    1.0324404789    2.0148881923   -0.3865439667
 H   -0.6731264864    1.9486077179   -0.8620979973
 H   -0.2336217515    1.9638769692    0.8554022145
 H   -0.8906552887   -0.3355152072    0.1275879979
 H    0.2175426235   -0.9717305045   -2.2100241989
 H    1.1882278354   -2.7422334869    0.0595513904
 H    3.2776930022   -0.7760709431    0.6535774029
 H    3.0375717740    0.9234719520   -3.9011997726