18

 C   -0.0186920292    1.4173090466   -0.1626352737
 N   -0.0546391057   -0.0331873252   -0.2566631476
 C   -1.1101712415   -0.6447358215    0.0537598855
 O   -2.2883196101   -0.0696097362    0.4632701214
 C   -3.1900994175   -1.0488468860    1.0341871750
 C   -4.5894669114   -0.8104558607    0.4918465842
 C   -2.5801576949   -2.3923727139    0.6703110110
 O   -2.4101365908   -2.5426312855   -0.7357687438
 C   -1.2771764673   -2.1247891537    0.0562619624
 H    0.9676887234    1.7241127485    0.1986247093
 H   -0.1428793264    1.8506005513   -1.1627366761
 H   -0.7920402265    1.8398037568    0.4894394568
 H   -3.1683616934   -0.9269787771    2.1257304441
 H   -4.6050894635   -0.9942291579   -0.5847920459
 H   -5.3036475647   -1.4825067453    0.9780137039
 H   -4.9001775900    0.2196346542    0.6825258995
 H   -2.8165713214   -3.2872422394    1.2384669671
 H   -0.4163850291   -2.7817878451    0.0663234268