21

 C    0.0649984586    1.3783287892   -0.3428281935
 C   -0.0044910465   -0.0062556521    0.3113942575
 C   -1.3683313978   -0.6528764226    0.1488953390
 C   -1.9426537660   -1.2583298934   -1.1243396205
 C   -0.9244302166   -2.0802884277   -1.9011323059
 O    0.1198570319   -1.3241298405   -2.4829244798
 C   -0.6286632239   -2.9386758807   -0.6184026240
 C   -1.6926811425   -2.1163595735    0.1205276742
 O   -2.6623124203   -2.6899132217    0.9285571626
 H    1.0383037204    1.8487590224   -0.1699852158
 H   -0.0841356629    1.2917004819   -1.4227270721
 H   -0.7048790811    2.0490418258    0.0555699008
 H    0.7717030160   -0.6392824469   -0.1240203018
 H    0.2174118211    0.0780407499    1.3842190580
 H   -2.1605671609   -0.1118543553    0.6679311872
 H   -2.8810288088   -0.9016063609   -1.5313512343
 H   -1.4220204987   -2.6952923663   -2.6624931831
 H    0.7033868167   -1.9287124079   -2.9525033011
 H   -0.9333106245   -3.9806639926   -0.7399560927
 H    0.3938899459   -2.9019285113   -0.2296983347
 H   -2.3585784102   -2.6451471660    1.8415472999