20

 C   -0.0152386689    1.5616922444    0.0261655499
 C    0.0132520479    0.0316455310    0.0003880140
 C   -1.3977936794   -0.5707556484    0.0216384506
 N   -1.4038711373   -2.0321966570    0.0295510602
 C   -1.3740725158   -2.7012699135    1.3161815694
 C   -1.3844687730   -2.6723961862   -1.1772755010
 O   -1.3597401073   -2.0808050952   -2.2465331924
 C   -1.4033019071   -4.1312833641   -1.1455019260
 C   -1.4166500533   -5.3309155401   -1.2346809556
 H    0.9971954368    1.9752908012    0.0058176418
 H   -0.5553917483    1.9615854886   -0.8387156246
 H   -0.5097637134    1.9375277288    0.9291992937
 H    0.5201950694   -0.3211373706   -0.9036680020
 H    0.5875947453   -0.3440387301    0.8565720734
 H   -1.9445843848   -0.2314166760    0.9094164574
 H   -1.9475508514   -0.2434338033   -0.8640398437
 H   -2.2646874524   -2.4482828782    1.9048130117
 H   -1.3459402228   -3.7806878829    1.1723026811
 H   -0.4889613665   -2.4041923074    1.8918242162
 H   -1.4288671377   -6.3902460708   -1.3183257942