17

 O   -0.0081964433   -0.0312573650    0.0195276198
 C    0.0183706702    1.1771911055    0.0139111513
 C   -1.2168684493    2.1100444463    0.0630777069
 C   -0.6722846285    3.5622139870    0.0364233425
 C    0.8118298581    3.3542613381   -0.0241700573
 C    1.1867087924    2.0708870666   -0.0361493452
 C    2.6764690398    1.9620768239   -0.0968622295
 O    3.1243258651    3.3297069339   -0.1189516244
 C    2.0182009288    4.2339859894   -0.0761957265
 H   -1.8676632964    1.8866493047   -0.7873196537
 H   -1.7946093899    1.8913696823    0.9658640414
 H   -1.0361389151    4.1319128880   -0.8271329283
 H   -0.9638574842    4.1368245308    0.9238272288
 H    3.1053903282    1.4469337025    0.7738170890
 H    3.0327898613    1.4421541434   -0.9969460601
 H    2.0269509125    4.8854604079   -0.9646191533
 H    2.0995687303    4.8904753448    0.8048166586