19

 C   -0.0433185096    1.2897961670    0.1440570254
 O   -0.0619868949   -0.0992553478   -0.1158250830
 C    0.6938479582   -0.5627043749   -1.2311047156
 C    0.2407826363    0.0238355456   -2.5557986487
 C    2.2168011804   -0.5912218335   -0.8865608773
 C    1.9749569925   -1.9879144842   -0.2731904743
 O    2.5188057986   -2.6272862891    0.5762926350
 C    0.6462325987   -2.1261036276   -1.0598456758
 O   -0.4828519328   -2.7164475840   -0.5149451721
 H    0.9791175769    1.6801026458    0.2414486733
 H   -0.5631397187    1.8622370341   -0.6348092216
 H   -0.5643607072    1.4373027992    1.0927169142
 H    0.4328491657    1.0992709165   -2.6197562059
 H    0.7756498009   -0.4552436468   -3.3811814940
 H   -0.8313909558   -0.1455825896   -2.6963611556
 H    2.8579818178   -0.6314528649   -1.7727877387
 H    2.5964776002    0.1723267608   -0.2057710771
 H    0.8586017602   -2.6119121676   -2.0207920144
 H   -0.7592234076   -2.1430548389    0.2120409563