20

 C   -0.0275081286    1.4626116583   -0.0221748573
 C   -0.5730099329    0.2022978208    0.6220018055
 O   -1.1121973314   -0.6237924775   -0.4165750238
 C   -1.5632082353   -1.8324872553   -0.0341527304
 N   -2.0917397365   -2.6014552908   -0.8792175043
 C   -2.5842619526   -3.9097651616   -0.4848966203
 C   -2.6020046464   -4.2937545467    0.9962413716
 C   -3.9675043431   -4.0696970699   -1.1250594707
 O   -4.8601951316   -4.7306351494   -0.6629019643
 H    0.3898324615    2.1238262836    0.7426978196
 H    0.7599578266    1.2178952182   -0.7399039274
 H   -0.8205311401    1.9981023041   -0.5507826290
 H    0.2205672341   -0.3408907352    1.1529828461
 H   -1.3615274676    0.4433976132    1.3476721194
 H   -1.4153781135   -2.0510325866    1.0308989033
 H   -1.9661337968   -4.6479483165   -1.0278041761
 H   -3.0901901232   -5.2639822682    1.1058632067
 H   -1.5911081685   -4.3618666355    1.4078521872
 H   -3.1745190525   -3.5706785604    1.5860821254
 H   -4.0707431515   -3.5187714244   -2.0839418008