23

 C   -0.1079329637    1.7898835357   -0.1963563660
 C    0.1134808597    0.2764722407   -0.1060307401
 C    1.1128748140   -0.2289030678   -1.2005627331
 C    1.9652712253   -1.2434439833   -0.4804168640
 C    1.7978389035   -1.1891291733    0.8396995183
 C    0.8032696250   -0.1285144247    1.2402166171
 C   -1.1765311064   -0.5374153256   -0.2361977677
 C   -2.5042944959   -0.1191751358    0.3410497569
 C   -2.3141235862   -0.1809932850   -1.1581327520
 H    0.8473368059    2.3150998670   -0.0966688936
 H   -0.5422905739    2.0840102442   -1.1572412046
 H   -0.7652388039    2.1562069043    0.5987799327
 H    0.5833712191   -0.6451952389   -2.0657375467
 H    1.7330224367    0.5925133951   -1.5874087519
 H    2.6493989134   -1.9067027351   -0.9990145233
 H    2.3242819848   -1.8012451665    1.5643089168
 H    1.3157924143    0.7277941952    1.7017523614
 H    0.0705861478   -0.4789434385    1.9768118815
 H   -0.9762322458   -1.6047054749   -0.1668003746
 H   -3.1188688546   -0.8752026672    0.8179058798
 H   -2.5932518180    0.8639260710    0.7900589588
 H   -2.2782424947    0.7615254991   -1.6932720292
 H   -2.7982102064   -0.9794355557   -1.7102407263