22

 C   -0.1476681845    1.5642141100   -0.0965228382
 C   -0.0110913981    0.0343196565    0.0118049109
 C    0.7923855930   -0.5152346307   -1.1465679469
 C    1.9979096100   -0.9394763094   -0.7740649644
 C    2.2082804837   -0.7906958870    0.7111908821
 C    0.7758944014   -0.5102250720    1.2635626124
 C    0.7999880848    0.4375951628    2.4679411052
 C    0.1365745984   -1.8457115784    1.6874844940
 H    0.8309944213    2.0551197712   -0.1007670825
 H   -0.6517732882    1.8323227219   -1.0312511879
 H   -0.7361822805    1.9794651791    0.7274296124
 H   -1.0283044398   -0.3813563930    0.0174681852
 H    0.4201905498   -0.4970364538   -2.1660914666
 H    2.7606406427   -1.3289656288   -1.4399711080
 H    2.6523799174   -1.6813798636    1.1732359956
 H    2.8975899852    0.0384887376    0.9271836876
 H    1.2603229024    1.3999002626    2.2259922228
 H   -0.2094146380    0.6330171452    2.8474696882
 H    1.3758398728   -0.0056787624    3.2882918537
 H    0.6979218629   -2.3070222652    2.5077009703
 H   -0.8936385316   -1.6966438450    2.0296391395
 H    0.1151470148   -2.5530354674    0.8521523646