13

 C    0.0005694682    1.4635149071    0.0567470649
 N    0.0296682750    0.0168881263    0.0505759609
 C    0.0027982178   -0.7661415598   -1.1255320593
 O   -0.0466382342   -0.3693767028   -2.2704838846
 N    0.0467211169   -2.0377394722   -0.6190962719
 N    0.0981427828   -2.0941246830    0.7725874388
 C    0.0851268317   -0.8443564391    1.1067416458
 O    0.1204514811   -0.3607938280    2.3527171835
 H    0.9001873037    1.8729606659    0.5243092526
 H   -0.0432400052    1.7755115816   -0.9883956058
 H   -0.8790787586    1.8369267989    0.5881242034
 H    0.0441155127   -2.8848170205   -1.1572816294
 H    0.1575627383   -1.1178741143    2.9525520612