13

 O    0.1369930486    0.3871584026   -1.1618386815
 C    0.0861600281    1.3277031783   -0.3995060584
 N    1.1112532900    1.7458573547    0.3933625878
 C    2.4287878158    1.1236967213    0.3370942492
 C    3.4964576373    2.0942431065    0.1374970897
 C    4.3826838512    2.9055793649   -0.0038734722
 C    5.3778561888    3.8189047189   -0.1674071390
 C    6.2609477829    4.6294663258   -0.3113663605
 H   -0.8187771620    1.9497909417   -0.2601518293
 H    0.9909211383    2.5708526132    0.9589537122
 H    2.6231968938    0.5458764429    1.2513021234
 H    2.3865955378    0.4072446595   -0.4906641440
 H    7.0378801094    5.3416824698   -0.4403408174