17

 N   -0.0619866013   -1.1278506841    0.0216191732
 C   -0.0306078502    0.0275225668    0.0400473479
 C   -0.0043674206    1.4768222300    0.0327172848
 N   -0.8228143205    2.1086243909    1.0637664752
 C   -0.6395934139    3.5484199712    0.7374940303
 C    0.3763953596    3.4417541770   -0.3940575685
 C    1.3477794333    2.2571412494   -0.0582064130
 C    1.4430034135    1.9276308853   -1.5649674524
 C   -0.0465042145    2.2668991231   -1.3372839824
 H   -1.7931536300    1.8243249160    0.9803548658
 H   -1.5725708945    4.0272556958    0.4182273553
 H   -0.2527305266    4.0991647526    1.6019595330
 H    0.7852897072    4.3521571009   -0.8314966201
 H    2.1307507532    2.2414278312    0.6997738272
 H    2.0097018142    2.6361775184   -2.1725676129
 H    1.6825667778    0.8962231290   -1.8331966369
 H   -0.8661863567    2.2591414665   -2.0569807864