16

 N   -1.2020349269    0.9449132869   -0.6502427876
 C   -0.9472393380   -0.2891990073   -0.6494721370
 O   -1.1810309739   -1.0182067484    0.4665723262
 C   -0.9885496086   -2.4241323706    0.3929199473
 C   -2.3171977133   -3.1451483610    0.2103074445
 O   -2.8555663421   -2.8961811997   -1.0809207833
 C   -3.8240920163   -1.9573095147   -1.1912357729
 N   -4.2543246443   -1.6394710720   -2.3322176871
 H   -0.9590444935    1.3474972014   -1.5528111426
 H   -0.5333680063   -0.8786703304   -1.4774463134
 H   -0.3088253536   -2.6837351521   -0.4281746114
 H   -0.5284683548   -2.7358028462    1.3364585128
 H   -2.1623385357   -4.2261269453    0.2913317968
 H   -3.0194619075   -2.8344875384    0.9938471332
 H   -4.1543347436   -1.5548869277   -0.2251645941
 H   -4.9843634414   -0.9360559545   -2.2427766714