16

 O    0.0542001782   -0.0382763985    0.0482672657
 C   -0.0362755251    1.1595466302   -0.0003655684
 C   -1.3363234753    1.9345866923   -0.0555035949
 C   -1.2715933291    3.0713554528   -1.0953880220
 C    0.0066139409    3.8848913355   -0.9171804823
 O    1.1626066342    3.0485316774   -1.0222199347
 C    1.2412162602    2.0504320348   -0.0262284637
 C    1.4707481938    2.6190953377    1.3188335913
 N    1.6088557297    3.0733329250    2.3728794472
 H   -2.1542598528    1.2356888076   -0.2428650521
 H   -1.4874326057    2.3672251790    0.9440517991
 H   -1.2868020414    2.6489667027   -2.1060746471
 H   -2.1465844656    3.7225415187   -0.9986808739
 H    0.1215920905    4.6295463553   -1.7077196242
 H    0.0089925650    4.4089378023    0.0502520590
 H    2.0832761826    1.4040968572   -0.2850684890