22

 C    0.0475282483    1.3795727954    0.1003985454
 O   -0.0596730000   -0.0180746763   -0.0570405771
 C    0.6565465335   -0.5546523730   -1.1577759919
 C    2.1623105118   -0.6102648395   -0.8892607348
 C    0.0031523734   -1.9454960081   -1.4457154021
 C    0.1371612120   -2.8989328200   -0.2367337352
 C   -1.4884757640   -1.7497455081   -1.8020176489
 C    0.6808542571   -2.5378017749   -2.6095620382
 N    1.2066290485   -3.0023853406   -3.5285902241
 H    1.0627208423    1.6954794192    0.3773768555
 H   -0.2442692925    1.9132485493   -0.8169836832
 H   -0.6351576640    1.6623754238    0.9052185465
 H    0.4781333346    0.0728403669   -2.0467252441
 H    2.6849440347   -1.1063036405   -1.7112329052
 H    2.5731973470    0.3986164284   -0.7971241684
 H    2.3730220234   -1.1467538514    0.0396584287
 H   -0.2969881942   -2.4204580926    0.6432454299
 H   -0.3944725040   -3.8336014726   -0.4320571746
 H    1.1805758613   -3.1429823794   -0.0262605129
 H   -1.6017872036   -1.1011447093   -2.6754459805
 H   -1.9594671752   -2.7098145289   -2.0275312198
 H   -2.0001740806   -1.2888607678   -0.9559034251