16

 O    0.0043200350   -0.0000930167    0.0873676591
 C    0.0064931936    1.2027365507   -0.0093433254
 N   -1.1019288811    2.0373729098   -0.0771744807
 C   -0.6475356598    3.4361404736    0.0326613655
 C    0.6249363646    3.3488067113   -0.8355639318
 C    1.2128723297    2.1772857815   -0.0193188300
 C    1.1574490420    2.7534240246    1.4143335154
 O    1.2460396082    4.1825922211    1.5179164373
 C   -0.0521338755    3.5797888570    1.4532313831
 H   -1.9870455913    1.7167893075    0.2856974987
 H   -1.4147702411    4.1486952150   -0.2669412078
 H    0.3895882695    3.0744942674   -1.8643841023
 H    1.2348374127    4.2483499180   -0.8016854238
 H    2.1484253524    1.7227317359   -0.3358399392
 H    1.5335035499    2.1872174349    2.2595438979
 H   -0.6856721586    3.6934661184    2.3278699540