18

 C    0.0075874011    1.4984284539    0.0379785848
 C   -0.0344263252   -0.0095364559    0.0671810372
 C    1.2413307534   -0.7847983301   -0.2161242130
 C    0.6387993970   -0.8065351851    1.1739011588
 O    1.2836933545   -0.1610277776    2.2302647045
 C   -0.2733801082   -1.9579153506    1.4561164802
 C   -1.3448588069   -1.9365101690    0.6620705796
 C   -1.3488387796   -0.7289956568   -0.2531677551
 H    0.9340105842    1.8689558638    0.4848116185
 H   -0.0559439292    1.8816856695   -0.9871287871
 H   -0.8265675737    1.9251360571    0.6062704107
 H    1.2072109007   -1.6907029308   -0.8139061482
 H    2.1336965463   -0.1788039472   -0.3472896638
 H    2.1484352389   -0.5671215558    2.3476220352
 H   -0.0426906024   -2.7095453997    2.2028909824
 H   -2.1226150829   -2.6911493418    0.6324773739
 H   -2.2166631262   -0.0830974853   -0.0593143345
 H   -1.4123191118   -1.0169908487   -1.3109018442