19

 C   -0.0753117959    1.4382863693    0.0067820285
 C    0.0373168780   -0.0744648300   -0.0147804073
 C    0.6906506359   -0.6567799158   -1.2391543825
 C    1.4521051678   -0.5996445517    0.0653346363
 N    1.7355313327   -2.0894406397    0.0685988919
 C    0.5078182352   -2.9262240259    0.0334925191
 C   -0.7159721496   -2.8445512591    0.9391508803
 C    0.8958245125   -2.1802601429   -1.1907178304
 H    0.7877489782    1.9075829361   -0.4776646510
 H   -0.9746125864    1.7728305627   -0.5214944937
 H   -0.1275409963    1.8146251739    1.0338342542
 H   -0.7904921748   -0.5753737563    0.4634899767
 H    0.8438850858   -0.0850787062   -2.1454911993
 H    2.2750095666    0.0350194054    0.3706887501
 H    0.8601192219   -3.9546630344   -0.0495575995
 H   -0.5419062839   -2.1944322944    1.7998969738
 H   -1.6087889710   -2.4933686958    0.4147929272
 H   -0.9388118510   -3.8421965358    1.3278463693
 H    1.2837583744   -2.7052251594   -2.0603985837