15

 O    0.1113117054    1.3616125625   -0.0221295824
 C    0.0772184309    0.0149286813    0.0490595130
 N    0.1299959056   -0.7299285397   -1.0511984861
 N    0.0806565189   -2.0348797457   -0.5887154879
 C   -0.0080383786   -2.0402588850    0.7474469011
 C   -0.0170818187   -0.7592383100    1.2230133346
 C   -0.0614707677   -0.8230139419    2.7224637798
 C   -0.2462845642   -2.3700778835    2.9283912975
 O   -0.0631949894   -3.0458990101    1.6347468887
 H    0.1766344928    1.5881604138   -0.9589272676
 H    0.0877940382   -2.7962898980   -1.2422798888
 H    0.8592924192   -0.4660844920    3.1985579296
 H   -0.8931128450   -0.2746990404    3.1761126757
 H    0.4801062476   -2.8040972204    3.6176992734
 H   -1.2549656350   -2.6139909510    3.2731178593