16

 O   -0.1432343586    0.0306409772    0.3460692804
 C   -0.1014822083    1.1838279063   -0.0303499903
 C    1.1187680222    1.9742020867    0.0010921196
 C    2.1412012228    2.6044322086    0.0635262923
 N   -1.1724011974    1.8492111493   -0.6088407885
 C   -1.7877194435    3.0532095939   -0.0551302539
 C   -2.6988823524    3.6316891206   -1.1447335964
 C   -3.4687984246    2.2609169246   -1.1795801861
 C   -2.5243459812    1.7354819328   -0.0891207021
 H    3.0506300668    3.1516129573    0.1186382467
 H   -1.3157691663    3.5604863717    0.7776464161
 H   -3.3248161571    4.4481142128   -0.7792870611
 H   -2.1927704997    3.9411760286   -2.0613781296
 H   -4.4988620019    2.3575488839   -0.8315751783
 H   -3.4508359152    1.7051625844   -2.1191117311
 H   -2.7229864855    1.0272963515    0.7050269723