21

 C   -0.0178872069    1.5448709998   -0.0042688353
 C    0.0524543938    0.0347963465   -0.0268128186
 C   -0.8336436699   -0.7918580856    0.8887633640
 C    0.6624621076   -0.7985727414    1.0908101389
 C    1.4735186695   -1.9253182048    0.4546412531
 C    1.1880873408   -1.7703321772   -1.0236406246
 C    0.4420057565   -0.6935032246   -1.2846200454
 C   -0.0333162527   -0.2373487196   -2.6267742462
 O    0.4411505018   -1.1173253766   -3.6302456167
 H    0.9231811679    1.9958513959   -0.3400364888
 H   -0.8191529103    1.9253732341   -0.6492348892
 H   -0.2178599638    1.9087768795    1.0084234155
 H   -1.4232581377   -0.2579612729    1.6283235959
 H   -1.3137106284   -1.6751689299    0.4790856500
 H    1.0476577276   -0.3137688325    1.9811557413
 H    2.5458768697   -1.8202866442    0.6709625661
 H    1.1822487699   -2.9151553301    0.8308442776
 H    1.5310278743   -2.4722323874   -1.7727045626
 H   -1.1376948554   -0.1916105363   -2.6224554364
 H    0.3125366685    0.7958933818   -2.8066270239
 H    0.1403930875   -0.7875193846   -4.4814194746