23

 C   -0.0847837271    1.6529665144   -0.0287175706
 C   -0.0035795963    0.1472124315   -0.0113084924
 C    0.1005023429   -0.5404273614   -1.1566045158
 C    0.1545735597   -2.0064574892   -1.3797436832
 C    0.7578401844   -3.0193615017   -0.4205270315
 C   -0.7360067858   -2.9376710632   -0.5674924491
 C   -1.6413880063   -2.3363409332    0.4944976467
 C   -0.9647736381   -1.6352349857    1.6849188845
 C    0.0332482270   -0.4800255420    1.3753284039
 H    0.7482228272    2.1017038968    0.5295455153
 H   -0.0629435020    2.0528686591   -1.0461588648
 H   -1.0041176647    2.0064239447    0.4573485336
 H    0.0995488584    0.0406194582   -2.0772140819
 H    0.2587783843   -2.2705743140   -2.4273218052
 H    1.2706242899   -3.8662554824   -0.8638026178
 H    1.2155854249   -2.6658434902    0.4933639214
 H   -1.1999840639   -3.7402007828   -1.1344666096
 H   -2.3173032311   -1.6232869127    0.0042667184
 H   -2.2815715556   -3.1283286540    0.9016668933
 H   -1.7694590063   -1.2407397518    2.3154856994
 H   -0.4518071987   -2.3854428084    2.2974099391
 H    1.0582906722   -0.8242986257    1.5611873462
 H   -0.1280869848    0.3123905138    2.1136142003