15

 O   -0.0797241902    0.0567217762   -0.6122413450
 C   -0.1089842459    1.1643903912   -0.1767320669
 C   -1.1982151844    2.0490514148    0.4643548338
 C   -0.1732818251    3.2057840326    0.5945247215
 C    0.6926236307    3.1360750497    1.8562575451
 O    1.5941511408    2.1744213173    1.2515674183
 C    0.9542007493    2.3063208336   -0.0487355277
 C    1.8239856045    2.6348381480   -1.1396740938
 C    2.5179123475    2.8968981783   -2.0862726458
 H   -2.0017431070    2.2513355030   -0.2510981688
 H   -1.6451604035    1.6708451305    1.3879344041
 H   -0.4529062201    4.1774414688    0.1961411545
 H    1.2215715491    4.0651357778    2.0989521610
 H    0.2146078880    2.7418981456    2.7600069072
 H    3.1408565362    3.1232961225   -2.9165257376