23

 C    0.1246717005    1.4906695034    0.1421940236
 C   -0.0698065112   -0.0293977329   -0.0262582806
 C   -1.5644711429   -0.4066547409   -0.0134831944
 C    0.5874235040   -0.5138174149   -1.2414224633
 C    1.1170810761   -0.8947329103   -2.2546350541
 C    1.7656832280   -1.3895400783   -3.4645875120
 C    2.0466827258   -2.9037039816   -3.4224987003
 C    2.7333231620   -3.3976878085   -4.6888463488
 O    2.9447343293   -4.7939992070   -4.5527949800
 H    1.1860968283    1.7514652190    0.1618395296
 H   -0.3413894457    2.0323059346   -0.6869191330
 H   -0.3337729348    1.8319612354    1.0761046431
 H    0.4053896453   -0.5229474450    0.8334745137
 H   -2.0887422130    0.0700530407   -0.8476847176
 H   -1.6977335043   -1.4878602748   -0.1042241079
 H   -2.0328172418   -0.0768583702    0.9196960094
 H    1.1390677974   -1.1589599540   -4.3372661013
 H    2.7087289539   -0.8479825831   -3.6224122445
 H    2.6774712314   -3.1394299418   -2.5592706739
 H    1.1081794532   -3.4511886379   -3.2880404011
 H    2.1039576765   -3.1723751490   -5.5662245343
 H    3.6866830756   -2.8608853227   -4.8284730402
 H    3.3794766365   -5.1118685404   -5.3493152320