19

 C    0.0251869485    1.5035244050   -0.0199353045
 C   -0.1016686209   -0.0062726694    0.0808657188
 O    0.7645245966   -0.4487111840    1.1238780718
 C    0.7969033151   -1.8422509267    1.3110423856
 C    2.0161570257   -2.2415757292    2.1612857135
 C    1.4509039856   -3.1573882820    3.2161196298
 C    0.1141815593   -3.2353636817    3.1909907761
 C   -0.4228601924   -2.3914883913    2.1033031473
 O   -1.5839527748   -2.1507879239    1.8597393141
 H    1.0596878070    1.7930943424   -0.2267425554
 H   -0.6106659818    1.8832947724   -0.8252620588
 H   -0.2831458414    1.9777198644    0.9161953990
 H   -1.1336645125   -0.3048056783    0.2933143557
 H    0.1968422341   -0.4862652430   -0.8669006937
 H    0.8181038827   -2.3619017681    0.3378838406
 H    2.8103986074   -2.7227555973    1.5807448334
 H    2.4530279148   -1.3425555106    2.6114057056
 H    2.0911165029   -3.6784421782    3.9205874054
 H   -0.5209055561   -3.7984212705    3.8628990258