19

 O    0.0597320847    1.3983948892   -0.2012677333
 C    0.0223213096    0.0015057808    0.0026443453
 C    0.5053744580   -0.4288060134    1.4117307797
 O   -0.3265390056   -1.4983639688    1.8219817892
 C   -1.6242902169   -1.1907550756    1.3386701496
 C   -1.4060234815   -0.6500621519   -0.0870371871
 C   -2.4442582768    0.3212344803   -0.5964647511
 C   -3.8040460804    0.4250936456   -0.0508701239
 O   -2.8070537695    1.3944698201    0.2879966147
 H   -0.6091928180    1.8046159415    0.3633540855
 H    0.6724584497   -0.4106234792   -0.7728130051
 H    1.5413745129   -0.7744816222    1.4385872391
 H    0.4092055938    0.4380104524    2.0877917263
 H   -2.2222594291   -2.1040005141    1.3797499260
 H   -2.1001759184   -0.4221153824    1.9685420893
 H   -1.3640449554   -1.4933832842   -0.7846501149
 H   -2.2929317923    0.6492034144   -1.6243545128
 H   -4.6097959628    0.7958663162   -0.6819711304
 H   -4.1179066020   -0.2254999386    0.7632832242