20

 C    0.0649631605    1.5040350045   -0.2355244957
 C   -0.0912212633   -0.0054521843   -0.0028661038
 C    0.6293102390   -0.4680822604    1.2321915453
 C    2.1148302881   -0.8623946915    1.2859884672
 C    1.0756022580   -1.8142429288    1.7611720696
 O    0.6896428919   -1.4658319488    3.1156343078
 C    0.1885485314   -0.2409476059    2.6449962091
 N   -0.4632721322    0.6474689058    3.2345459493
 C   -0.7711156682    0.4856707695    4.6488014700
 H    1.1169245810    1.7733545265   -0.3757335086
 H   -0.4878350071    1.8203104403   -1.1251825017
 H   -0.3150259147    2.0615371908    0.6248050632
 H   -1.1554121708   -0.2529642748    0.0905684287
 H    0.2860858466   -0.5624027060   -0.8691188085
 H    2.5427511629   -1.0725453479    0.3095319287
 H    2.7926590230   -0.4096682290    2.0031059907
 H    0.8874109263   -2.8283494760    1.4358074568
 H   -0.2746093365    1.2801535346    5.2172125823
 H   -1.8488101125    0.6137724929    4.7959366427
 H   -0.4692402033   -0.4831409415    5.0630327770