18

 C   -0.3466958465    1.4545892470    0.0077199878
 C    0.1330240731    0.0059506514    0.0113361276
 N    0.7889413882   -0.3183157351   -1.2667765323
 C    2.2473110385   -0.1461481973   -1.3450792867
 C    1.6430453431   -1.4994362215   -1.2328812583
 C    1.7016698935   -2.2542577016    0.0735836342
 O    1.7825445925   -1.3846420729    1.2066424577
 C    0.9787758988   -0.2886955465    1.2609312984
 O    0.9821274570    0.3895299853    2.2504648057
 H    0.5028610631    2.1403026845   -0.0588218000
 H   -0.9970116599    1.6203364723   -0.8539297972
 H   -0.8884320874    1.6804566253    0.9270634490
 H   -0.7428135193   -0.6568832681    0.0725696982
 H    2.6138744944    0.2049122948   -2.3046767078
 H    2.7798066174    0.2479349892   -0.4829817194
 H    1.5874488020   -2.1409949915   -2.1111727688
 H    0.8165103211   -2.8982755677    0.1722417233
 H    2.5861211406   -2.8948161776    0.1295309085