18

 C   -0.5690801843    1.8409176025   -0.3103715013
 N   -0.6860426129    0.4026818018   -0.1526216181
 C   -0.0415660443   -0.3470710316   -0.9506150667
 N   -0.3465582631   -1.7432104246   -0.8861292079
 C    0.5316657299   -2.7418514562   -0.5545795157
 O    1.7381455674   -2.6516178267   -0.4969858618
 N    0.7600447560    0.0848963714   -1.9972869047
 C    1.9196527119   -0.5372896552   -2.6059763539
 C    2.0449612280    0.7491729406   -1.8514771622
 H    0.3744144500    2.2207629105    0.1053216314
 H   -0.6090156136    2.1497874248   -1.3644113565
 H   -1.3842607666    2.3262077885    0.2327178939
 H   -1.3005746098   -1.9013564847   -0.5897470325
 H   -0.0059065081   -3.6872082356   -0.3481867160
 H    2.3241280605   -1.4268205983   -2.1390868588
 H    1.9203895423   -0.5142098771   -3.6925530854
 H    2.1558646975    1.6930550555   -2.3774831421
 H    2.5225966392    0.6983243544   -0.8765031016