19

 N    0.0945618618    1.4671196990   -0.0573866752
 C    0.0564566511    0.0562520066   -0.0039412875
 C   -1.0767030552   -0.7370463824   -0.0183083733
 C   -2.5240660459   -0.3740903016   -0.0615111670
 C   -3.0569620891   -0.1549711167   -1.4817431599
 O   -4.4332763414    0.1792178789   -1.3816394879
 N   -0.6397683824   -2.0524126941   -0.0493674261
 C    0.7246802536   -2.0995129214   -0.0361510291
 C    1.1917245930   -0.8047712401   -0.0127773282
 H    0.8804040768    1.8392945326    0.4622531259
 H   -0.7522112970    1.8860278980    0.3094902895
 H   -3.1340791811   -1.1489104468    0.4203467945
 H   -2.7033239486    0.5446660647    0.5114264186
 H   -2.4777651321    0.6453144114   -1.9662513946
 H   -2.9061915462   -1.0715604317   -2.0741843969
 H   -4.7639887574    0.3619672788   -2.2657475087
 H   -1.2481304714   -2.8514346505   -0.0307276249
 H    1.2525492600   -3.0394456425   -0.0372714977
 H    2.2276277412   -0.5005131421   -0.0086950016