23

 C    0.0142767895    1.5457154495    0.1984244932
 C    0.0188222827    0.0219243166    0.0409934103
 C    0.7847918216   -0.4228734669   -1.2003451810
 O    0.6383233321   -0.6262311007    1.1474946507
 C   -0.1296005353   -0.6695690016    2.3297573579
 C    0.6322690962   -1.5027063080    3.3571059525
 C   -0.1320759452   -1.6428420977    4.6490739816
 C    0.5285210293   -1.6425447900    5.9594309947
 O   -0.1748053968   -0.4886933350    5.4975896551
 H    1.0398342971    1.9185277528    0.2875557734
 H   -0.4512040568    2.0184003137   -0.6724417368
 H   -0.5437178097    1.8620969103    1.0840917566
 H   -1.0244033362   -0.3308330598   -0.0355570966
 H    1.8277386410   -0.0958359032   -1.1385236311
 H    0.7731921559   -1.5125854993   -1.2861302302
 H    0.3412158579    0.0053077771   -2.1040882489
 H   -0.3087066764    0.3354513989    2.7393984016
 H   -1.1175748251   -1.1205276306    2.1284516773
 H    0.8282520541   -2.4962062886    2.9357767033
 H    1.6013100659   -1.0315968902    3.5513180862
 H   -1.0915846078   -2.1594851715    4.5732518253
 H    0.0721085128   -2.1651208286    6.7991326633
 H    1.6119016932   -1.5399640371    6.0111086814