16

 O   -0.0148367739    1.3373656075   -0.3020927910
 C   -0.0730048202    0.0113516192    0.1869573960
 C   -1.4534874298   -0.5582734830    0.0844760729
 N   -2.5684307627   -0.0102013056    0.9102139140
 C   -3.3410290462   -1.2251519209    0.4594219775
 C   -2.0065891608   -1.9372915020   -0.0113974273
 C   -2.0762107772   -0.9784395259   -1.2486503648
 C   -3.5546382784   -0.9058266489   -1.0387293419
 O   -4.5127262674   -0.8611817829   -1.7536428849
 H   -0.7663321464    1.8127909028    0.0710175618
 H    0.6264482476   -0.5830930146   -0.4103312373
 H    0.2619629752   -0.0468536290    1.2367688337
 H   -2.3041004820   -0.1729993215    1.8838558302
 H   -4.1306665732   -1.6108521932    1.0975705460
 H   -1.6223769985   -2.9474435879    0.0181314258
 H   -1.5002709061   -1.0246588441   -2.1624223506