18

 C   -0.0122227193    1.5553086093    0.0399160759
 O    1.3090177863    2.0923417037    0.0219796744
 C    2.3202469675    1.0792868002   -0.0343994465
 C    2.1239058173    0.1338188167    1.1396413687
 C    0.9107098207   -0.4260021800    1.1496502293
 C    0.0387465049    0.0078988334   -0.0163749208
 C    0.7971267065   -0.3931659371   -1.2969722922
 N    1.1024491530    0.6896262674   -2.2603048855
 C    2.1323770419    0.2286223847   -1.3076556156
 H   -0.5152672300    1.8744825080    0.9621973057
 H   -0.5552704254    1.9467555001   -0.8256351600
 H    3.2738507679    1.6089059619   -0.0156511648
 H    2.8824009263   -0.0077983358    1.9005484325
 H    0.5414882192   -1.0836829011    1.9284902685
 H   -0.9708206929   -0.4069803660    0.0230218678
 H    0.6519534891   -1.4036046439   -1.6673929313
 H    1.2845704509    0.2842865047   -3.1757643997
 H    2.9990222860   -0.3121430361   -1.6772331964