13

 O    0.1068765713    1.3468800671    0.0957623122
 C    0.0771038795   -0.0102128735    0.0207300599
 C    0.1394512950   -0.7109831736   -1.1819149598
 C    0.1009993897   -2.1031500449   -1.1404144638
 O    0.1551858180   -2.8843703916   -2.2517087799
 C    0.0018304490   -2.7367579312    0.1015055051
 N   -0.0572505746   -2.0601669413    1.2459051803
 C   -0.0210835230   -0.7302698740    1.2146912906
 H    0.1755501616    1.7184654167   -0.7897726459
 H    0.2163351762   -0.1835828485   -2.1309647575
 H    0.2218384042   -2.3285411244   -3.0350188609
 H   -0.0289608965   -3.8213155113    0.1464433602
 H   -0.0703742403   -0.1950451495    2.1582686793