17

 C   -0.0884156795    1.5557708610   -0.0314499741
 C    0.0555043998    0.0539582895    0.0359191181
 C    1.3603425490   -0.6943693262   -0.1889018476
 N    2.6013350513    0.0345041722   -0.0761753893
 C    2.6939349403    0.4437396305    1.1306239398
 N    1.6484045447    0.0612732206    1.9799898478
 C    1.5838387557    0.3222297425    3.3297428898
 O    2.4168048703    0.9459946773    3.9440538448
 C    0.6928842882   -0.6826162097    1.1914711609
 H    0.8140763071    2.0744846884    0.2982234877
 H   -0.2915456512    1.8724097786   -1.0590692854
 H   -0.9192312935    1.8934404906    0.5970901360
 H   -0.7940383935   -0.4923370431   -0.3669826975
 H    1.3724942107   -1.5529291010   -0.8496400136
 H    3.4940304537    1.0492188428    1.5353326717
 H    0.6748356032   -0.1083598353    3.7892770184
 H    0.2197244738   -1.5281388388    1.6758196724