18

 C    0.0310763953    1.5921599265    0.0811078093
 C    0.0021235856    0.0553748212   -0.0265899205
 C    0.7210574384   -0.4792551576   -1.2429615097
 C    0.0211944241   -0.9083649273   -2.3714464585
 N    0.5693609455   -1.3694692414   -3.4965875469
 C    1.9048993931   -1.4219259302   -3.5269085887
 C    2.7206941146   -1.0350475600   -2.4732716837
 C    2.1208134883   -0.5543316468   -1.3112524310
 O    2.9342765796   -0.1812983411   -0.2902627237
 H    1.0556534271    1.9774640913    0.1192433894
 H   -0.4527755494    2.0459846905   -0.7884804484
 H   -0.4912715309    1.9315881913    0.9807664380
 H    0.4193713341   -0.3869804712    0.8907723913
 H   -1.0385658404   -0.2834403972   -0.0588331332
 H   -1.0677016767   -0.8739313868   -2.3512800204
 H    2.3508522984   -1.7972649647   -4.4449703882
 H    3.8005046587   -1.0995459497   -2.5354817055
 H    2.4015296647    0.0902248832    0.4642520303