20

 O    0.0360308878    1.3712151514    0.3925527397
 C   -0.0605250820   -0.0433395015    0.4574306085
 C   -1.2843707985   -0.4639024730   -0.3493613341
 C   -1.4507036621   -1.9658119655   -0.3752285008
 N   -2.0223436493   -2.6030780680    0.8272872927
 C   -2.7560586378   -2.6780118636   -0.4415821177
 C   -4.1057347875   -1.9757535536   -0.5042821052
 C   -5.2008675965   -2.8509863887   -0.0983137089
 C   -6.0876845197   -3.5938204858    0.2274864645
 H    0.7660738143    1.6490772366    0.9531079374
 H    0.8428637499   -0.5232613247    0.0437993419
 H   -0.1757295446   -0.3954149800    1.4935110470
 H   -2.1637383714    0.0161420191    0.0884233963
 H   -1.1810047840   -0.0836773086   -1.3731003607
 H   -0.6230708813   -2.4896604315   -0.8556108887
 H   -1.5613941897   -3.4844380530    1.0330672556
 H   -2.7478919145   -3.6325493350   -0.9652051027
 H   -4.0850480065   -1.0920518217    0.1409042016
 H   -4.2826863500   -1.6197954885   -1.5280212237
 H   -6.8784171665   -4.2374849546    0.5230604671