17

 C   -0.0690641061    1.5773644481    0.0144552878
 C   -0.0253669428    0.0613484308    0.0217959183
 C    1.2046181224   -0.6566499049   -0.6137326408
 O    2.0403985717   -0.1745072013    0.5149302226
 C    0.7816557871   -0.6617153897    1.1423973471
 C    0.8714865505   -1.8931423293    0.2318649453
 C    0.1443077848   -3.1501099206    0.0072348635
 N    1.5684594056   -3.1271386233    0.4540747130
 H    0.9137690502    1.9891107895    0.2514947023
 H   -0.3795184467    1.9529819117   -0.9664857500
 H   -0.7905874779    1.9478289469    0.7505155111
 H   -0.9932461384   -0.3939198361   -0.2130541453
 H    1.6188870640   -0.5779550946   -1.6202606184
 H    0.6982437530   -0.5934999173    2.2266797333
 H   -0.5531251625   -3.5354817974    0.7459499937
 H   -0.0760895902   -3.4397575160   -1.0177469671
 H    2.1956165253   -3.3454350664   -0.3161854764