16

 C   -0.1165584967    1.4685329277    0.0271238710
 N    0.1466069922    0.0356811456    0.0007197970
 C    0.6774866571   -0.6927303377    1.0154568398
 C    0.6768813800   -2.0381602558    1.1995849578
 C    1.4329324104   -2.3701869166    2.3998902166
 N    1.6328456977   -3.5382021721    2.8708790311
 N    1.8801524451   -1.1366232914    2.9198660001
 C    1.4781346965   -0.0698650915    2.1467265856
 O    1.7310670931    1.0975299682    2.3532599168
 H    0.6774330241    1.9733389896    0.5729652856
 H   -0.1430740782    1.8392672120   -1.0009261361
 H   -1.0755032041    1.7086137080    0.5077284799
 H   -0.4095543102   -0.4951590118   -0.6523990177
 H    0.2102024300   -2.7951134815    0.5875835672
 H    2.1897699100   -3.5065668751    3.7263663415
 H    2.4373702430   -1.0215706976    3.7501936038