23

 C   -0.1273223684    1.5251008289   -0.0301014294
 C   -0.0006042023    0.0165601795    0.0225511579
 C    1.3114618194   -0.7345172872   -0.2724388886
 C    2.5883178332   -0.0003013123   -0.4120501053
 C    3.1053704163    0.7687436548    0.5502267272
 C    2.4346080078    0.9704588032    1.8823949869
 C    1.4611720930   -0.1684226592    2.2518240139
 C    0.6742697457   -0.7938621385    1.1037806526
 C   -0.0114163156   -2.0888937859    1.5027485839
 H    0.8436911063    2.0234625267   -0.0475393314
 H   -0.6589100366    1.8235935162   -0.9398726786
 H   -0.6973118637    1.9122296332    0.8226659490
 H   -0.8738013970   -0.4871620554   -0.3869158695
 H    1.2131305813   -1.6124500816   -0.9051301830
 H    3.1109202487   -0.1005624387   -1.3602147609
 H    4.0402708309    1.2954038059    0.3775306814
 H    3.1910102095    1.0612721102    2.6715491316
 H    1.9051837073    1.9326341013    1.8845812796
 H    2.0457997695   -0.9798224029    2.7048821792
 H    0.7719988886    0.1759643920    3.0330873354
 H   -0.7485730232   -1.9184990520    2.2973267688
 H   -0.5363968575   -2.5414193729    0.6557451632
 H    0.7132580468   -2.8220321355    1.8768046462