17

 O   -0.0396699968    0.0716518054   -0.2984759778
 C   -0.0196442955    1.2306434388    0.0084136963
 C   -1.1475297109    2.2836253669    0.1977886434
 C   -0.0556625251    3.3541671095   -0.0041088752
 C    0.9548573159    3.2859580641    1.0779842478
 C    1.0696123528    2.2637258291   -0.0401577132
 C    1.9659699332    2.6126073458   -1.2056803380
 O    1.6123014583    3.9684129140   -1.5348108926
 C    0.2330722620    4.2030338052   -1.2202101811
 H   -1.8688455440    2.2082781224   -0.6210395217
 H   -1.6871676429    2.3132026883    1.1476317170
 H    1.7414265732    4.0333973436    1.0626717300
 H    0.6549655338    2.9603958895    2.0684058974
 H    3.0386839305    2.6168340234   -0.9940532554
 H    1.7745700302    1.9270071061   -2.0437866161
 H   -0.4288711059    3.9030697393   -2.0484533502
 H    0.1327566512    5.2824000185   -1.0713586908