13

 C   -0.0621059237    1.5211052463    0.0117920907
 C    0.0806623785    0.0144397190    0.0010313597
 O    1.1488449209   -0.5547559674   -0.0129215273
 C   -1.1704858244   -0.7325110635    0.0086429263
 C   -2.2028982927   -1.3537860599    0.0149381914
 C   -3.4575869127   -2.0986876559    0.0230850141
 C   -3.2779080292   -3.5563001307    0.0147183118
 N   -3.1594709290   -4.7043100724    0.0083412921
 H    0.9269643868    1.9808599862    0.0050097006
 H   -0.6359176802    1.8508648552   -0.8611506682
 H   -0.6187556865    1.8399127054    0.8997842696
 H   -4.0492142724   -1.8264113196    0.9068506376
 H   -4.0652737154   -1.8183255728   -0.8471513984