23

 C   -0.0357887805    1.5465855683    0.0258216141
 C    0.0003695863    0.0162760492    0.0030243254
 C   -1.3987737733   -0.6141457476    0.0057059249
 C   -1.3906464972   -2.1213746342   -0.0104484513
 C   -0.7613815858   -3.0835860811    1.0529886429
 C   -1.3957858249   -3.9931500112   -0.0188124187
 O   -1.3552017543   -5.3735057721    0.0492390285
 C   -2.6409467194   -3.0549419285   -0.0025123853
 C   -0.7803984337   -3.0575448096   -1.1036235664
 H    0.9731899114    1.9706589415    0.0220226142
 H   -0.5671109891    1.9433970125   -0.8465964953
 H   -0.5494057851    1.9173996643    0.9199630613
 H    0.5487394867   -0.3258805728   -0.8836735779
 H    0.5633022596   -0.3514153846    0.8701271026
 H   -1.9505598758   -0.2703068584    0.8916199198
 H   -1.9635243280   -0.2505374362   -0.8640892376
 H    0.3296887017   -3.0991333366    1.1214190988
 H   -1.2301550840   -3.0926328446    2.0411377587
 H   -1.8080889685   -5.7288428633   -0.7230298988
 H   -3.2451434220   -3.0567926591    0.9092569192
 H   -3.2642426516   -3.0398482107   -0.9026233647
 H   -1.2700629618   -3.0440328317   -2.0829469146
 H    0.3090344396   -3.0677484937   -1.1957420099