21

 C   -0.0257038599    1.5179347448   -0.1697026000
 C   -0.0026773745    0.0336709346    0.0930720623
 O    1.2637185905   -0.6373720233    0.0008788840
 C    0.5842156261   -0.6185032911    1.2745905012
 C    1.3000882448    0.1283561261    2.3849814602
 C    2.3561454681   -0.7918008524    3.0149168412
 O    1.7891295482   -2.0088676276    3.4684005861
 C    1.2139418990   -2.7508150155    2.4055075535
 C    0.0746546887   -1.9742785234    1.7331536322
 H    0.7754752093    2.0413310422    0.3551649364
 H    0.0917437131    1.7100091615   -1.2414005637
 H   -0.9854341505    1.9442618966    0.1422898000
 H   -0.8125805911   -0.5131482484   -0.3975479551
 H    1.7800069929    1.0338125693    2.0057115034
 H    0.5752218908    0.4204239640    3.1547677115
 H    3.1499623802   -0.9935499650    2.2768866860
 H    2.8144219015   -0.3205738044    3.8888236415
 H    1.9820909393   -2.9963907688    1.6538425399
 H    0.8518134073   -3.6856944181    2.8420841247
 H   -0.7394799633   -1.8347960833    2.4550293642
 H   -0.3168234004   -2.5368100878    0.8796855005