19

 C   -1.9282072439    1.6352612924   -1.3248396192
 C   -2.0226566400    0.1204679158   -1.3516364375
 O   -1.5650542484   -0.3738082140   -0.0945059816
 C   -1.5721855159   -1.7710514266    0.0200312525
 C   -1.4339637757   -2.2262623881    1.4967763165
 O   -2.6477782380   -2.9871289294    1.4236778276
 C   -2.9273829613   -2.5166618701    0.0888468527
 C   -0.5227090368   -2.3980855228   -0.8847062552
 O   -0.6120739020   -3.4837247339   -1.3955570922
 H   -2.2799061115    2.0535763181   -2.2722957143
 H   -2.5408713157    2.0420209756   -0.5155975801
 H   -0.8940544026    1.9529308330   -1.1659409847
 H   -3.0602944357   -0.2012945902   -1.5256281969
 H   -1.4136858207   -0.2913342716   -2.1717857191
 H   -0.5658954543   -2.8456231631    1.7502761963
 H   -1.5011660237   -1.3733748125    2.1830194831
 H   -3.8008445863   -1.8548401847    0.0574156951
 H   -3.0386057587   -3.3409405754   -0.6214357477
 H    0.3797438514   -1.7563888325   -1.0096500755