17

 O   -0.0335440398    0.0382595779    0.2611052298
 C    0.0282841122    1.2469485757    0.1976036600
 C    1.2736197800    1.9929349658    0.0028577308
 C    1.3578036506    3.3323875609   -0.0561569575
 C    2.7634163116    3.8226986103   -0.2832942483
 C    3.6001879589    2.5341720925   -0.2005001834
 O    4.0609063138    2.2568801593    1.1404837694
 C    3.3358171034    1.0068912917    1.1889933087
 C    2.6187024731    1.3313556778   -0.1409715915
 H   -0.8852666660    1.8767254087    0.2832930286
 H    0.5070820918    4.0007328890    0.0382908822
 H    2.8559655105    4.3274676367   -1.2545892792
 H    3.0915344593    4.5388400658    0.4794087739
 H    4.4229062173    2.4946131842   -0.9223158639
 H    4.0107228155    0.1435139649    1.1361226667
 H    2.7094869004    0.9243638396    2.0834122878
 H    2.6485859274    0.5580031894   -0.9091520643