17

 O   -0.2099062778    1.4718019854    0.4266330270
 C   -0.0526039264    0.0956520751    0.2296554200
 C   -0.7803939230   -0.8719163031    1.1297550234
 C   -1.2467772926   -0.6504606532   -0.2939143928
 C   -2.5451755289    0.1001201224   -0.5614311960
 C   -3.7272331080   -0.7332318163   -0.3915267226
 C   -4.7024590536   -1.4360170783   -0.2489491375
 C   -5.7988186962   -2.2257704335   -0.0873734938
 C   -6.7722558301   -2.9261831177    0.0565285534
 H    0.2386213115    1.7096040283    1.2444928842
 H    0.9253472690   -0.1979654735   -0.1513568866
 H   -0.3073698993   -1.8123623697    1.3894986485
 H   -1.3914868790   -0.4378312195    1.9148601329
 H   -1.0418692741   -1.4498100846   -0.9990897032
 H   -2.5992404301    0.9697446308    0.1025944656
 H   -2.5304898696    0.5049493208   -1.5823680524
 H   -7.6275009718   -3.5420668934    0.1824037000