10

 N   -0.0209674129    1.3293897089    0.0080418445
 C   -0.0326088810   -0.0126935238    0.0014357048
 N   -1.2107501811   -0.6509972791    0.0047678336
 C   -1.0707881301   -1.9664184948   -0.0035223710
 N    0.0805135769   -2.6476395680   -0.0132901631
 N    1.2019519651   -1.9348641205   -0.0161465235
 N    1.1790924049   -0.6292079918   -0.0091707445
 H    0.8594373153    1.8141975566    0.0053315001
 H   -0.8893506131    1.8347936924    0.0157637733
 H   -1.9770014540   -2.5675842298   -0.0002842041