16

 C   -0.1295914511    1.4959538402   -0.0948903373
 C    0.2274200018    0.0163893154   -0.1124832774
 O    1.3551437615   -0.3962876221   -0.1955524549
 N   -0.9126203194   -0.7911829238   -0.0215359044
 C   -0.9699014033   -2.1731781904   -0.0112984043
 N    0.0369762538   -2.9406741754   -0.0855517529
 N   -2.3129155888   -2.6583594974    0.0936785872
 C   -3.4964450100   -1.9775786663    0.1810601141
 O   -3.6372857069   -0.7703376572    0.1856308816
 H    0.7906365608    2.0753547874   -0.1553871589
 H   -0.7769737044    1.7499494555   -0.9409072746
 H   -0.6671800202    1.7576516249    0.8225360106
 H   -1.8169127580   -0.3322844753    0.0449473433
 H   -0.2329038271   -3.9223668375   -0.0607001100
 H   -2.3812831028   -3.6651093327    0.1040848432
 H   -4.3536936659   -2.6704529451    0.2504336846