20

 C   -0.1419344756    1.5657230070   -0.0329529404
 C    0.0618637601    0.0492801608   -0.0387460500
 N    0.7350918704   -0.3459798345   -1.2770238324
 C    1.5053409619   -1.3466671355   -1.2598185802
 O    1.8657893153   -2.1635648155   -0.2398055641
 C    1.4274938456   -1.8557906789    1.0924192753
 C    2.6159516906   -1.3447180912    1.9397736390
 C    2.1704388750    0.1102961955    1.6243712271
 C    0.7760684734   -0.4548608629    1.2129712205
 H    0.8201449914    2.0867428494   -0.0060703307
 H   -0.6655083885    1.8755482880   -0.9408658370
 H   -0.7278769134    1.8790562388    0.8376032491
 H   -0.9328574295   -0.4217743130   -0.0642364011
 H    2.0004601845   -1.6793736031   -2.1711544296
 H    0.8714508420   -2.7269289922    1.4475348658
 H    2.4901261936   -1.5983359628    2.9959077680
 H    3.6038721933   -1.6683993921    1.6071130699
 H    2.1912190723    0.8335001400    2.4415937108
 H    2.7112445102    0.5298856219    0.7720549714
 H    0.0979390874   -0.4394755398    2.0718510987