13

 O   -0.0885489101   -0.1658311749    0.0023612807
 C   -0.0695142650    1.0417660645    0.0053701269
 C    1.2163603582    1.8809149554   -0.0023317345
 C    2.4386840885    1.0978799441   -0.0150221113
 C    3.4547565328    0.4590688251   -0.0255462484
 C   -1.2861856533    1.8293507285    0.0168466110
 C   -2.3100627661    2.4799940675    0.0264556050
 C   -3.4542828911    3.2101621466    0.0370759358
 C   -4.4720524390    3.8600480100    0.0462062093
 H    1.1659890477    2.5511640998   -0.8717111699
 H    1.1802112903    2.5449755918    0.8725123086
 H    4.3502950527   -0.1115273850   -0.0348335835
 H   -5.3680830257    4.4309011166    0.0545226504