17

 O    0.7654473588   -0.2340724216    0.4212041358
 C    0.4173274977    0.9134995816    0.4875048066
 C    1.2232989795    2.1203729661    0.0177106631
 C    1.5059980936    3.1208932852    1.1662058232
 C    2.8888992852    2.6891115732    1.6329837122
 O    2.8656779343    1.5024244436    2.4538880528
 C    3.5984045689    0.7387213169    1.4584958723
 C    3.4913692466    1.8984362618    0.4481366081
 O    2.4799639799    1.7804806983   -0.5377505168
 H   -0.5861997671    1.1971794334    0.8862145767
 H    0.6210725389    2.5890332653   -0.7739394274
 H    1.5374727564    4.1436565467    0.7796751390
 H    0.7711913282    3.0754849843    1.9740083223
 H    3.4777637230    3.4930667534    2.0854081242
 H    4.6208009648    0.5257075403    1.7940962983
 H    3.0819001429   -0.1798410839    1.1734732745
 H    4.4069406284    2.2325162654   -0.0411452647