12

 O   -0.0081876061   -0.0046943971    0.0033244573
 C   -0.0433333847    1.1978072838    0.0099379236
 C   -1.2605075647    2.1348821789    0.0318493065
 C   -0.6404601316    3.5166718327    0.0306448276
 C    0.7023882827    3.3768084660    0.0114819545
 N    1.0690488762    2.0439601784   -0.0006166465
 C   -1.3543396404    4.7312863206    0.0469873309
 N   -1.9698142665    5.7144911289    0.0607255830
 H   -1.8926325968    1.9413493749   -0.8408706309
 H   -1.8682535876    1.9319443784    0.9196228048
 H    1.4549298704    4.1517608876    0.0053452032
 H    2.0140606990    1.6960718769   -0.0153477141