19

 C   -0.2587904208    1.5400989794    0.0661497394
 C   -0.0278031533    0.0470011277   -0.0078599639
 C    0.5858665394   -0.6234125725   -1.1871404100
 C    1.1324475948    0.1431756766   -2.3824633405
 O    2.0630322897    1.1530428518   -2.0292471000
 C    3.0707657235    0.6321295318   -1.1773162523
 C    2.4923123622    0.2793046428    0.1914000798
 N    1.3021363739   -0.5807664427    0.0994907374
 H    0.4210938320    2.1006117086   -0.5765641348
 H   -1.2854668517    1.7645276187   -0.2429534119
 H   -0.1448565153    1.9015015116    1.0952075022
 H   -0.7794562833   -0.5263681265    0.5354145512
 H    0.2295833766   -1.6185087021   -1.4552904856
 H    1.6147724987   -0.5747107802   -3.0672768661
 H    0.3285969019    0.6405872365   -2.9357509396
 H    3.5278918926   -0.2581044537   -1.6402530141
 H    3.8417548737    1.4028175335   -1.0879393118
 H    3.2506832874   -0.2527969145    0.7791533111
 H    2.2561752180    1.2014905431    0.7349350595