16

 C    0.3417692749    1.4867795828   -0.5717023863
 C    0.0211858369    0.0992138055   -0.0866004032
 O    1.0962034017   -0.8085570556    0.0789686368
 C    0.3880572431   -0.4338217566    1.2589093519
 C    1.1241190940    0.4069494064    2.2469350941
 O    2.1297283978    1.0382687172    2.0056524872
 C    0.4905031379    0.4464251218    3.6569551828
 N    1.1928719515    1.2241505247    4.5065752651
 O   -0.5297215435   -0.1647802988    3.9168591886
 H    1.2213745375    1.8872241785   -0.0663396443
 H    0.5414786136    1.4593716577   -1.6480090488
 H   -0.5112046127    2.1532020892   -0.4064398882
 H   -0.8745904249   -0.3525559117   -0.5184169931
 H   -0.2521849979   -1.1938415550    1.6970281348
 H    2.0265578007    1.6794599276    4.1711496471
 H    0.8880642392    1.3340754265    5.4586375955