20

 C    0.0792469416    1.5310620439    0.0022788176
 C   -0.0355532058    0.0116533242   -0.0436092599
 N    0.6114836957   -0.5129337939   -1.2376478985
 C    0.6987784472   -1.8650129342   -1.4506421166
 N    0.3637791075   -2.7216532481   -0.5684512857
 C    0.5560008361   -4.1426798233   -0.7877029483
 C    1.5145948801   -4.7245480575    0.2559714530
 C    1.2386680735   -2.1994495203   -2.7676486125
 N    1.6525795194   -2.4727758840   -3.8122232309
 H    1.1265598000    1.8477587058    0.0072486596
 H   -0.4151959627    1.9951408368   -0.8588985024
 H   -0.4001650126    1.9176030144    0.9052769933
 H    0.4472526472   -0.4441892195    0.8259885643
 H   -1.0888687404   -0.3018762722   -0.0071164557
 H    0.6253705007    0.0759661313   -2.0554535888
 H   -0.4230167446   -4.6271432724   -0.6795029225
 H    0.9209852130   -4.3760031824   -1.7993578598
 H    2.5146223674   -4.2931596261    0.1482816533
 H    1.1585818810   -4.5079414826    1.2670539337
 H    1.5946550055   -5.8096141998    0.1380432068