17

 C    0.1170226618    1.5376629270    0.0084056782
 C   -0.0252884229    0.0177348643    0.0025245660
 C   -1.4602363161   -0.4631992753    0.0129789335
 N   -2.4480654485    0.3620627011    0.0227277701
 C   -3.7844044534   -0.1112744158    0.0322172354
 O   -4.7193374404    0.6646858597    0.0410410215
 C   -3.9552788593   -1.5701900063    0.0296533708
 C   -2.8798203754   -2.3777515831    0.0193592817
 N   -1.6182047713   -1.8301007120    0.0110058396
 H    1.1748945594    1.8149360242   -0.0000608082
 H   -0.3701944722    1.9779094231   -0.8639139752
 H   -0.3538561015    1.9696572252    0.8937540174
 H    0.4715583857   -0.4101509352   -0.8798372078
 H    0.4873684673   -0.4185280314    0.8716283226
 H   -4.9601727379   -1.9711455363    0.0363300415
 H   -2.9282136319   -3.4603906515    0.0170209857
 H   -0.8062432134   -2.4259291976    0.0033032472