16

 C    0.1036217688    1.5086066277    0.1446670274
 C    0.0370238521    0.0562467263    0.0970443406
 C   -0.0159973062   -1.1471380247    0.0673870294
 C   -0.0429068275   -2.5828575796    0.0161030275
 O   -0.6837694990   -3.2858881692    1.1019764926
 C   -1.2924109348   -3.3516801553   -0.1757730036
 C   -2.6280819960   -2.6469780495   -0.3379901583
 C   -3.7416636415   -3.4475572046    0.1691622129
 N   -4.6187173949   -4.0898958906    0.5597598351
 H    1.1390854348    1.8579057193    0.0732262272
 H   -0.4604542422    1.9607208025   -0.6781865163
 H   -0.3127881109    1.8882452647    1.0838204720
 H    0.8805853278   -3.0546331919   -0.3182585435
 H   -1.2220764786   -4.3233439912   -0.6658532236
 H   -2.5973268593   -1.6869913253    0.1849659162
 H   -2.8027721625   -2.4375249587   -1.4002425557