15

 O   -0.3435005840    0.3515670928   -0.5841226007
 C    0.0865078580    1.1068652126    0.2490005941
 C    1.3416199991    1.9001512412    0.0320311686
 C    2.7205333222    1.2743396961   -0.3128021951
 C    3.0380020642    2.7779933727   -0.6252974191
 C    1.5672611821    2.8667738224   -1.1623833453
 C    2.8200710678    3.3623694325    0.7658927067
 O    3.4262264450    4.1506696673    1.4205680728
 O    1.6551766628    2.7394489782    1.1795799437
 H   -0.4112528131    1.2681481241    1.2278377858
 H    3.2570447239    0.7859243203    0.5025985162
 H    2.6867635060    0.6497499883   -1.2054443401
 H    3.9123370641    3.1200383605   -1.1710436257
 H    1.4342921255    2.3791563966   -2.1281009467
 H    1.0533595866    3.8287759944   -1.1208003352