21

 C    0.0153330852    1.5072107787    0.0510810110
 C   -0.0285609704   -0.0063463720    0.0071664379
 C    1.2656784216   -0.7379047363   -0.2679042474
 C    0.6542712949   -0.7588967087    1.1235313362
 C    0.4497347822   -2.2732170868    1.2947110515
 O   -0.1110179487   -2.6172806940    2.5214347468
 C    1.8428418194   -2.8058670998    0.7771052632
 C    1.2761785917   -2.2508453853   -0.5733695650
 C   -0.1070408015   -2.7563397872   -0.0747453570
 H    0.9612326994    1.8657390325    0.4711698935
 H   -0.0859847927    1.9347548620   -0.9524858328
 H   -0.7951130392    1.9071204803    0.6700678194
 H   -0.9541087730   -0.3974006785   -0.4018386266
 H    2.1563586609   -0.1606866526   -0.4932948039
 H    1.0756079995   -0.2174745993    1.9635085155
 H   -0.1797944900   -3.5764605063    2.5640297423
 H    2.7457626485   -2.3404192210    1.1811520318
 H    1.9244451923   -3.8977696217    0.8000604623
 H    1.6756681653   -2.5732461420   -1.5335810712
 H   -0.1627920482   -3.8477010309   -0.1148376895
 H   -1.0277417470   -2.3324523110   -0.4755674380