17

 O    0.2307056589    0.9521472429   -0.3119368819
 C   -0.0542824819   -0.2090152386    0.4436338218
 C   -1.4877389901   -0.6753981962    0.2373725664
 C   -1.8843970126   -1.1094078800   -1.1588373385
 O   -0.8834268417   -1.1311237237   -2.1365400895
 C   -1.8320785341   -2.1264546902   -0.0580342661
 O   -0.8035948791   -3.0822637744   -0.2293259555
 C   -0.3092597983   -3.6702578526    0.8899931755
 O    0.5301815398   -4.5138896499    0.8440997425
 H    0.1506837998    0.6871464983   -1.2368004949
 H    0.6477646917   -1.0189755661    0.2060715660
 H    0.1017310738    0.0569292517    1.4937159381
 H   -2.2410810884   -0.1306865949    0.7988815247
 H   -2.8553112740   -0.8213294636   -1.5516669281
 H   -0.4801582239   -2.0084382093   -2.1340532494
 H   -2.7551318029   -2.5503235715    0.3260674557
 H   -0.7745177369   -3.2795661119    1.8131471732