18

 N   -0.0805371198    1.0488322538   -0.7176142274
 C   -0.0606276442   -0.1142674487   -0.2493079187
 O    0.9972977105   -0.9316577486    0.0870420396
 C    0.0922274172   -1.9728866362    0.5724793239
 C   -1.1272507245   -1.1091872026    0.1772785247
 C   -2.0913428849   -0.6624982075    1.2773424751
 C   -3.0707967046    0.3800773883    0.7860975282
 C   -4.4149692479    0.0173358493    0.3178596276
 O   -4.2182327449    0.5994675035    1.6078611119
 H    0.8623104928    1.4144799268   -0.8607956004
 H    0.2357558907   -2.9047878184    0.0213125170
 H    0.2296276556   -2.1370953038    1.6446336684
 H   -1.6785305619   -1.5104720818   -0.6781409863
 H   -2.6481700504   -1.5261032601    1.6586917589
 H   -1.5204303880   -0.2507320569    2.1191673407
 H   -2.6170823439    1.2860611562    0.3860263547
 H   -4.9256654976    0.6475738128   -0.4085398248
 H   -4.7231556939   -1.0282687361    0.3213811169