22

 C    0.8416434320    1.2616845367    0.8143852294
 O    0.7635468604   -0.1164453662    0.5421808589
 C    0.3532953287   -0.4400204294   -0.7845250974
 C    1.4894583737   -0.2575755630   -1.7948235119
 C   -0.1339277849   -1.8805482879   -0.7271164934
 C   -1.4231252179   -2.1968021772    0.1152247674
 C   -2.0623140443   -2.7685002116   -1.1544103954
 N   -2.0959582591   -1.6568021462   -2.1371743403
 C   -0.8524186376   -2.4519676811   -1.9602677933
 H    1.6358515041    1.7652681665    0.2430190092
 H   -0.1097671669    1.7741787017    0.6007757362
 H    1.0659548675    1.3684315374    1.8792486610
 H   -0.4941017431    0.2010703531   -1.0700735384
 H    1.1531878204   -0.5291726874   -2.8004711044
 H    1.8321115519    0.7804757813   -1.8337406852
 H    2.3435678386   -0.8893621270   -1.5287507934
 H    0.6921963681   -2.5280806676   -0.4175529886
 H   -1.2412769962   -2.9438242269    0.8898773459
 H   -1.9376658666   -1.3368075364    0.5497180360
 H   -2.7543459924   -3.5972967476   -1.2398630174
 H   -2.5540958020   -2.0138790765   -2.9755162844
 H   -0.4133080543   -2.9792458850   -2.7987662106