18

 C   -0.0963824630    1.5844912910   -0.0060938578
 C    0.0016729832    0.0480796562    0.0111769065
 C    0.8108618847   -0.5149320481   -1.1557189604
 C    1.8504977942   -1.2649302086   -0.7439915708
 C    1.8607967516   -1.3022038912    0.7130538538
 C    2.5298448266   -1.8008512673    1.8054138762
 N    1.8589237626   -1.3368544184    2.9183557368
 C    0.7783407037   -0.5558676537    2.5523921096
 C    0.7600070887   -0.5217939186    1.1840441914
 H    0.9000051261    2.0341097648    0.0325457987
 H   -0.5966855036    1.9353118683   -0.9149905408
 H   -0.6677671029    1.9474091473    0.8542769534
 H   -1.0208860352   -0.3566389109   -0.0302289440
 H    0.5518779396   -0.3048255644   -2.1868396360
 H    2.5640057474   -1.7627739429   -1.3891530686
 H    3.3988901864   -2.4304827489    1.9065218555
 H    2.1204965478   -1.5389743739    3.8670314812
 H    0.1440039921   -0.1139277406    3.3042683054