21

 C   -0.0295066377    1.5022573833    0.2774324214
 C    1.5051198806    1.5576728774   -0.0831337418
 C    1.2215617658    0.3001733255   -0.9251916593
 C    0.0144693657   -0.0239207008   -0.0671763905
 C   -0.7958154263   -0.9212275992   -1.0282163042
 C    0.2664159747   -1.0440861128   -2.1487509833
 C    0.7679116100    0.3940636673   -2.4298742704
 C    2.1454460157   -0.1536824684   -2.8674459553
 C    1.7734500487   -0.9742541815   -1.6098520806
 H   -0.3164748856    1.7843716832    1.2928842003
 H   -0.6255117226    2.0787378863   -0.4353886697
 H    1.8858560917    2.4464424669   -0.5921771880
 H    2.1222404461    1.3574118122    0.7981841364
 H    0.3073299762   -0.5732056174    0.8352307290
 H   -1.0843046953   -1.8774024061   -0.5812449618
 H   -1.7054594249   -0.4528828898   -1.4217066651
 H    0.0659283985   -1.7060736347   -2.9946469147
 H    0.1893157211    1.1984002643   -2.8908738326
 H    2.1763569458   -0.6882295180   -3.8218510232
 H    3.0019464971    0.5191673906   -2.7704780252
 H    2.3371932550   -1.7842963485   -1.1421269817