17

 C    0.1143745785    1.5358437424   -0.0590059803
 C   -0.0113119468    0.0242498787    0.0613325054
 O    0.4272667580   -0.5263764659   -1.2038556332
 C    0.8677457710   -1.8083260270   -1.2300369346
 N    1.2903819676   -2.5244075151   -0.2763847913
 C    1.3525163577   -1.9271043991    1.0231720363
 C    2.2366115788   -0.7085526325    1.2169728960
 C    0.7373329966   -0.5672970370    1.2372229639
 H    1.1639142041    1.8256209500   -0.1612084786
 H   -0.4353316710    1.8984251455   -0.9318190712
 H   -0.2925390722    2.0180984867    0.8351124571
 H   -1.0715000030   -0.2477712684    0.1668018584
 H    0.8471183215   -2.1916770712   -2.2482692166
 H    1.3204090280   -2.6520928090    1.8289756667
 H    2.7733263159   -0.6066319726    2.1536263164
 H    2.7784165934   -0.3600409929    0.3438915851
 H    0.2664401918   -0.3658716225    2.1953908006