19

 O   -0.1680716359    1.4431272403    0.1751252160
 C   -0.0237588930    0.0323154969    0.0288008326
 C    0.9007917655   -0.5492111234    1.1169974429
 C    0.7851619553   -2.0459268467    1.2550988698
 C   -0.3385730444   -2.6964919106    0.9519022607
 C   -1.5604225781   -2.0037987201    0.4632231904
 O   -2.4352379369   -2.7758140552   -0.3155344230
 C   -2.1542459089   -0.8909070220    1.3132462250
 C   -1.4085930968   -0.5703858830    0.0377868525
 H    0.7022328959    1.8409721249    0.0684937221
 H    0.4194207396   -0.1977706290   -0.9537541687
 H    1.9377792477   -0.2652164119    0.8992798154
 H    0.6486227778   -0.0548667633    2.0657888957
 H    1.6437715514   -2.5883307602    1.6397754059
 H   -0.4092513354   -3.7754889502    1.0622825010
 H   -2.9201024439   -3.3607137353    0.2770459087
 H   -3.2327570215   -0.7791687217    1.2840119524
 H   -1.6931956207   -0.6752509966    2.2704077720
 H   -2.0298806378   -0.2769709530   -0.8015241316