14

 O   -0.1504777932    1.3140769354   -0.1537744378
 C    0.0510082603   -0.0357212193   -0.0856825717
 C    0.9858134320   -0.9109904694   -0.9284754159
 C    0.1464970329   -2.0908599221   -0.3808387172
 O    0.4500921421   -2.1078208948    1.0455270739
 C   -0.2788326374   -0.8950693328    1.1407539550
 C   -1.0630266923   -1.1012802937   -0.1372438959
 C   -2.4306861857   -1.0701803363   -0.4783349154
 N   -3.5522738367   -1.0507396505   -0.7677887749
 H    0.3990650603    1.7517769194    0.5065337037
 H    0.8161787084   -0.7485004632   -1.9948216063
 H    2.0536045803   -0.9280513894   -0.6924544133
 H    0.1089771731   -3.0741043170   -0.8400682963
 H   -0.5952945742   -0.5198584964    2.1052544322