16

 O    0.1449114341    1.3206067483   -0.0871974289
 C    0.0832956564   -0.0447999884   -0.0560461038
 C    0.4113579889   -1.0203792489    1.1312868037
 N   -0.9855541008   -0.8955487592    1.6654492783
 C   -1.1623074513   -0.9735354597    0.1763440575
 C    0.0414296178   -1.9388940813   -0.0754272095
 C    0.7091469140   -0.9811085901   -1.1098074743
 C    0.1834797631   -0.9579992275   -2.4601359740
 C   -0.2603882865   -0.9496189259   -3.5777765666
 H   -0.3481955352    1.6497148287    0.6755967662
 H    1.3018401827   -1.0511180768    1.7600803428
 H   -1.2794539474   -1.7707898483    2.1069752091
 H   -2.1308455033   -0.9521380307   -0.3214506348
 H    0.0141904619   -3.0264041649   -0.0900825805
 H    1.8043917361   -0.9983687894   -1.1051610553
 H   -0.6487903704   -0.9343214359   -4.5658440902