19

 C   -0.2635538402    1.5821695753    0.0044257299
 C   -0.0888324708    0.0508821448   -0.0219568784
 C    0.8231721263   -0.3945032396    1.1648886887
 O    0.3173487204   -0.0177563402    2.4238128629
 C   -1.4025329503   -0.5801829537    0.1916855753
 N   -2.4165690259   -1.0934434091    0.4057053307
 C    0.4987295095   -0.5173552927   -1.3216006312
 C    0.3354349042    0.1343452904   -2.6422080191
 N    1.6563122913    0.0928857156   -1.9867139582
 H    0.6773781586    2.0807369745   -0.2478399022
 H   -1.0372532524    1.9163130501   -0.6891847517
 H   -0.5402232563    1.8899666085    1.0139470315
 H    0.9929731535   -1.4781299602    1.0975471835
 H    1.7906250335    0.1045542445    1.0538088042
 H   -0.4766694439   -0.5372942644    2.5967409469
 H    0.5511427243   -1.6042926700   -1.3049894685
 H    0.2461917779   -0.4780131732   -3.5343489527
 H   -0.1883233920    1.0839388455   -2.6916314511
 H    1.8676212822    1.0032708039   -1.5857993707