19

 C    0.0956169232    1.3800838103    0.3826853043
 C    0.0486638091   -0.0978449535   -0.0151018808
 C    0.8280336558   -0.9957293490    0.9654906895
 N    2.2396611166   -0.6708863519    1.0553731819
 C    2.8002794103   -0.1002285016    2.1585873366
 O    2.1995992456    0.2134472461    3.1633697056
 C   -1.4056957250   -0.6212085349   -0.1012494496
 C   -2.1906394314    0.0514370772   -1.1332013058
 N   -2.7933532958    0.5895502664   -1.9594869321
 H    1.1261090100    1.7419454666    0.4086384300
 H   -0.4621550637    1.9941784189   -0.3296415187
 H   -0.3335241690    1.5308118883    1.3791360035
 H    0.4965966143   -0.2105101688   -1.0117104309
 H    0.4268819018   -0.8870444899    1.9774239754
 H    0.7187653914   -2.0471436628    0.6704072681
 H    2.8422100225   -0.8915901559    0.2783021700
 H    3.8910096028    0.0470694263    2.0334835536
 H   -1.4135093581   -1.6971470173   -0.3128980280
 H   -1.9087090805   -0.4854954346    0.8642363073