18

 C   -0.0359767366    1.4249844329   -0.0230957494
 N   -0.0566497551   -0.0129168373    0.1300182629
 C    0.6228261259   -0.6789435219    1.0993540885
 N    1.2437856905    0.0570612331    2.0393669010
 C    1.8736938955   -0.6421941227    2.9807585284
 C    1.9070495121   -2.0295067163    3.0089593278
 C    1.2358920609   -2.6937598624    1.9768627707
 C    1.1967849049   -4.1960174971    1.8899362129
 N    0.5946120331   -2.0238216657    1.0207952145
 H    0.9520387946    1.8020555021   -0.3181591975
 H   -0.7614123399    1.7041239040   -0.7904965937
 H   -0.3087004864    1.9133218523    0.9157894499
 H   -0.4225094722   -0.5906989919   -0.6072926040
 H    2.3797438714   -0.0595055582    3.7488503823
 H    2.4316133646   -2.5692231297    3.7869094616
 H    0.1666288418   -4.5524876508    1.9942149542
 H    1.5500437315   -4.5264724936    0.9085548804
 H    1.8086092333   -4.6627594769    2.6651180096