21

 C   -0.0191872853    1.5671862919   -0.0897246866
 C   -0.0056501204    0.0372818134   -0.1256009115
 C   -1.4032609472   -0.5687244942    0.1226496963
 C   -1.4183302966   -2.0663557722    0.1097716984
 C   -1.6563175973   -2.8763158949    1.1544142355
 C   -1.5877104515   -4.2973865841    0.7634136934
 O   -1.7463155228   -5.2649793310    1.4726095232
 C   -1.2746150761   -4.3291660873   -0.7433021701
 C   -1.1498459500   -2.8527914126   -1.1606131179
 H    0.9809460459    1.9752133296   -0.2640011251
 H   -0.6853429705    1.9759331792   -0.8575061146
 H   -0.3662742061    1.9378717962    0.8809020119
 H    0.3755651045   -0.3033102696   -1.0953380015
 H    0.6879464547   -0.3477283526    0.6314236533
 H   -1.7878663833   -0.2055620776    1.0822939347
 H   -2.0865492244   -0.1966663709   -0.6545262558
 H   -1.8790917378   -2.5659339661    2.1680898990
 H   -0.3603512023   -4.9048997076   -0.9130177290
 H   -2.0790954551   -4.8544402709   -1.2663167084
 H   -1.8667688399   -2.5700696174   -1.9418533185
 H   -0.1586234884   -2.6155953414   -1.5647209767