16

 O    0.2015176818    1.3302679608    0.1808109438
 C    0.0998449489   -0.0032613291   -0.0053974563
 C    0.2479362693   -0.8279533947   -1.0996743511
 C   -0.0082933023   -2.1238142588   -0.5765566062
 N   -0.2852388641   -2.1053330756    0.7209711791
 N   -0.2134257752   -0.7808808050    1.0511755393
 N   -0.0424525103   -3.3074062357   -1.3261106652
 C    1.2233949310   -3.9930033906   -1.6111731295
 C    0.2459554889   -4.5605241325   -0.6411881709
 H    0.3993444191    1.7444065241   -0.6647042022
 H    0.4867251243   -0.5534699651   -2.1135218879
 H   -0.4151814069   -0.4816925179    1.9888639416
 H    1.3138264555   -4.4040602533   -2.6123448174
 H    2.1319700423   -3.5556853178   -1.2042756339
 H    0.4919047574   -4.5013177697    0.4143975705
 H   -0.3837582898   -5.3971763191   -0.9284140137