11

 N   -0.0478685693    1.3023094150    0.0097808545
 C   -0.0396176768    0.0365231341    0.0034287199
 O    1.0922556997   -0.7484545331   -0.0074332519
 C    0.7202520575   -2.1277295607   -0.0119742053
 C   -0.7809594101   -2.1206052344   -0.0027028655
 C   -1.2055129314   -0.8576481589    0.0061857276
 H    0.9060509475    1.6668621247    0.0057193526
 H    1.1392625504   -2.6131824249   -0.9039366482
 H    1.1501636694   -2.6219664542    0.8699215734
 H   -1.3777381659   -3.0227885781   -0.0035033401
 H   -2.2178268312   -0.4826395395    0.0142893230