17

 C   -0.3154746225    1.5102329549    0.0898800839
 C   -0.0865192653    0.0328557197    0.0342169439
 C    0.0538948398   -0.7428815636   -1.0437356410
 C    0.3022522524   -2.1933007230   -0.7107940893
 C    0.1045826717   -2.2407283261    0.8264032651
 C    0.1173834262   -0.7677012530    1.3078432407
 O    1.3212467052   -0.3773367024    1.9777231371
 H    0.4536868735    1.9925070968    0.7036805687
 H   -0.3054326142    1.9645190585   -0.9045647479
 H   -1.2797000118    1.7423503481    0.5604194504
 H    0.0112779467   -0.3835128866   -2.0678274091
 H   -0.3899799245   -2.8632637876   -1.2340928667
 H    1.3092837093   -2.5057965754   -1.0201667480
 H   -0.8620295769   -2.6956272884    1.0625692936
 H    0.8700679810   -2.8188684228    1.3500477900
 H   -0.6633803881   -0.5788297849    2.0529689122
 H    2.0326538774   -0.4198930442    1.3284507264