20

 C   -0.0123506213    1.6504254067   -0.0474735304
 C   -0.1599518333    0.1250761619   -0.0199338314
 C    0.6389880803   -0.5530856537   -1.1216148482
 N    2.1524731434   -0.3886559951   -1.1005019100
 C    2.6647879238   -1.1644296184    0.0448844090
 C    2.2875089015   -1.9007955814   -1.1790672426
 C    0.7892010878   -2.0793382370   -1.2066380895
 C   -0.0570114932   -3.2039463272   -0.8026162288
 O    0.1170637747   -2.8450873269   -2.1842566595
 H    1.0360885333    1.9415991853    0.0642811244
 H   -0.3704596149    2.0635227344   -0.9965521562
 H   -0.5848579356    2.1170930450    0.7594931686
 H    0.1372742545   -0.2607173134    0.9623486330
 H   -1.2144237032   -0.1526462351   -0.1473012449
 H    0.3049070404   -0.1870654398   -2.0988055839
 H    3.7207851576   -0.9896666577    0.2271125264
 H    2.0658040454   -1.2741316582    0.9453311133
 H    2.9931002689   -2.3878392776   -1.8432819581
 H    0.4003324210   -4.1461324842   -0.5029062249
 H   -1.0515869110   -3.0202165977   -0.3983893563