17

 O    0.2660961114    0.7526582840    1.0816370485
 C    0.0602281464   -0.1494225590    0.0289984554
 C   -1.4377070415   -0.4480753505   -0.1432894557
 O   -2.0495092345    0.3307418292   -1.1597468187
 C   -2.0722571362   -0.2978193019   -2.4153181255
 C   -0.7365554741   -0.5149774117   -3.0620094979
 C    0.4673280084   -0.2176984789   -2.5638596589
 C    0.7413058289    0.3854922114   -1.2390708873
 O    1.5877947567    1.2503046599   -1.1106280553
 H    0.9739147545    1.3422996494    0.7724212144
 H    0.5732807478   -1.1095745883    0.2393225347
 H   -1.6005110173   -1.5172783961   -0.3385169945
 H   -1.9260657107   -0.1896968798    0.7998692215
 H   -2.6037200456   -1.2665490356   -2.3602300503
 H   -2.6753448817    0.3442756218   -3.0706355706
 H   -0.7949542122   -0.9095829133   -4.0756088855
 H    1.3480484597   -0.3168817406   -3.1925025142