20

 C   -0.1180143906    1.4986895510   -0.0000892122
 C   -0.0089382430   -0.0094590427    0.0458097774
 C    1.3315997471   -0.6851590821   -0.1677844337
 C    0.6832778607   -0.7062442735    1.1850879986
 C    1.2769518063   -0.1102821399    2.4834915156
 C    0.8043502031   -1.3694683263    3.2279059079
 C   -0.6785540896   -1.5576178655    3.0659297113
 C    0.2306530311   -1.9476525716    1.9305988724
 H    0.7669259146    1.9726880960    0.4374651558
 H   -0.2092261916    1.8598114859   -1.0308194212
 H   -0.9923524288    1.8556668813    0.5560662041
 H   -0.8674875263   -0.5361468094   -0.3662467269
 H    1.3626577762   -1.6084155430   -0.7386295537
 H    2.2017684110   -0.0489487278   -0.3060495278
 H    2.3659881147   -0.0222756192    2.4402364246
 H    0.8605297857    0.8396541289    2.8375631931
 H    1.3617066209   -1.8777632964    4.0047618217
 H   -1.1046973128   -2.3840703541    3.6264305506
 H   -1.3373050013   -0.6973072079    2.9688355958
 H    0.2820270425   -2.9619223437    1.5515577766