16

 O    0.0207166349    1.4122109516    0.0071078270
 C   -0.0215389524    0.0013886597    0.0023576698
 C   -1.4362996842   -0.4704331277    0.0120994248
 C   -2.5378727970    0.2934397256    0.0229868614
 C   -3.7544207225   -0.5436193037    0.0294659655
 O   -4.9046401250   -0.1697839587    0.0407520776
 C   -3.2907537391   -2.0127309551    0.0228731054
 C   -1.7520096874   -1.9523954084    0.0104341425
 H    0.9413616714    1.6887171278   -0.0009845439
 H    0.4826540076   -0.4220111827   -0.8852456129
 H    0.4969794540   -0.4283705434    0.8785807484
 H   -2.5619970173    1.3738595109    0.0265069387
 H   -3.6920788294   -2.5225808582    0.9032244895
 H   -3.7064935600   -2.5191374722   -0.8527457514
 H   -1.3176559406   -2.4415068892   -0.8704943023
 H   -1.3033253430   -2.4464684964    0.8813491500