15

 N    0.1068151861   -1.1459532741    0.0528985792
 C    0.0221027664    0.0099631864    0.0215949292
 C   -0.0367587079    1.4205954397   -0.0526717185
 C   -1.1224504685    2.2074341132    0.0749506486
 C   -0.7149047204    3.6275479302    0.0151961764
 C    0.5280384502    4.0608468359    0.8583595242
 N    1.2396395053    2.8799678026    1.3659675198
 C    1.1890282061    2.3240729739   -0.0621029591
 C    0.6723048500    3.7038522815   -0.5862501683
 H   -2.1333570547    1.8662360748    0.2560684237
 H   -1.4311131382    4.4141349902   -0.1862937509
 H    0.5245012388    5.0057059463    1.3879194659
 H    2.2019626612    3.1655233599    1.5371842626
 H    2.1213110157    1.8970957470   -0.4231873660
 H    0.9441014001    4.2528618125   -1.4796546070