19

 O    0.0355321086   -0.1239164928   -0.1266134711
 C    0.0058575727    1.0760220715   -0.0312020294
 C    1.2218117064    1.9627601191   -0.0313019906
 C    1.0411647730    3.2952161659   -0.7961159208
 O    1.0131061329    4.0611091090    0.4198542961
 C    1.3795576679    2.9061241953    1.2114097965
 C    0.5267468494    2.7176114819    2.4277633435
 C    1.0420341475    1.8556639980    3.5581711662
 C    0.9532044068    3.3469807784    3.7320542280
 H   -0.9640358023    1.6196849385    0.0509670003
 H    2.1000517308    1.3654599421   -0.2765348236
 H    1.8911674092    3.5576258619   -1.4380157790
 H    0.1130795283    3.4044643209   -1.3710656470
 H    2.4357877791    2.9657711850    1.5154453156
 H   -0.5412267133    2.6867234019    2.2372904298
 H    0.3296231336    1.2260278329    4.0780599052
 H    2.0269123429    1.4132914370    3.4499185688
 H    1.8773117918    3.9155435225    3.7371616061
 H    0.1794995145    3.7490458509    4.3757517453