23

 C    0.1423014101    1.6226047848    0.1065361384
 O    1.3974578830    1.4987273505   -0.5907358448
 C    1.2687813729    0.0586630456   -0.6731373127
 C    2.4679968149   -0.6762119921   -0.0955309324
 C    2.2400296732   -2.1944468436    0.0139058768
 C    1.4601445495   -2.6381086290    1.2629849979
 C    0.0130079808   -2.1331874668    1.3911354592
 C   -0.1392118270   -0.6033725006    1.4742548125
 C   -0.0674626869    0.0926644561    0.1190654120
 H    0.2647602817    2.0919723925    1.0920904372
 H   -0.5922340766    2.2002327675   -0.4690868312
 H    1.1309125184   -0.2520439337   -1.7197703721
 H    3.3276593786   -0.4695557419   -0.7440424430
 H    2.7175154542   -0.2571401619    0.8864423472
 H    1.7274610206   -2.5534541245   -0.8901699259
 H    3.2123430311   -2.7000228936    0.0253269844
 H    1.4462411468   -3.7347501432    1.2917964132
 H    2.0205497457   -2.3207820145    2.1537082038
 H   -0.5861610412   -2.5101015356    0.5501562270
 H   -0.4200549155   -2.5821030012    2.2929960293
 H   -1.1077898587   -0.3592853062    1.9289785376
 H    0.6215609061   -0.1945968774    2.1522222896
 H   -0.9166990916   -0.2277187111   -0.4918329139