24

 C    0.1444055317    1.3801938598    0.0079225197
 O    0.0567231266   -0.0223691829    0.0013765375
 C   -1.2775725809   -0.4904982870    0.0114771555
 C   -1.2321034944   -2.0151131115    0.0029594995
 C   -2.5919575530   -2.7544591410    0.0120149004
 C   -3.4223768078   -2.4026793344   -1.2372077989
 C   -2.3009430944   -4.2672105829    0.0009603312
 C   -3.3981599923   -2.4164244529    1.2807473354
 H    1.2051659288    1.6437112062   -0.0006783005
 H   -0.3387120051    1.8269004857   -0.8764597481
 H   -0.3219321625    1.8175321582    0.9058905166
 H   -1.8014065320   -0.1114965602    0.9047342042
 H   -1.8181171504   -0.1021037021   -0.8676790856
 H   -0.6620655579   -2.3246955641   -0.8818224243
 H   -0.6453012390   -2.3339971576    0.8733611768
 H   -2.8615103462   -2.6095315475   -2.1555655435
 H   -4.3419499791   -2.9974511342   -1.2687463280
 H   -3.7159210773   -1.3483264641   -1.2543590025
 H   -1.7168507316   -4.5647624036    0.8787486344
 H   -3.2317227927   -4.8450780953    0.0067522511
 H   -1.7338661916   -4.5550931512   -0.8910941403
 H   -3.6912616836   -1.3623680868    1.3150354510
 H   -4.3169911643   -3.0116425311    1.3234959230
 H   -2.8197331009   -2.6331857295    2.1858313854