15

 C    0.0943824619    1.5598965770    0.3633973991
 C   -0.0258487483    0.1126830557   -0.0987264821
 O    0.8086188888   -0.7861306799    0.6249085612
 C   -1.4473505395   -0.3906149322   -0.0583304080
 N   -2.5096029126    0.3430960763   -0.0774475759
 O   -3.5933451374   -0.5731308146   -0.0552711162
 C   -3.1253329432   -1.8639010075   -0.0073260939
 O   -3.8010040442   -2.8501510612    0.0379266600
 N   -1.7449327337   -1.7241494319   -0.0230867008
 H    1.1323639179    1.8874323581    0.2723381169
 H   -0.5441842972    2.2105737748   -0.2385065568
 H   -0.2230407091    1.6606967445    1.4066843094
 H    0.3215896500    0.0300630678   -1.1363611368
 H    0.6932450026   -0.6067249765    1.5655716298
 H   -1.0823633860   -2.4753326103    0.0670876241