21

 C    0.1093638787    1.6233527724   -0.1375285019
 C    0.0638597276    0.1101305346   -0.0087951879
 O    1.1249273102   -0.5203008179   -0.8226030331
 C    1.5953878816   -1.2382621144    0.3173649788
 C    2.1377555629   -0.3119561665    1.3567161687
 C    0.6433272135   -0.5462443749    1.2595170157
 C   -1.2590623597   -0.5295199718   -0.3770046351
 C   -2.5867897519   -0.0017042382    0.1141879026
 C   -2.2376863904    0.0712358114   -1.3514516545
 H    1.0552443349    2.0155671249    0.2401258818
 H    0.0222008964    1.9156595232   -1.1879810732
 H   -0.7016710492    2.0977671766    0.4232191571
 H    1.8772740772   -2.2766371017    0.1855984248
 H    2.6039551455   -0.7908622024    2.2129167416
 H    2.5895980991    0.6293577172    1.0585619847
 H    0.0488658673   -0.9332921542    2.0763563514
 H   -1.1765882458   -1.6121174618   -0.4068029822
 H   -3.3296268295   -0.7226343555    0.4374987182
 H   -2.6032790925    0.9261051848    0.6756198141
 H   -2.0219687118    1.0484121795   -1.7673571321
 H   -2.7412905442   -0.5989085053   -2.0390685196