17

 N   -0.0447592734    1.2206455899   -0.5815525824
 C   -0.0108911055    0.0770455116   -0.0445679701
 C   -1.2728942407   -0.7219369209    0.2133469997
 C   -1.0080214275   -2.0665908230    0.8656705624
 C    0.0469854612   -2.1201534919    2.0080948702
 N    0.2105682917   -3.5905895176    1.6887321255
 C    0.1988440339   -2.8980181317    0.3429440676
 C    1.1157573273   -1.7895341626    0.9299278885
 O    1.1686498230   -0.5050464301    0.3347130106
 H    0.9014443569    1.5965567281   -0.6707771489
 H   -1.9377698666   -0.1146056220    0.8366706807
 H   -1.7935581733   -0.8517943558   -0.7413782818
 H   -1.9082713377   -2.6529790127    1.0574934547
 H   -0.0349111462   -1.7505039442    3.0309597664
 H    1.1672745573   -3.8866217047    1.9142720440
 H    0.2958378949   -3.4447347973   -0.5958283202
 H    2.1474067846   -2.0696566652    1.1548686330