18

 C   -0.1193116069    1.5165266668    0.0318237331
 C    0.0566110890    0.0032482384    0.0307336286
 C    1.0800090361   -0.6032239941   -0.9566480421
 C    2.4018117393   -0.0517451528   -0.4170121219
 O    2.1844047649   -0.0507541671    1.0062750540
 C    0.8605256194   -0.5925473596    1.2048965232
 C    0.9120302294   -2.0458678406    0.7768558893
 N    0.8494777892   -3.0787687975    1.4926491302
 O    1.0566376733   -2.0099626347   -0.5972590939
 H    0.8004259280    2.0291161536    0.3229094954
 H   -0.4217198047    1.8796931515   -0.9561201358
 H   -0.8999453031    1.8065583905    0.7415410886
 H   -0.9047521295   -0.5045511202   -0.0909251318
 H    0.9025762856   -0.5090145916   -2.0263672573
 H    3.2407532451   -0.7070591925   -0.6726889839
 H    2.6158848157    0.9651722809   -0.7660766995
 H    0.5483145546   -0.4146352550    2.2300203607
 H    0.9272829344   -3.9225156961    0.9204335132