16

 O   -0.0058779473    1.4663940364    0.3660883398
 C    0.0733468307    0.0960932808    0.0129024682
 C   -1.2775878851   -0.5431665510   -0.1147225893
 C   -2.0999314323   -1.0560980274    1.0533618270
 C   -1.6257493691   -1.9942557385   -0.0426129989
 O   -2.4949301215   -2.2618050283   -1.1155200685
 C   -2.9611338953   -1.0073010586   -1.5759065214
 O   -1.9980314809   -0.0303660470   -1.2207343135
 H   -0.5468521905    1.8957677461   -0.3056891662
 H    0.6218910087   -0.0434590121   -0.9314985296
 H    0.6391682875   -0.3977896997    0.8087171226
 H   -1.5866082084   -1.1278811077    2.0065905566
 H   -3.1517021187   -0.8037052044    1.1266808515
 H   -0.9325073468   -2.8052984899    0.1413168658
 H   -3.0671705103   -1.0364174635   -2.6648371002
 H   -3.9315291406   -0.7677963251   -1.1119636539