17

 N   -0.0186237254    1.2840144089    0.3929985965
 C    0.0388810807    0.0530639578    0.0605596597
 C    1.3138591503   -0.7713132684   -0.0565801315
 O    1.2366043107   -1.8274266931   -0.9969566803
 C    0.1130510357   -2.6447829011   -0.7636001285
 C   -1.1868272140   -1.8480266549   -0.9641675266
 N   -1.1302230497   -0.6663688174   -0.1010623779
 C   -1.4163366295   -1.5128588861   -2.3752488595
 C   -1.6311101243   -1.2268159779   -3.5224729918
 H    0.9162124367    1.6618664784    0.5411558629
 H    2.1346977155   -0.1259421196   -0.3756351349
 H    1.5554685212   -1.1706241674    0.9439679445
 H    0.1624085410   -3.4716992791   -1.4742723996
 H    0.1247902151   -3.0462933850    0.2626005213
 H   -2.0167141977   -2.4765575751   -0.6156864992
 H   -1.9456878513   -0.0672533186   -0.1288340324
 H   -1.8113220052   -0.9698500314   -4.5372334327