17

 C    0.0017027663    1.4721967224    0.0385004325
 C    0.0178494656   -0.0212104954   -0.0196813068
 C   -0.0739861225   -0.8260541979   -1.1389574549
 N   -0.0114472935   -2.1130792473   -0.6622537366
 C   -0.0338963933   -3.4893511221   -1.1193288534
 C    0.0982679592   -4.2424491257    0.1939331546
 C    0.1810047348   -3.3819251268    1.2233814973
 C    0.1129901964   -2.0281194132    0.6978311802
 N    0.1347913545   -0.7848575996    1.1272233857
 H    0.9220722890    1.8593226535    0.4892410901
 H   -0.0965358014    1.9044363173   -0.9612408843
 H   -0.8316326855    1.8340760908    0.6506345594
 H   -0.1740671892   -0.5914007080   -2.1856937173
 H   -0.9683616437   -3.7287281710   -1.6418919411
 H    0.7954554305   -3.7033757440   -1.8048710834
 H    0.1179536454   -5.3218240479    0.2388737521
 H    0.2813072077   -3.6230040551    2.2714429158