16

 C    0.0095643372    1.5485996353   -0.1635650519
 C   -0.0463669708    0.0419480933    0.1400409117
 C   -1.4406550419   -0.4920801525    0.1339030976
 N   -2.1140270888   -0.8472659166    1.2260464686
 N   -3.2807260476   -1.2236106915    0.7142195251
 C   -4.3825531424   -1.7155425448    1.5153542016
 N   -3.3460732635   -1.1169168346   -0.6062757126
 N   -2.1847094446   -0.6526326440   -0.9907281898
 H    1.0457329698    1.8986936878   -0.1778245102
 H   -0.4397184748    1.7628900828   -1.1370649385
 H   -0.5336300279    2.1209420333    0.5945137137
 H    0.5371522900   -0.5030486667   -0.6096122139
 H    0.3970657618   -0.1670806295    1.1174165631
 H   -4.6872916086   -0.9526146840    2.2348572258
 H   -5.2027947077   -1.9408265119    0.8349988079
 H   -4.0785122901   -2.6172333065    2.0513833418