23

 C    0.8337880091    1.4594489193   -0.1413525790
 C   -0.1202347496    0.3148783403    0.1759919079
 O   -0.3869422270   -0.5073560597   -0.9438297530
 C    0.6671328087   -1.3953184779   -1.3153319440
 C    0.1531830615   -2.8367430594   -1.2941438502
 C   -0.7211735508   -3.1745106761   -0.0742746476
 C   -0.1421522000   -2.8298928704    1.3118343998
 C   -0.3887456322   -1.4058968190    1.8332735016
 O    0.4306755395   -0.3948587863    1.2541259096
 H    1.8219235377    1.0748723571   -0.4087181383
 H    0.4424763243    2.0409872052   -0.9795155176
 H    0.9432717955    2.1115445780    0.7288445342
 H   -1.1132672618    0.7047666672    0.4485825317
 H    1.0237971714   -1.1275232223   -2.3181460083
 H    1.5055240453   -1.2910415920   -0.6207874881
 H   -0.4353136532   -3.0308093662   -2.1987223739
 H    1.0204094955   -3.5089431339   -1.3383147036
 H   -1.6873321055   -2.6699471091   -0.1843372412
 H   -0.9323286396   -4.2496265138   -0.1084493425
 H   -0.6015960878   -3.4988543129    2.0512330913
 H    0.9355362222   -3.0356288437    1.3496527281
 H   -1.4505387634   -1.1423602868    1.7153116046
 H   -0.1590869596   -1.3837885377    2.9048091286