16

 C   -0.0969198792    1.4632045130   -0.0598293744
 N   -0.0295537579    0.0314037826    0.2004695691
 C   -1.1485605625   -0.7475823282    0.0970488617
 C   -1.3113126803   -2.1108787328    0.0084544143
 C   -0.2572635323   -3.1719108311   -0.0442842057
 C   -2.7220560504   -2.2362770286   -0.0018874226
 N   -3.3634102231   -1.0950346700    0.0669583486
 O   -2.3331511738   -0.1245993599    0.1272350921
 H    0.8745367540    1.9044887497    0.1718839348
 H   -0.3590208256    1.7028216402   -1.0996933280
 H   -0.8465750587    1.9163680327    0.5917266704
 H    0.8131196668   -0.4285692703   -0.1079651149
 H    0.2823265056   -3.2770634865    0.9054447511
 H   -0.7013677628   -4.1444190119   -0.2732777071
 H    0.4919199285   -2.9732258250   -0.8218760868
 H   -3.3012647084   -3.1492253138   -0.0599499127