23

 C   -0.3827956396    1.4332968802    0.1901700990
 C   -0.0977158206   -0.0569075612    0.0203433302
 C    0.7868873568   -0.4718212019   -1.2050987130
 C    0.8901476688    0.4231153980   -2.4324664720
 C    2.0192820730   -0.6060789446   -0.2616604690
 C    2.9591302090   -1.7824204911   -0.4519662096
 O    2.7431636944    0.6307073489   -0.2635908015
 C    1.0310386843   -0.6153489771    0.9524606172
 O    1.4246048575    0.1167590196    2.0810039147
 H    0.5212135478    2.0409730281    0.0919605947
 H   -1.0987689423    1.7826074012   -0.5607112164
 H   -0.8102584698    1.6257467659    1.1789960767
 H   -1.0400116883   -0.6093318881    0.0912598458
 H    0.4987348025   -1.4807511527   -1.5213842607
 H    1.2301577566    1.4277362608   -2.1737167968
 H    1.6022428298    0.0110099356   -3.1557792436
 H   -0.0797823953    0.5055280967   -2.9344591260
 H    3.5130191756   -1.6947958002   -1.3930209364
 H    3.6846949662   -1.8395909974    0.3703078256
 H    2.4061072281   -2.7263258776   -0.4650125024
 H    3.5778303882    0.4789031966    0.1923255901
 H    0.8104726866   -1.6314632046    1.2931756233
 H    1.8375484206    0.9186627549    1.7345479500