17

 O   -0.6698096330    0.9149348893   -0.5371917306
 C    0.1931621219    1.0115332015    0.2964050467
 C    1.3868137256    1.9338572220    0.1831364206
 C    1.3775219254    2.8543158927   -1.0492059149
 O    2.1881894883    3.9767762979   -0.6938995738
 C    2.0220600472    4.2266889133    0.6798852495
 C    0.6709980815    4.8321250896    1.1297183876
 O    0.2374561383    3.5610570763    1.6718868715
 C    1.4940974898    2.9315992138    1.3484044966
 H    0.1672425252    0.3974703918    1.2237543197
 H    2.2918464255    1.3098110620    0.1980056916
 H    1.8125666116    2.4000391235   -1.9409864034
 H    0.3490059257    3.1557388189   -1.2822775821
 H    2.9254843282    4.7073286471    1.0566864138
 H    0.7399915845    5.5994321668    1.9095650662
 H    0.0257890641    5.1864775004    0.3186080983
 H    1.9947091402    2.5353261730    2.2365454727