21

 C   -0.1093353881    1.5888577868    0.0394810369
 C   -0.0367917038    0.0596673759    0.0380071339
 C    0.7727200676   -0.5091673837    1.2077280369
 C    0.6828785834   -2.0329462812    1.2561435207
 O    1.5094820449   -2.6216440685    2.2738158526
 C    2.7461847062   -2.0997101609    2.5273166571
 N    3.6675335029   -2.7928893779    3.0488995253
 C    2.9348237213   -0.6169692802    2.2639844016
 N    2.1715844903   -0.0780090899    1.1398941452
 H    0.8938410273    2.0216450777    0.0409057100
 H   -0.6472237055    1.9568702786   -0.8391053993
 H   -0.6319274969    1.9557848320    0.9294828248
 H   -1.0481019790   -0.3646359487    0.0695012186
 H    0.4101157536   -0.2915616752   -0.9029073851
 H    0.3670757034   -0.1105474553    2.1494527681
 H   -0.3330470621   -2.3744340735    1.4763075882
 H    0.9792274075   -2.4512795160    0.2819107112
 H    3.3429592386   -3.7519809870    3.1954203442
 H    2.6231916224   -0.0816954784    3.1718809018
 H    4.0002589742   -0.4248014049    2.1299246543
 H    2.5764526018   -0.4073118997    0.2658526433