17

 O   -0.0298308828   -0.0006209188    0.0085862592
 C    0.0728522595    1.1928467758   -0.1421671025
 C    1.3288772122    1.9481069907    0.0002554569
 C    1.2805436941    3.4411837861    0.2974052394
 C    1.7679168517    3.0022282037   -1.0398922507
 C    3.2227552827    2.5083437122   -1.2101062171
 C    3.7653400191    2.2612433317    0.2147564285
 C    2.6649405824    1.1842208595    0.1064462896
 O    3.0320818423    1.0565915144   -1.3159458390
 H   -0.8132051347    1.8212360901   -0.3976425753
 H    0.2824134937    3.8717680559    0.3214343519
 H    1.9485045709    3.8608274203    1.0385363210
 H    1.1759039444    3.1915878453   -1.9276148207
 H    3.8126569842    2.9392812201   -2.0181201439
 H    4.7519085641    1.8024829553    0.1688345252
 H    3.7345165446    3.0347720864    0.9827447390
 H    2.6593912413    0.2428942113    0.6501837787