16

 O   -0.1225712144    1.4118631133    0.0320935119
 C    0.0045834817    0.0484557429   -0.0071087715
 C   -1.1538803664   -0.9008839237   -0.1325528653
 C   -1.0074456282   -1.7796893670   -1.3586640293
 C    0.4638859357   -1.5772389068   -1.7867942822
 O    0.9753267953   -1.9753623011   -2.8003735488
 C    1.1376645029   -0.8047306498   -0.6538188146
 N    1.1100094273   -1.6807580161    0.5683676358
 C   -0.1360764217   -1.0550351681    1.0141967726
 H    0.5978237858    1.7739104408    0.5610641929
 H   -2.1256378536   -0.5210097174    0.1620529169
 H   -1.2176388500   -2.8426568218   -1.1988123843
 H   -1.6580954990   -1.4453254384   -2.1733581430
 H    2.1114820872   -0.3759796090   -0.8901062021
 H    1.0446803308   -2.6785839888    0.3625393943
 H   -0.4279663734   -1.0487273489    2.0581619567