17

 C    0.3816454396    1.8464494728   -0.9270493334
 N    0.1399058427    0.4472216791   -1.2153697125
 C    0.0934597194   -0.3492229529   -0.2334527030
 N   -0.1342681014   -1.7020400513   -0.4364286389
 C   -0.1931231055   -2.6168771788    0.6133976549
 O   -0.0519897257   -2.3031955412    1.7680853443
 N   -0.4325749079   -3.9141859410    0.1506028181
 C   -0.5555726107   -5.0849317581    0.8967176666
 N   -0.4657592835   -5.1527943571    2.1570038325
 H    1.2853756770    2.1791030893   -1.4509143118
 H   -0.4479423384    2.4501850627   -1.3131919561
 H    0.5011880825    2.0659709951    0.1453448364
 H    0.2175260949   -0.0928926000    0.8222829372
 H   -0.2537987438   -1.9783646360   -1.3998252877
 H   -0.5310976912   -4.0379000206   -0.8439196228
 H   -0.7412735966   -5.9326308284    0.2242009340
 H   -0.5924503013   -6.1184550436    2.4557059024