21

 C   -0.0011218469    1.4656395718    0.0064846026
 C    0.0174621145   -0.0514908879    0.0235330938
 C    0.7460446214   -0.7151012660   -1.1561003962
 O    0.7942206711   -2.1047265489   -0.7992455211
 C    0.5169351644   -2.1565752813    0.5866146477
 C   -0.9715419059   -1.9258886433    1.0452220268
 C   -0.3711458485   -1.1442304826    2.2456434198
 C    0.7239209180   -0.7648217153    1.2250048383
 C   -1.3742372497   -0.7690698876    0.1121901871
 H    1.0135494099    1.8770785950   -0.0422413889
 H   -0.5564124445    1.8471768930   -0.8581485817
 H   -0.4810320260    1.8643789193    0.9064795833
 H    0.2095857609   -0.6057922850   -2.1055565019
 H    1.7671534177   -0.3227145348   -1.2855925195
 H    1.0173258775   -3.0125233846    1.0403229177
 H   -1.6782260782   -2.7446997668    1.1816202161
 H   -0.9790803278   -0.3479467821    2.6839157877
 H    0.0132998722   -1.7928997207    3.0371305337
 H    1.7056041630   -0.3862486811    1.5128947145
 H   -2.1461457826   -0.1352783557    0.5601646443
 H   -1.7286026806   -1.1015111455   -0.8675422741