17

 C   -0.1025524418    1.5747066617    0.0085893546
 C    0.0624442585    0.0451378783   -0.0217431612
 C    0.7473515344   -0.5092870861    1.1919576787
 C    2.0318564564   -0.9276013166    1.3302369684
 O    2.2737748526   -1.3478482729    2.5805840177
 N    1.1060839980   -1.2143454955    3.3257536135
 C    0.2090368286   -0.7189230995    2.5057426526
 C   -1.1813712433   -0.4594961087    2.9915328946
 H    0.8709910914    2.0701705309    0.0711100063
 H   -0.6094370052    1.9282650336   -0.8946035944
 H   -0.6934231884    1.8956466904    0.8720660611
 H   -0.9246458653   -0.4216430721   -0.1293799974
 H    0.6300217475   -0.2388076822   -0.9147232711
 H    2.8633745192   -0.9885697986    0.6441091496
 H   -1.4202064471    0.6088602064    2.9626990020
 H   -1.9184640497   -0.9757009145    2.3671512134
 H   -1.2881387657   -0.8098823546    4.0197869116