17

 C    0.2871994625    1.6982289455   -0.0025623759
 C    0.0996930799    0.1981393665    0.1263303090
 C    0.3388676019   -0.6128740590   -1.1726889831
 C    1.1068911863   -1.8793660066   -0.6814109747
 C    1.0900401827   -1.7065194267    0.8662045479
 O    1.0480488851   -0.3139863363    1.0625735767
 C    0.5306032347   -3.1421543734   -1.1244472452
 N    0.0675434988   -4.1467577007   -1.4606015202
 H    1.2948237326    1.9270067192   -0.3632067135
 H   -0.4391795380    2.1136741434   -0.7074102753
 H    0.1467059216    2.1870229603    0.9650933866
 H   -0.9151637747   -0.0192315615    0.4986480928
 H   -0.5970432537   -0.8692344495   -1.6717575074
 H    0.9543140699   -0.0507119622   -1.8789271979
 H    2.1421448038   -1.8395322315   -1.0311613189
 H    0.2028296289   -2.2029824861    1.2888055724
 H    1.9831479076   -2.1040785314    1.3517696869