15

 C   -0.1639120322    1.4577209178   -0.0175499892
 C    0.0108846041   -0.0211500498   -0.0462674087
 C    0.2973755822   -0.8345119796   -1.0905576029
 O    0.5898657221   -0.5909466858   -2.3820436861
 C   -0.1960022441   -1.1951837044   -3.3333181251
 N    0.1115415994   -1.0588027118   -4.5417272139
 O    0.3747144258   -2.1296675292   -0.6517876445
 C    0.1157296898   -2.0260563046    0.6769288991
 N   -0.0990097419   -0.8243104899    1.0921202060
 H    0.5729826388    1.9245547644    0.6441366521
 H   -0.0438922903    1.8780996223   -1.0187284275
 H   -1.1562566758    1.7267639587    0.3586997021
 H   -1.0373492669   -1.7452630519   -2.9000804339
 H   -0.5595288366   -1.5438466097   -5.1337970198
 H    0.1093169856   -2.9462800164    1.2393203024