19

 C   -0.4185568937    1.2392676703    0.9950444231
 C    0.2520233769   -0.0185904106    0.4793564351
 C    0.5722887634   -0.1220334736   -1.0261840449
 C    2.0411048634   -0.3192781892   -0.5684944999
 C    2.5777378798   -1.7371395470   -0.7335194515
 C    3.0405129346    0.7281194079   -1.0381904346
 O    1.6576284336   -0.0789435932    0.8197513588
 H    0.0720300435    2.1336273374    0.5984118251
 H   -1.4739100451    1.2597951198    0.7004727318
 H   -0.3684754941    1.2781905620    2.0879548685
 H   -0.2720074392   -0.9037271723    0.8684936359
 H    0.1213173407   -0.9582477665   -1.5637567857
 H    0.3970821951    0.8012402124   -1.5842632696
 H    2.7975189191   -1.9517839184   -1.7852462479
 H    3.5000111240   -1.8632491574   -0.1572940043
 H    1.8509083800   -2.4727119256   -0.3766760088
 H    2.6467398657    1.7361428487   -0.8821453061
 H    3.9781976398    0.6383028991   -0.4797082610
 H    3.2634753126    0.6022909262   -2.1035409340