21

 C   -0.0559329097    1.5019105145   -0.1215418402
 C   -0.0210755181   -0.0132294682    0.1271698458
 C   -1.3834501450   -0.6252741551    0.0471822074
 O   -2.3675547890   -0.1986108255    1.0065595009
 C   -2.8532449813   -1.5616227565    1.1490539161
 C   -1.9323578359   -2.0487247103    0.0442545571
 C   -2.0676485372   -1.1496156620   -1.1856327800
 C   -3.3778704568   -0.6179642726   -1.7145969142
 O   -1.1231866373   -1.4687741955   -2.1796400467
 H    0.9419284919    1.9365833155   -0.0114284634
 H   -0.4125557059    1.7242126477   -1.1321273148
 H   -0.7234809307    1.9968437394    0.5898159613
 H    0.6144358099   -0.5070967924   -0.6131923912
 H    0.4038995617   -0.2180800283    1.1173173289
 H   -2.6001219031   -1.9560433904    2.1402071905
 H   -3.9359807266   -1.6372774307    0.9922605978
 H   -1.4119387796   -2.9970600587   -0.0012089221
 H   -3.9842803717   -0.1920309725   -0.9130885531
 H   -3.1819235604    0.1686785321   -2.4498077128
 H   -3.9578619706   -1.4073828351   -2.2084557994
 H   -1.4270077047   -2.2634869755   -2.6324399078