13

 C   -0.0506448465    1.5857475088   -0.0751511086
 C    1.4899896253    1.3394507214   -0.0085038375
 O    1.1910692265    0.1663768535    0.8362067582
 C   -0.0171407391    0.0262858529   -0.0002112165
 C    0.6453984709   -0.3066014345   -1.3238821836
 N    0.6797574361   -1.0338805602   -2.3857624598
 O    1.7958044140   -0.5524332580   -3.0829339542
 N    2.4298349732    0.4909778459   -2.3953966335
 C    1.7207652814    0.6303709980   -1.3298007530
 H   -0.4234529396    2.0194883775    0.8535656569
 H   -0.4766022558    2.0690551744   -0.9566859074
 H    2.2116203794    2.0351729209    0.4084956360
 H   -0.8024703659   -0.5910096607    0.4250798231