23

 C    0.0004407366    1.4706144945    0.1359698108
 C    0.1071258707   -0.0330685905   -0.0496752720
 C    1.0161620074   -0.5102882591   -1.1876693792
 C    1.3524218204   -1.9179887042   -0.7238024523
 C    0.7675178534   -3.1147347608   -1.4320940812
 C    2.2518039351   -2.8403445497   -1.4953239273
 C    1.3489479248   -1.8338716960    0.8128640376
 C    2.7254315797   -1.8168718468    1.4698825343
 O    0.6927488802   -0.5984929645    1.1243789051
 H    0.9937177486    1.9103692256    0.2698011340
 H   -0.4742173706    1.9329066161   -0.7354538781
 H   -0.6002202567    1.7061870148    1.0190403006
 H   -0.9018611567   -0.4560546311   -0.1966675178
 H    0.5317355011   -0.4836744441   -2.1675961297
 H    1.9134996394    0.1202532854   -1.2318828756
 H    0.4332971837   -3.9525308021   -0.8278529251
 H    0.1743503640   -2.9457943175   -2.3253571488
 H    2.6693493791   -2.4807460355   -2.4304664415
 H    2.9142871877   -3.4997017163   -0.9440993564
 H    0.7606868403   -2.6641524177    1.2333233643
 H    3.3637532873   -1.0526176713    1.0162407662
 H    2.6228401579   -1.5909944021    2.5351703307
 H    3.2210768567   -2.7878817971    1.3729728014