19

 C    0.2241635594    1.6813630117    0.1009357674
 C    0.1125646180    0.1637729983    0.0201862529
 C    0.6914586602   -0.6443543918   -1.2042558375
 C    1.7233102790    0.0744829419   -2.0701613035
 C    1.3283769967   -1.6283381400   -0.2005638670
 C    1.3205937916   -3.0998200324   -0.1701630923
 O    2.5204658021   -2.3626316343   -0.3925568585
 C    1.0259466731   -0.6720924803    0.9448275349
 O    1.4031414611   -0.5576743685    2.0746159972
 H    1.2454944617    2.0231830888   -0.0860121551
 H   -0.4357322131    2.1675785742   -0.6240601349
 H   -0.0602215711    2.0207745336    1.1012553569
 H   -0.9257962155   -0.1412352946    0.2029235620
 H   -0.0832482594   -1.0904999315   -1.8332408857
 H    2.5266012480    0.5101248642   -1.4672219306
 H    2.1878222095   -0.6304243713   -2.7655424009
 H    1.2619172411    0.8774601028   -2.6526968267
 H    1.2606138386   -3.6168378447    0.7861693914
 H    0.9316711690   -3.6393564760   -1.0329804299