23

 C   -0.3285392396    1.5893234994   -0.0316259759
 C   -0.1084221655    0.0749741943    0.0056551834
 C    0.7447823251   -0.4264828283   -1.1665714807
 C    0.9068764203   -1.9431047944   -1.2209140639
 O   -0.3996270915   -2.5071537340   -1.3477674053
 C    1.8153470285   -2.4448659269   -2.3773913145
 C    2.4814418019   -3.7157360245   -1.7918595061
 O    1.9289773042   -3.8923537568   -0.4824146624
 C    1.6099686112   -2.5873653589   -0.0149446343
 H    0.6221731012    2.1332129254    0.0104769123
 H   -0.8396975116    1.8913545306   -0.9526039641
 H   -0.9398580301    1.9236325961    0.8124041309
 H    0.3716707996   -0.1978213289    0.9546155450
 H   -1.0704010836   -0.4463104732   -0.0145825606
 H    0.2895735360   -0.1006774549   -2.1106019788
 H    1.7418884392    0.0303877015   -1.1268314483
 H   -0.3044773405   -3.4543581844   -1.1890396737
 H    1.2039186608   -2.6489002484   -3.2582682276
 H    2.5639266787   -1.6950831460   -2.6477676468
 H    2.2765948802   -4.6262062170   -2.3608020950
 H    3.5722012687   -3.5946896733   -1.7222116484
 H    2.5194751951   -2.0296679592    0.2654385230
 H    0.9629764117   -2.6871195881    0.8587071616