18

 C   -0.2684892764    1.6558907376    0.1372171569
 C    0.0269818270    0.1830206471   -0.0160679565
 N    1.3388824451   -0.2062191755   -0.5823735601
 C    1.0571894277   -0.5551081306    0.8019650819
 C    1.8610360327    0.1160425447    1.8676122795
 C    1.6279502884   -0.1784829163    3.2872104265
 O    2.7451040654   -0.7396179715    2.5977297478
 C   -1.1230698455   -0.6768795612   -0.4210422230
 O   -2.2543999912   -0.2909351572   -0.5659509488
 H    0.6437109599    2.2213874144    0.3314990687
 H   -0.7257486752    2.0410970230   -0.7783047403
 H   -0.9762924714    1.8233065834    0.9537354858
 H    1.2538006035   -1.0182963062   -1.1922896441
 H    0.8396710733   -1.5982744695    1.0325905244
 H    2.2911253854    1.0767438031    1.5922942206
 H    1.8656033649    0.5726535969    4.0386484616
 H    0.8488399882   -0.8861224290    3.5687429240
 H   -0.8420031818   -1.7443562630   -0.6003925351