18

 O    0.0919614140    0.0910652134    0.1996177306
 C    0.0163016954    1.2850995583    0.1054606234
 C   -1.2269509825    2.1978625587    0.1409857361
 C   -0.4624100200    3.5159785325   -0.0221552310
 C    0.7474916107    3.3527427282    1.0066277762
 C    1.1643776576    2.3215791308   -0.1132901017
 C    2.1422470670    1.8181608194   -1.2046235963
 C    1.0026733744    2.3431695253   -2.1821588003
 N    0.6189421039    3.2719049635   -1.0607232096
 H   -1.9122414098    1.9796463210   -0.6837816601
 H   -1.7761595834    2.1008533335    1.0814342663
 H   -1.0235198551    4.4461018221   -0.0968981430
 H    1.3957658549    4.2274725949    1.0144612105
 H    0.5115114596    3.0020678660    2.0149970865
 H    3.0549634074    2.4063353992   -1.3002344207
 H    2.3538396382    0.7484051500   -1.2088929047
 H    1.3039829846    2.8663904466   -3.0917207045
 H    0.2863582829    1.5477267765   -2.4306846078