18

 O    0.0743882184    1.4386012040   -0.0836088363
 C    0.0298310679    0.0226427003   -0.0055714833
 C    0.5911309419   -0.5181271745    1.3224172703
 C   -0.6371274877   -0.7341181220    2.2145978134
 O   -0.6656400804   -0.9245995504    3.4093985328
 N   -1.7270051400   -0.6735157573    1.3808524223
 C   -1.4062996147   -0.5195865760   -0.0134705375
 C   -2.4186142350   -0.0638527223   -1.0145139529
 C   -1.8991740330   -1.4898360487   -1.0577199083
 H   -0.4631262069    1.7943918586    0.6334057063
 H    0.5901431788   -0.3262939050   -0.8751266228
 H    1.0845158859   -1.4871769268    1.1888730118
 H    1.3089403889    0.1643548095    1.7798825274
 H   -2.6501763747   -0.8855168844    1.7260417497
 H   -3.4384497750    0.0913801140   -0.6770248416
 H   -2.0875392797    0.6375547657   -1.7725295888
 H   -1.2262238514   -1.7714469092   -1.8610490247
 H   -2.5684259134   -2.2808200454   -0.7351402378