21

 C   -1.1940095755    0.8858522596    0.0809086983
 C    0.3165096823    0.6218667396   -0.0193321393
 C    1.0919732032    1.9207826097   -0.2902482800
 C    0.8093093404   -0.0248294006    1.2651904680
 C    0.6811034494   -1.5049166298    1.5325996049
 C    0.1603064845   -2.3614723161    0.4952413201
 N   -0.2488047752   -3.0659668748   -0.3270382633
 N    1.9939846953   -0.8607832135    1.3852047813
 C    2.8197870842   -1.1832740982    0.2258123618
 H   -1.4232665981    1.5372156502    0.9324729874
 H   -1.5589968022    1.3819261445   -0.8235665238
 H   -1.7540710968   -0.0453471825    0.2043715000
 H    0.4818587107   -0.0650138484   -0.8558630103
 H    0.9505901689    2.6372800274    0.5272504888
 H    2.1659809588    1.7394295846   -0.3923231987
 H    0.7407627009    2.3945441469   -1.2121096326
 H    0.6619364949    0.6093736453    2.1413992821
 H    0.4523504941   -1.8562828046    2.5357391320
 H    2.2694829848   -1.3481296425   -0.7092758336
 H    3.5343814773   -0.3692065204    0.0764388082
 H    3.3836395580   -2.0930765164    0.4504507386