17

 C    0.0491000788    1.5531517024    0.0365091874
 C   -0.0212137024    0.0230318318   -0.0301556953
 O   -1.3653246966   -0.4334008166   -0.0495204862
 C    0.7717835115   -0.5787870766   -1.2107175935
 N    1.9767245380   -1.2382828372   -0.6788773369
 C    1.9402496597   -1.2362110235    0.6042516855
 N    2.8774156175   -1.7396816498    1.4512961888
 C    0.7139253522   -0.5874914607    1.1679942708
 O    0.3441484454   -0.5933854633    2.3182259313
 H    1.0837495313    1.9091274186   -0.0084452932
 H   -0.5054949635    1.9786909031   -0.8043484679
 H   -0.3952256618    1.9111217969    0.9712151866
 H   -1.7124947070   -0.3176646778    0.8449007714
 H    0.1491649341   -1.3149257574   -1.7300712257
 H    1.0694578883    0.1750491249   -1.9469979997
 H    3.5496837051   -2.3904628403    1.0777973185
 H    2.5750093996   -1.8888330846    2.4015481681