17

 C   -0.1837047955    1.2592236656   -0.3606680280
 O   -0.1804154854   -0.1041597356    0.0880256294
 C   -1.3920533666   -0.6799069886    0.1828876029
 O   -2.4278163402   -0.1307230626   -0.0876410141
 C   -1.2533898867   -2.1067857193    0.6909779071
 C   -2.5973989891   -2.8071006843    0.7232427499
 O   -3.2533977986   -2.9984948482    1.7131715562
 O   -2.9563822145   -3.1910502364   -0.5134757731
 C   -4.2499771521   -3.8017549333   -0.6120069998
 H    0.8614359260    1.5674404789   -0.3757799766
 H   -0.6206161868    1.3332855065   -1.3594509264
 H   -0.7596918629    1.8870595871    0.3234273208
 H   -0.5503045754   -2.6418611480    0.0470176503
 H   -0.8417578815   -2.0842760221    1.7025216357
 H   -4.2988565104   -4.7016050343    0.0061190987
 H   -5.0254022977   -3.1049580148   -0.2849805588
 H   -4.3799367727   -4.0520489007   -1.6646961942