16

 C   -0.0056662706    1.5321485096    0.0490983697
 O    1.3816383605    1.8941512298   -0.0072714160
 C    2.0382279809    0.9194732204   -0.7736251705
 C    2.3818918877   -0.4423403699   -0.1398139623
 C    1.8779607585   -0.7050129718    1.2379613221
 C    0.5583860482   -0.5264135261    1.3139775939
 C   -0.0007570545   -0.0119426310   -0.0047447921
 C    1.1515470177   -0.2529646277   -1.0144557735
 H   -0.4176924771    1.9429517045    0.9750049835
 H   -0.5510589390    1.9604974972   -0.8071492294
 H    2.7043240140    1.3261350625   -1.5280225921
 H    3.2663704674   -0.9462779817   -0.5152135168
 H    2.5309549199   -0.9673699876    2.0617210278
 H   -0.0394511930   -0.5824615771    2.2164049685
 H   -0.9672075511   -0.4301130443   -0.2969930177
 H    0.9977236404   -0.7295386168   -1.9740249851