17

 C    0.0032932419    1.4503401675    0.0857209977
 C   -0.0749671572   -0.0460912561   -0.0846012816
 C    0.7964372812   -0.7657816979   -1.1527268138
 N    0.5161805600   -2.2217861575   -0.9075464657
 C   -0.5183339225   -2.1408448897   -0.1823431643
 O   -0.4750429793   -2.3797588014    1.2022077557
 C   -0.6426076282   -0.8957682038    1.2213858185
 C   -1.3506830816   -0.8031742080   -0.0633355420
 N   -2.6334310587   -0.4989477773   -0.5764418554
 H    1.0062234049    1.7571227136    0.4010263555
 H   -0.2160318029    1.9631729208   -0.8586802281
 H   -0.7079850235    1.8166430737    0.8337404323
 H    0.5721371515   -0.3963360290   -2.1655471689
 H    1.8719621548   -0.6515249013   -0.9801156003
 H   -0.7593294522   -0.4612848847    2.2078948160
 H   -3.3718706096   -0.9463855657   -0.0429391108
 H   -2.8035904885    0.5008437866   -0.5743304147