15

 N   -0.0561821684   -1.1543370649   -0.0826709836
 C   -0.0209036191   -0.0006072070   -0.0235687135
 C   -0.0314499784    1.4493261943   -0.0059074925
 C   -0.0574513044    2.0858856191    1.4203650706
 N    1.4052068102    1.7296830787    1.4910858162
 C    1.3819486575    2.1132857725    0.0338449001
 C    1.0253925642    3.6267010978    0.0804068935
 O   -0.3290782776    3.9597111683   -0.2652679125
 C   -0.0275489106    3.6066545920    1.0946646639
 H   -0.7375484280    1.8474627935   -0.7310712346
 H   -0.7103097898    1.7243755022    2.2123331059
 H    1.9430172896    2.3849268870    2.0623564918
 H    2.2046557075    1.7798856933   -0.5955391518
 H    1.7686553741    4.4033378912   -0.0629653758
 H   -0.2137938269    4.3655991919    1.8466456123