15

 O    0.2124064707    1.5584932640    0.0342786036
 C    0.0405720892    0.1690414764    0.0709996674
 C    0.5935365497   -0.4531335773   -1.2087192181
 O    1.0617489774    0.2271491254   -2.0874933310
 C    0.7257243427   -0.4486218910    1.2603937411
 C    1.6670499230    0.1527753958    2.0368798279
 O    2.0863343994   -0.6908778454    3.0156389390
 C    1.4047525486   -1.8539788439    2.8576768472
 C    0.5548197390   -1.7696584820    1.8021144595
 H    0.6009432960    1.7463985892   -0.8357408278
 H   -1.0342704086   -0.0920196461    0.1005959057
 H    0.5470494686   -1.5576612630   -1.2782218646
 H    2.0977875313    1.1383474264    2.0317101386
 H    1.6301729667   -2.6312930393    3.5687916018
 H   -0.1174861635   -2.5406343192    1.4579676698