21

 C   -0.0595362234    1.4757824623   -0.0720303556
 C    1.2827862429    0.7474113288    0.0232033218
 C    2.0947353483    0.6784158016    1.3117154856
 C    2.0638738515   -0.7504223880    1.8870436850
 C    0.6323245384   -1.1600762438    2.2760533465
 C   -0.3853361698   -0.9740542852    1.1411438455
 C   -0.4646797916   -1.9821153618   -0.0321641160
 O   -0.3867646278   -0.9132716038   -1.0078450733
 C   -0.0122007910   -0.0039539688    0.0258017147
 H   -0.4147652401    2.0452597441    0.7830883051
 H   -0.3155525815    1.9020783821   -1.0364657313
 H    1.8468452747    0.7073966995   -0.9041235853
 H    3.1268187488    0.9925138309    1.1262317841
 H    1.6920982325    1.3754026766    2.0587208990
 H    2.4699293484   -1.4453473794    1.1402513098
 H    2.7121012082   -0.8238755006    2.7674491888
 H    0.6093033129   -2.1989089206    2.6270755314
 H    0.3214198964   -0.5456292929    3.1311163416
 H   -1.3837132847   -0.7808199405    1.5449371127
 H    0.3979707506   -2.6587514332   -0.1050267116
 H   -1.3891623636   -2.5587413472   -0.1334257485