20

 C    0.0120753493    1.5835643128    0.1502280539
 C    1.2831273890    0.7945230720   -0.0429189118
 C    2.3502530229    0.7002854635    1.0402803867
 C    2.7962618401   -0.7272262906    1.2810319400
 C    1.9979973295   -1.7166456159    1.6890943537
 C    0.5481238736   -1.6260382991    2.0060597290
 N    0.0167262872   -0.3644302724    2.5788071108
 C   -0.4278415475   -0.7710203982    1.2446265023
 C   -0.0423559110    0.0727196372    0.0694352455
 H   -0.1463250745    2.0175984687    1.1319053823
 H   -0.3847944313    2.1634983251   -0.6759908619
 H    1.6908755920    0.7983072956   -1.0502820028
 H    3.2074412778    1.3144056020    0.7450397861
 H    1.9660564357    1.1166884561    1.9744159610
 H    3.8420766394   -0.9615871977    1.0965661865
 H    2.4234136555   -2.7105213198    1.8083684734
 H    0.1312804714   -2.5441334228    2.4152232932
 H   -0.6949380687   -0.5706591226    3.2732322022
 H   -1.4345824067   -1.1813623731    1.1689041283
 H   -0.4177417736   -0.3358574809   -0.8653712284