23

 C   -0.1100908493    1.5506315254   -0.1258394427
 C   -0.0164452954    0.0281833943   -0.0463866090
 C    1.1427344762   -0.5780592349   -0.8835879948
 O    1.5710740284    0.2263793300   -1.9584953010
 C    2.0083582010   -0.6556799437    0.4008551465
 C    0.6926149235   -0.5505244956    1.2267494184
 C    0.6854818984    0.2372993126    2.5303197461
 C    1.4771393617   -0.4490905781    3.6369904681
 O    1.4043582500    0.3656896887    4.7980323620
 H    0.8520614369    2.0372930002    0.0566791859
 H   -0.4407640098    1.8564910617   -1.1221092551
 H   -0.8283736357    1.9337083898    0.6059669739
 H   -1.0011549812   -0.4020977361   -0.2541164709
 H    0.8778261191   -1.5876658051   -1.2308289553
 H    2.3189982035   -0.2071530552   -2.3810498655
 H    2.6458840727   -1.5325994494    0.5429006369
 H    2.6167660696    0.2486753150    0.5029374281
 H    0.3038135777   -1.5585058633    1.4171712345
 H    1.1034783620    1.2387910724    2.3795594448
 H   -0.3447763101    0.3773913198    2.8815700227
 H    1.0576951613   -1.4512624901    3.8272323097
 H    2.5221626085   -0.5911565285    3.3164813816
 H    1.9204980811   -0.0535277600    5.4925375152