11

 N    0.0188820900    1.3189730713    0.0078749522
 C   -0.0133460455   -0.0208482478    0.0009824008
 N   -1.1807061369   -0.6263508175    0.0041732370
 C   -1.2206800768   -1.9742594261   -0.0026715517
 O   -2.1532008124   -2.7124333798   -0.0017659777
 O    0.0992979796   -2.6500291535   -0.0136257268
 C    1.1823290105   -1.9069238596   -0.0156609230
 N    1.2355325639   -0.6209772920   -0.0090909758
 H    0.9054820243    1.7911258930    0.0055136768
 H   -0.8451959306    1.8330253170    0.0153624905
 H    2.1003050440   -2.4929112749   -0.0238492923