19

 C   -0.2505913556    1.3762675088   -0.1619033043
 N    1.0905700988    0.7722039351   -0.0997799701
 C   -0.0994246326   -0.0967935581   -0.0491241477
 C   -0.3204379079   -0.7943262652    1.2531222870
 N   -1.4835145509   -1.6940510326    1.3411078540
 C   -0.1370141606   -2.2619251491    1.4606230828
 C    0.3126356379   -3.2337284484    0.4101853376
 C   -0.6278730227   -4.1516645927   -0.2497247946
 O   -0.0934564033   -3.0190767417   -0.9391228022
 H   -0.5239714957    1.9644523082    0.7108099824
 H   -0.6058371315    1.7810933716   -1.1058999682
 H    1.5030855596    0.7386066298   -1.0278243542
 H   -0.3429453589   -0.6912530434   -0.9221373795
 H   -0.0981820526   -0.1714550997    2.1190838837
 H   -1.9301579442   -1.6267819576    2.2506672140
 H    0.2041880979   -2.5535511817    2.4544872217
 H    1.3520171541   -3.5500394195    0.5140957301
 H   -0.2828031012   -5.1201145985   -0.6083160400
 H   -1.6840084508   -4.0761264151   -0.0012851125