16

 C    0.6863698581    0.6192994181    0.6885162353
 C   -0.1523679799   -0.0059514533   -0.4155173130
 C   -1.6062893346   -0.2206667659   -0.2131535852
 N   -1.1261315887    0.8021497003   -1.1573497003
 C    1.7317932239    1.5544095690    0.1699132788
 C    3.0752087820    1.4339733249    0.0082494283
 O    3.5592704277    2.5567052960   -0.5189944960
 N    2.4408224012    3.4273897018   -0.6922190596
 N    1.4175199820    2.8208511798   -0.2892409462
 H    0.0309258939    1.1720901987    1.3719878124
 H    1.1660112886   -0.1709913374    1.2767757562
 H    0.3935622275   -0.7054995398   -1.0466042435
 H   -2.1051206211   -1.0699120567   -0.6712658426
 H   -2.0363142301    0.0975955375    0.7338818281
 H   -1.1927055749    1.7320071685   -0.7494408204
 H    3.7795291946    0.6460692185    0.2194718878