20

 C    0.0765917987    1.0640144665    0.3068921999
 O   -0.2467197799    0.0125574585   -0.5846114992
 C   -1.4324902579   -0.6535518762   -0.2717551041
 C   -1.4965767553   -2.0380915391   -0.8541640081
 O   -0.3901682072   -2.4908181238   -1.5726401510
 C   -1.4185491061   -1.8651177231    0.6586610350
 C   -0.1335457302   -2.2612528452    1.3543300534
 C   -2.6895275679   -2.1217083972    1.4437800614
 H    1.0059540106    1.5138935006   -0.0499214165
 H   -0.7111628275    1.8310304007    0.3158684698
 H    0.2211154646    0.6973857374    1.3311192333
 H   -2.3174563966   -0.0145879135   -0.2807773800
 H   -2.4368158418   -2.3835854890   -1.2785379739
 H    0.1847997379   -1.7254998582   -1.7022983796
 H    0.7422639442   -2.0306016406    0.7466557338
 H   -0.0320605754   -1.7491199272    2.3181353188
 H   -0.1250054012   -3.3394237513    1.5498799358
 H   -2.7872745658   -3.1847579208    1.6938134912
 H   -2.6986444334   -1.5547440558    2.3826010268
 H   -3.5809570196   -1.8341458128    0.8758816830