16

 C    0.1249860757    1.4961749210   -0.0164434485
 C   -0.0500399573    0.0137217165    0.0179418241
 C   -1.2270606781   -0.6733351326   -0.0171844164
 C   -2.5865184538   -0.0257086125   -0.0991885791
 C   -1.0868153611   -2.0934876307    0.0304301721
 N    0.0285673971   -2.7584130207    0.1014715322
 C    1.2126029358   -2.0585614317    0.1359779651
 O    2.3152370161   -2.5114095127    0.1997140224
 O    1.1190493339   -0.6314807075    0.0909232066
 H    0.7406587725    1.7783632875   -0.8770633262
 H   -0.8321138879    2.0136798940   -0.0762187076
 H    0.6579967880    1.8288201367    0.8805704456
 H   -2.7060572154    0.5754594937   -1.0066781618
 H   -3.3664459216   -0.7921392609   -0.1133933873
 H   -2.7882467185    0.6263517821    0.7571756334
 H   -1.9978935353   -2.6956774523    0.0056581453