13

 N    0.0716751305    1.3692918905    0.1058695118
 C   -0.0298372431    0.0288602442    0.0010287450
 N    1.0924655069   -0.6980609005   -0.1206114266
 H    0.9462735373   -1.7003426863   -0.0901734141
 H    1.9926847328   -0.3246461306    0.1284951265
 C   -1.2624340602   -0.6422994624    0.0189305436
 C   -2.6088736535   -0.2303129420    0.0057881110
 N   -3.3645005006   -1.3155078347    0.0205784660
 N   -2.5145887237   -2.3956139561    0.0416452561
 N   -1.2736176439   -2.0165850340    0.0412261413
 H    0.9221586663    1.8421137406   -0.1507780460
 H   -0.7716322615    1.9169292101    0.1032994042
 H   -3.0411910673    0.7608979211   -0.0182563890