19

 C    0.2300582028    1.4192943528    0.3118999725
 C   -0.1160101077   -0.0273771749   -0.0558574179
 O    0.3973684039   -0.8385280517    1.0039353912
 C   -1.6412924865   -0.2622038911   -0.2379602938
 C   -2.4919429844    0.3169465765    0.8742585105
 C   -3.5348233485   -0.5109840187    1.5328261944
 N   -2.3235856395   -0.1229438596    2.2684837731
 C    0.5656613749   -0.4014370346   -1.3182747092
 N    1.0830548169   -0.7315593492   -2.2977274110
 H    1.3133004021    1.5406923977    0.3674328016
 H   -0.1678620062    2.1139225411   -0.4318521086
 H   -0.2013302662    1.6471650538    1.2885107480
 H    0.4030501316   -1.7567459127    0.7094532617
 H   -1.9556583492    0.1674316376   -1.1961132899
 H   -1.7970014631   -1.3452628172   -0.3170773287
 H   -2.6785393639    1.3854634650    0.7880663493
 H   -4.4532936113   -0.0505770996    1.8855507110
 H   -3.6456931843   -1.5415483143    1.2030771381
 H   -1.6529561413   -0.8858761910    2.3010634276