19

 C    0.1794746895    1.5418387346   -0.0609016559
 C    0.0002889679    0.0220990955   -0.0032933118
 C    0.7501698309   -0.6921196321   -1.1347573836
 C    1.3114642479   -1.8203374155   -0.6894428797
 C    2.7907111545   -2.1315803327   -0.5112162263
 C    2.4899932098   -1.7699520622    0.9984769730
 O    2.1464306112   -0.3804562908    1.2690751661
 C    0.6933571284   -0.6393435284    1.2155158175
 C    0.9966130219   -2.0739423918    0.7902842074
 H    1.2427867407    1.7979989835   -0.0506547351
 H   -0.2694948764    1.9591657091   -0.9676320708
 H   -0.2946650595    2.0229713006    0.8010778997
 H   -1.0745959351   -0.2121132644    0.0400886269
 H    1.0702592539   -0.1531639425   -2.0212315659
 H    3.0695994500   -3.1912925486   -0.5538347301
 H    3.5049119742   -1.5305688794   -1.0777973765
 H    3.1442335575   -2.1866160722    1.7696005519
 H    0.2337489450   -0.4273939158    2.1875934215
 H    0.4655197177   -2.9635438869    1.1217053117