21

 C    0.3175951850    1.2299568687    0.3694873526
 C   -0.1475240789   -0.1875071167   -0.0368327055
 C   -1.6717477762   -0.3124326979   -0.0403477213
 C    0.4382311502   -0.4919953410   -1.4097423956
 O   -0.1954161140   -0.3960910733   -2.4375975234
 C    1.9043910608   -0.8526908041   -1.5024510084
 O    2.6648686327   -1.0160534205   -0.3027620053
 C    2.4411730244   -2.1742511875   -1.1086900043
 C    1.6248851138   -3.3055730082   -0.5392666142
 H    1.4081770375    1.2999532579    0.3993529891
 H   -0.0624719056    1.9782254284   -0.3337538580
 H   -0.0640826684    1.4744330223    1.3652132376
 H    0.2958030706   -0.8825172548    0.6837327215
 H   -2.1105823667    0.3569017523   -0.7846776576
 H   -1.9894531146   -1.3297883319   -0.2878103137
 H   -2.0774709928   -0.0566094622    0.9430351981
 H    2.4140123170   -0.3326714569   -2.3142165648
 H    3.3323217181   -2.4945322407   -1.6522516526
 H    0.7145679790   -2.9569971591   -0.0488322384
 H    1.3424825920   -3.9976099724   -1.3393896803
 H    2.2170263961   -3.8637438124    0.1932558644