16

 C   -0.0696154934    1.4385646444    0.1695607194
 N    0.2638719438    0.0451859329   -0.1058802468
 C    0.7142338991   -0.7497937054    0.9314202697
 C    0.6502832983   -2.0959457596    1.1568643940
 C    1.3976100172   -2.3242441706    2.3661991172
 N    1.5251219425   -3.5669087284    3.0051397216
 C    1.8492856218   -1.1103656047    2.7800618612
 O    1.4200757091   -0.1286433355    1.8957509740
 H    0.8107589750    1.9512647115    0.5613753712
 H   -0.3560113359    1.9193960901   -0.7686210104
 H   -0.8872555512    1.5613402793    0.8957862710
 H   -0.4282577069   -0.4318766455   -0.6648019084
 H    0.1330891363   -2.8313821180    0.5611121544
 H    1.6635571421   -4.3242189279    2.3478086273
 H    2.2751327318   -3.5806552301    3.6843674775
 H    2.4158978003   -0.7631346526    3.6254365272