14

 C   -0.0395260373    1.3405784420    0.0513830257
 O    0.0186255759   -0.0889091387   -0.0250174264
 C    0.6372859011   -0.5740549165   -1.1101326750
 O    1.1244084144    0.1060245231   -1.9840311152
 C    0.6623691813   -2.0485419704   -1.1271930042
 C    1.2229682158   -2.8106899965   -2.1039054350
 O    1.0489117427   -4.1135795915   -1.7721607371
 C    0.3787111476   -4.0732749634   -0.5884368635
 N    0.1214835555   -2.8873196260   -0.1556824744
 H    0.9667959701    1.7668018888    0.0687591794
 H   -0.5791118536    1.7506817021   -0.8061172242
 H   -0.5665523115    1.5641467335    0.9785487726
 H    1.7397889704   -2.5920865263   -3.0213956794
 H    0.1351328175   -5.0234974302   -0.1403748932