17

 C   -0.1070349009   -1.1589413246   -0.3086781462
 C   -0.0438721140    0.0180247414   -0.0752637925
 C    0.0601181018    1.4466401409    0.2150625243
 C    1.4772924245    1.9568497410    0.1371110167
 C    2.6704932691    1.5999569009    1.0255788493
 C    3.3756896711    2.7903970210    0.3271171825
 O    3.5405566934    2.3320301692   -1.0461843737
 C    2.1267659099    2.4644616833   -1.1653245751
 C    1.9627316976    3.3999516419   -0.0149355098
 H   -0.1689626916   -2.1978740581   -0.5186342027
 H   -0.5697319008    2.0103245817   -0.4869178265
 H   -0.3535227212    1.6457450106    1.2132803136
 H    2.4593494628    1.8128216210    2.0774279636
 H    3.1430484384    0.6196841722    0.9139207302
 H    4.2530222891    3.2915482311    0.7295081334
 H    1.6678335443    2.4122267152   -2.1441292076
 H    1.4896873664    4.3634367712    0.1173114504