17

 O    0.4958229694    1.2101064148   -0.1484678706
 C    0.0948896778   -0.1036551756    0.0412652487
 C   -0.5529294641   -0.8890919234   -1.0874002389
 C   -1.3396024962   -0.5025568693    0.1488427572
 O   -1.5083708114   -1.4647237255    1.1625608646
 C   -0.2296142506   -2.0065746808    1.4837016563
 C    0.8036570152   -0.9135601267    1.1188258539
 C    2.1716441116   -1.4065919393    0.7134599742
 O    2.8091564226   -0.9139223584   -0.1858360808
 H    1.3551614961    1.1667714974   -0.5877933110
 H   -0.7687628962   -0.3106253092   -1.9789730614
 H   -0.2913430664   -1.9262621199   -1.2682042763
 H   -2.1669105556    0.1934091697    0.0905942022
 H   -0.2314868621   -2.2692945044    2.5442713082
 H   -0.0447614100   -2.9265035886    0.9083925681
 H    0.9558703841   -0.2461376685    1.9806114093
 H    2.5896434258   -2.2501468821    1.3081165563