19

 C    0.7904574582    1.3022199592    0.0036162815
 C   -0.0641714534    0.0170138084    0.0017073596
 O   -1.4266870032    0.3711846895    0.0513031841
 C    0.2108595190   -0.8535436929   -1.2661043706
 O    0.8299491503   -2.0979992648   -0.9816129733
 C    1.9964677676   -1.9381692537   -0.1971596694
 C    1.6127040258   -1.5372490935    1.2437531904
 C    0.2841938527   -0.8075471258    1.2472456520
 O   -0.5005922801   -0.8620896297    2.1682565520
 H    1.8630359507    1.0920424255   -0.0568779120
 H    0.5107856439    1.9085705350   -0.8626873385
 H    0.5935851721    1.8852092264    0.9075784453
 H   -1.7189392842    0.1343395289    0.9471963825
 H   -0.7525492757   -1.0819434797   -1.7237577081
 H    0.8242116975   -0.2880090175   -1.9852673969
 H    2.5178666394   -2.8983198457   -0.2050201628
 H    2.6658604634   -1.1921532847   -0.6543713106
 H    1.5032071070   -2.4082819889    1.8945411799
 H    2.3765786789   -0.8917409860    1.6951737849