21

 C   -0.0632315914    1.4026381967    0.0417761810
 O    0.0227491683   -0.0058616470    0.0596002865
 C    0.6410559831   -0.5836308708   -1.0849636543
 C    1.1801026427   -1.8864344963   -0.6861864918
 C    1.6129583390   -2.9687194989   -0.3953303292
 C   -0.3223606225   -0.7458117089   -2.2689333176
 C   -0.7192738890    0.4904846546   -3.1285218456
 C   -0.6310838717   -0.4091762670   -4.3893897144
 C    0.2185394559   -1.4128708758   -3.5636196895
 H    0.9173772356    1.8670842741   -0.1463308628
 H   -0.7730732297    1.7768643325   -0.7078860965
 H   -0.4099087233    1.7083095483    1.0321659195
 H    1.4827083276    0.0561870345   -1.4064125119
 H    2.0016321368   -3.9194468749   -0.1255067366
 H   -1.2123385399   -1.2693888328   -1.9066544212
 H   -1.6726958182    0.9779945011   -2.9111554558
 H    0.0696885881    1.2503574020   -3.1242132517
 H   -1.6054439391   -0.8276972043   -4.6567224692
 H   -0.1801098741    0.0192452158   -5.2872921021
 H    1.2910780815   -1.2283127959   -3.6860360701
 H    0.0362896205   -2.4809210668   -3.6952537068