16

 N    0.0257423208    1.4252099803    0.0885361731
 C    0.0347493076    0.0095213684    0.0159586452
 C   -1.2416737183   -0.6927317802    0.0885301533
 O   -2.3055817747   -0.0725908578    0.1944267598
 C   -1.1378973826   -2.1466956139    0.0465230230
 C    0.0627318581   -2.7618221108   -0.0511522708
 N    1.2289611165   -2.0418373508   -0.0770521110
 C    1.2202646977   -0.6675807249   -0.0281685906
 N    2.4584940961   -0.0252292797   -0.0786023649
 H    3.1720167807   -0.4821477002    0.4788240223
 H    2.3472055954    0.9370839750    0.2275476542
 H    0.2800271904    1.8491602106   -0.8000020635
 H   -0.9412954614    1.6886695511    0.2786886354
 H   -2.0512152667   -2.7271162028    0.0768893351
 H    0.1830241867   -3.8366487129   -0.1081839065
 H    2.1001368236   -2.5131150214   -0.2568967841