17

 C    0.2177220338    1.5599051970    0.0492678734
 C   -0.0344615464    0.0468262234   -0.0431762212
 C    0.6973722835   -0.6332546664   -1.2237884746
 O    0.9586695694    0.2061627285   -2.3133383183
 C    1.9762392078   -1.1744713548   -0.5948978592
 N    3.0107728411   -1.4087796802   -1.2890323744
 N    1.7256684061   -1.2985497185    0.7612978614
 C    0.5610489106   -0.6508312001    1.1841754248
 O    0.1659619821   -0.6320101784    2.3211495981
 H    1.2878629841    1.7834143946    0.0952594379
 H   -0.1867451656    2.0602959040   -0.8319702167
 H   -0.2598024544    1.9604290285    0.9466779828
 H   -1.1104107956   -0.1405565505   -0.0637113037
 H    0.1086630957   -1.5104433057   -1.5428516263
 H    1.8234844571   -0.0681569656   -2.6530729448
 H    3.8012159383   -1.7518328995   -0.7439533716
 H    2.3556110026   -1.7247140963    1.4261898025