18

 C   -0.0250301092    1.5462228351   -0.1007514655
 C    0.0416319788    0.0289416027    0.0524402664
 N   -1.2846726054   -0.5542932263    0.1474931049
 C   -2.0914248138   -0.3510582119    1.3703460166
 C   -2.6180086427   -1.7981212081    1.2261593490
 C   -1.3933127664   -2.0171006310    0.2923987764
 C   -1.5747192668   -2.7656519925   -0.9512679581
 N   -1.7225532634   -3.3650859716   -1.9283209277
 H    0.9807778446    1.9668587416   -0.1890479313
 H   -0.5979644890    1.8175078440   -0.9916899451
 H   -0.5046391587    2.0113754748    0.7669616142
 H    0.5336868385   -0.4131055505   -0.8221638167
 H    0.6587815542   -0.2326752392    0.9351958550
 H   -1.4762150458   -0.2233192691    2.2763450457
 H   -2.8158826419    0.4657346153    1.3144260673
 H   -2.6598093417   -2.4170513478    2.1211538304
 H   -3.5618678124   -1.8570911879    0.6846406720
 H   -0.5488539288   -2.4619682076    0.8455957066