15

 C   -0.0372880473    1.4472959650    0.0522843379
 N   -0.0149206126   -0.0034374467    0.0136010076
 C    0.0508096214   -0.7582545727   -1.1254691523
 C    0.1140049849   -2.0921632921   -0.7594048122
 O    0.1788651372   -3.1122381753   -1.6565931213
 C    0.0903915676   -2.1558838800    0.6480626302
 C    0.0123525584   -0.8431661069    1.1052467971
 C   -0.0414301630   -0.3579879411    2.4275803252
 N   -0.0869951975    0.0505757840    3.5128755837
 H    0.9382414663    1.8633519921   -0.2198116007
 H   -0.7921943908    1.8271963797   -0.6410108148
 H   -0.2891436198    1.7736114955    1.0618807139
 H    0.0470545534   -0.3054946600   -2.1029637579
 H    0.2193614724   -3.9452192095   -1.1776990541
 H    0.1149530594   -3.0358222019    1.2720115076