24

 C    0.3517656196    2.1662033759    1.0735600955
 C   -0.5104066928    0.9437837086    1.3861431911
 N    0.3398499405   -0.1977571606    1.7088997407
 C   -0.2041917881   -1.5624698773    1.7300949960
 C   -1.6549578419   -1.8830684282    1.4368554748
 C    0.7830140804   -1.1585968279    0.6793347965
 C    0.4016083011   -1.0245935032   -0.7826264751
 C    2.2498390452   -1.5112816335    0.8851015498
 O    3.0820726646   -0.3999551623    0.5943045443
 H    0.9914074259    1.9807208783    0.2045448120
 H   -0.2722971327    3.0383447363    0.8550352161
 H    0.9967268835    2.4072937338    1.9242107988
 H   -1.1300332791    1.1450882795    2.2685349018
 H   -1.2058704154    0.7665340439    0.5528625467
 H    0.1862397956   -2.1472588659    2.5649221997
 H   -2.0444353235   -1.3742724533    0.5536406877
 H   -1.7684274210   -2.9603873618    1.2753915348
 H   -2.2895560116   -1.6120616737    2.2879535040
 H   -0.5862901059   -0.5916255929   -0.9439181001
 H    1.1386166909   -0.3987690305   -1.2952441287
 H    0.4115969357   -2.0096030488   -1.2623888925
 H    2.4022524573   -1.8604758444    1.9166811148
 H    2.5578663104   -2.3137509088    0.2055510594
 H    2.7829832818    0.3011788765    1.1865874821