20

 C   -0.0850537453    1.4400508399   -0.1355470988
 C    1.4664039470    1.4630247553   -0.1140847139
 C    1.4367349130    0.1131252506    0.6614117509
 C   -0.0331728405   -0.0777000003    0.1876123687
 C    2.4718835298   -0.9282713479    0.3029734428
 C    2.2209826368   -2.4037864168    0.6963761422
 C    2.4007784263   -2.6834422213   -0.8071913615
 O    2.4628220137   -1.2736849058   -1.1080263385
 H   -0.5109626550    2.0167265877    0.6908958250
 H   -0.5819983382    1.7416876435   -1.0604709280
 H    1.8845145356    1.3199235359   -1.1142011450
 H    1.9623417641    2.3130323374    0.3609449438
 H    1.4799482193    0.2859488012    1.7439074287
 H   -0.7570156129   -0.4719771489    0.9051049687
 H   -0.0646655733   -0.6798693912   -0.7243234770
 H    3.4711782926   -0.5697274974    0.5945478073
 H    2.9465342803   -2.8595926983    1.3713862434
 H    1.2116836889   -2.5913893227    1.0686909222
 H    3.3353223147   -3.1957263307   -1.0716653587
 H    1.5687602031   -3.1766554901   -1.3226790923