11

 N    0.1289016460    1.3719771177    0.1761299666
 C   -0.0604752567    0.0069232768    0.0456078675
 C   -1.1374288269   -0.7924164008   -0.0210412988
 N   -0.6286050315   -2.1097615495   -0.0071446318
 C    0.7353607937   -2.0994915021    0.0337705725
 O    1.5337583916   -2.9959648977    0.0313917036
 O    1.0861097869   -0.7460656683    0.0794563021
 H    0.9312334815    1.7013599489   -0.3478690828
 H   -0.6956177425    1.9069273986   -0.0610510003
 H   -2.1882784200   -0.5715600678   -0.0590375177
 H   -1.1549553921   -2.9620836958   -0.0675157408