19

 C    0.3101669520    1.5623166155    0.3265358102
 N    0.2616447254    0.1236288318    0.1596690528
 C   -0.1225869947   -0.4685514240   -1.0108432396
 O   -0.4595901011    0.1771847861   -1.9926475552
 C   -0.0885252981   -1.9714867553   -0.9472064424
 C   -0.9542757694   -2.8903672052   -1.7287327294
 C   -1.2786459922   -2.4012133253   -3.1393246000
 C    0.2519832040   -2.2950756563   -3.3434538255
 N    0.5384981691   -2.8590395867   -1.9655294807
 H   -0.0855430422    2.0082955838   -0.5864381369
 H   -0.2995418468    1.8821548913    1.1784793696
 H    1.3368493087    1.9150660420    0.4782161197
 H    0.5729286922   -0.4600131804    0.9175965934
 H    0.1590801741   -2.3556797585    0.0409864688
 H   -1.4319411901   -3.7298858555   -1.2303061562
 H   -1.7357528630   -3.1849280032   -3.7466894086
 H   -1.8567022934   -1.4815124924   -3.2170369858
 H    0.6507872045   -2.9944179126   -4.0806331312
 H    0.6558443509   -1.2983133551   -3.5153776128