21

 C   -0.0416964861    1.5330918778    0.2133913289
 C    0.0929431064    0.0274572302    0.2288558293
 O   -1.1315861199   -0.6252142512   -0.0612757933
 C    1.3047191472   -0.7463205406   -0.2307957715
 C    2.6082557785   -0.0483617384    0.1671358915
 C    2.1434515877   -0.0568165671    1.6610042044
 C    0.8493306452   -0.7766032048    1.2515638632
 C    0.1440565343   -1.8587734438    2.0345043992
 O   -0.9619395526   -1.3659265182    2.7800312713
 H    0.8908790174    2.0415946101    0.4648491959
 H   -0.3443516533    1.8794050455   -0.7832198187
 H   -0.8073056662    1.8498933742    0.9285330637
 H   -1.3845350721   -0.4043742899   -0.9640546332
 H    1.1967266656   -1.5228714652   -0.9806533485
 H    3.4851949776   -0.6796995290    0.0087117553
 H    2.8026093961    0.9265235499   -0.2917903680
 H    2.7800445665   -0.6903459764    2.2835556262
 H    2.0343748876    0.9110462616    2.1599212971
 H   -0.1689921617   -2.6633903377    1.3555072395
 H    0.8333724976   -2.2957061866    2.7655429968
 H   -1.5979684957   -1.0595792705    2.1229368510