19

 C    0.0855036155    1.5240729584   -0.1355994718
 C   -0.1269921561    0.0113754377   -0.0034058872
 C    0.6256219809   -0.5715093569    1.1931058796
 C    0.6683090337   -2.0882846527    1.4351963659
 C    1.3263046152   -2.7965112709    0.2936368752
 C    2.2539785436   -2.1064192032    1.2498671501
 O    3.2628221355   -2.8086849839    1.8495086951
 C    2.1817501126   -0.6223917933    1.1883226004
 O    3.0219974498    0.2065022773    1.4345905333
 H    1.1483691842    1.7651885421   -0.2314816492
 H   -0.4360485860    1.9196123219   -1.0122007628
 H   -0.2924498378    2.0535696480    0.7457586295
 H   -1.1964941745   -0.2078172745    0.1085124234
 H    0.1905445592   -0.4840948639   -0.9280756670
 H    0.3292338358   -0.0354958865    2.1039739223
 H    0.1113784379   -2.6102693935    2.2019518160
 H    1.3826619351   -3.8765616603    0.3976123099
 H    1.2109945056   -2.4601209027   -0.7326035385
 H    3.6977432396   -2.2108989831    2.4714873156