17

 C   -0.0565218845    1.6514761524    0.0914612134
 C   -0.0234025522    0.1332054603    0.0119535209
 C    1.0967839326   -0.4746754391   -0.8740324540
 O    1.8475777920   -0.8563544857    0.2929847136
 C    0.7299232666   -0.5656141343    1.1592607445
 O   -1.3337080390   -0.4085309809   -0.1458357183
 C   -1.9182113584   -0.2718827227   -1.3531795911
 N   -3.1129861929   -0.6423732236   -1.5201478423
 H    0.9469472158    2.0400997470    0.2872409478
 H   -0.4161920490    2.0924521684   -0.8438570507
 H   -0.7214837794    1.9711029869    0.8992784648
 H    0.7679971882   -1.3445911726   -1.4577859832
 H    1.6543320643    0.2141967901   -1.5185616762
 H    1.0186859806    0.0542245531    2.0145494435
 H    0.2212166180   -1.4726297937    1.5062369507
 H   -1.2602626158    0.1587441540   -2.1201084460
 H   -3.3913168270   -0.4921439894   -2.4876823575