17

 O    0.1115666345   -0.0655965509   -0.2082734786
 C    0.1378271674    1.1194626943   -0.3251620034
 O    1.0005771908    1.8975405018    0.3814454423
 C    0.9004093597    3.2671685216    0.2188950965
 C    0.8089753298    4.1848393437   -0.9724803251
 C   -0.3731734205    4.9395380663   -0.3666980868
 C    0.1030923932    4.3980277389    1.0116428140
 C    1.4692032457    5.1058490838    1.2386786571
 C    1.9792627203    4.2888772395    0.0528420781
 H   -0.4998668354    1.7121021541   -1.0053776009
 H    1.0219638471    3.9675425184   -2.0111145356
 H   -0.4084366559    6.0284334364   -0.4790193279
 H   -1.3290000792    4.5070140987   -0.6747739224
 H   -0.5972551510    4.2452510696    1.8292475120
 H    1.4767721302    6.1987510688    1.1685946513
 H    1.9449077529    4.7900970401    2.1704597212
 H    2.9963638704    4.1211392348   -0.2761400118