17

 C   -0.0780910992    1.5449404550    0.2031295385
 C   -0.1229905342    0.0329668169    0.3614417242
 C   -1.3090235215   -0.7271698887   -0.0999720670
 N   -0.0233528838   -0.8417945124   -0.8133008806
 C    1.2882099150    2.0725611391   -0.0660099812
 C    1.8858520237    2.7117476284   -1.1017235626
 N    3.2213081339    2.9551052767   -0.7963207053
 C    3.3635494604    2.4586204343    0.3863949798
 O    2.2425754068    1.9046028309    0.9071204514
 H   -0.7259630434    1.8491068999   -0.6268613184
 H   -0.4846136043    2.0124821164    1.1101287669
 H    0.4300865805   -0.3396932683    1.2208350221
 H   -1.6252266703   -1.6252675190    0.4227999230
 H   -2.1181526902   -0.1685931667   -0.5651258541
 H   -0.0437271370   -0.2839761741   -1.6646046726
 H    1.4543006376    3.0192823945   -2.0412264916
 H    4.2483660260    2.4307884571    1.0026244774