18

 O   -0.5512285308    0.6711772845    0.4372111454
 C    0.1226431216    1.6572841281    0.2915311091
 C    1.4912271923    1.6738419981   -0.3663991417
 C    1.5699814370    2.7161227071   -1.4629633183
 O    1.5285401428    4.1019956334   -1.0728931855
 C    2.7257221445    3.6038592123   -1.6799400390
 C    3.9532825935    3.5911981283   -0.8168005185
 C    4.4527071416    4.8660424510   -0.2431134066
 N    3.8345493277    3.8473045764    0.6249633389
 H   -0.2248871900    2.6531046729    0.6456509232
 H    2.2375928978    1.8864223204    0.4078342085
 H    1.6919031551    0.6786512795   -0.7749854272
 H    0.9428265446    2.5041774931   -2.3302716421
 H    2.8864451091    3.9599671265   -2.6993272898
 H    4.6773513073    2.8222599402   -1.0802183016
 H    5.5182683140    5.0148146240   -0.0967307831
 H    3.8854554953    5.7688610019   -0.4535304697
 H    2.8730599965    4.1349462022    0.8031901980