15

 N    0.3565639420    1.0892253728   -0.7011242615
 C   -0.1878178912    0.3429545522    0.4177524310
 C   -1.5094566992   -0.3747083785    0.2082738143
 N   -1.9958190154   -1.0591391342    1.2572257743
 C   -3.1522813603   -1.6694071988    1.0263257209
 N   -3.8369680866   -1.6549501127   -0.1171700054
 C   -3.2489459935   -0.9412088123   -1.0807774996
 O   -3.8656293067   -0.8725481770   -2.2595472176
 N   -2.0958383328   -0.2829051173   -0.9838746407
 H    0.4641743319    0.4668307248   -1.4974526988
 H   -0.3253847493    1.7780116516   -1.0070890924
 H    0.5384955677   -0.4099664668    0.7490365089
 H   -0.3164015048    1.0095035533    1.2799169097
 H   -3.5875813443   -2.2374923064    1.8459775706
 H   -4.6777659876   -1.3928671808   -2.1758130336