16

 C   -0.1883228846    1.5497630260   -0.0442217607
 N    0.1663202134    0.1313909226    0.0949883294
 C    1.3704375274   -0.5210742034   -0.2656847203
 C    2.6912524097    0.1815135921    0.2335330473
 O    2.3466809659    1.4153979646    0.8684588386
 C    2.2068354477    0.1997109446    1.6070486142
 C    0.8584006913   -0.4956545842    1.1879801236
 C    0.2525739127   -1.6073678488    1.9337495113
 O    0.7005158213   -2.0368264246    2.9720537429
 H    0.4907334650    2.0671839640   -0.7236528750
 H   -1.2066425823    1.6076292720   -0.4437349536
 H   -0.1577007070    2.0599833984    0.9200061640
 H    1.3615454086   -1.3574598906   -0.9577167089
 H    3.6866933015    0.0657211809   -0.1752719128
 H    2.7162702024    0.0894613855    2.5542418667
 H   -0.6531018128   -2.0320828793    1.4502540135