25

 C   -0.0837441007    1.5770435439    0.0127957893
 C    0.0227160568    0.0494105345    0.0003545512
 C    0.6884630609   -0.4764068231   -1.2840264939
 C    0.7827354257   -2.0085233636   -1.2974886625
 C    1.4848411217   -2.5406298134   -0.0403648752
 C    0.8236123580   -2.0265096082    1.2510667545
 C    1.5139624343   -2.5642009437    2.5078313693
 C    0.7556653660   -0.4831379409    1.2516709536
 O    2.0460090317    0.1106414832    1.4109421307
 H    0.9098791703    2.0333964082    0.0367202745
 H   -0.6108177359    1.9427541623   -0.8746392640
 H   -0.6280155276    1.9284256800    0.8960324548
 H   -0.9942101020   -0.3687459524    0.0379506122
 H    0.1325358198   -0.1202316399   -2.1588066488
 H    1.6958428402   -0.0428676602   -1.3796929141
 H   -0.2309357818   -2.4295037418   -1.3471252372
 H    1.3041722437   -2.3503885905   -2.1988146534
 H    1.4891479394   -3.6365941239   -0.0402525880
 H    2.5445515066   -2.2427320770   -0.0543175671
 H   -0.2180545566   -2.3805369926    1.2500300701
 H    2.5374943550   -2.1853707947    2.5784548570
 H    0.9846133695   -2.2514802449    3.4143648361
 H    1.5501983749   -3.6586043965    2.5000926899
 H    0.2072739482   -0.1569618513    2.1442202823
 H    2.5875369020   -0.1362539537    0.6545025588