18

 C   -0.1393333201    1.4697163192    0.1262009168
 C   -0.0179477903   -0.0283205691   -0.0095044762
 C   -1.2295366654   -0.8449323601   -0.4355727823
 C   -1.1084129095   -2.1600742986    0.3134351323
 N   -1.8829941760   -3.1475124681    0.2067409672
 O   -0.0123829970   -2.1250914068    1.1504370370
 C    0.6790697257   -0.9040394021    1.0067794826
 C    1.3182779622   -0.6676898268   -0.3426078483
 O    1.3427761548   -1.6877644188   -1.2900391441
 H    0.7827883639    1.9105856405    0.5178153644
 H   -0.3429985009    1.9377200130   -0.8433764068
 H   -0.9538571863    1.7395424498    0.8077107344
 H   -2.1592562258   -0.3426153427   -0.1508037688
 H   -1.2682573880   -1.0394547996   -1.5094355656
 H   -1.5833482913   -3.9098863239    0.8164528351
 H    1.1195123211   -0.5571999640    1.9343760754
 H    2.1784021087    0.0026644335   -0.3599337442
 H    1.7627490043   -2.4606443455   -0.8968078090