22

 C   -0.1942877134    1.5620027543    0.0078561484
 C    0.0701844612    0.0517429974    0.0432144567
 C    0.7740235845   -0.4930989587   -1.2087302627
 C    2.1620549020    0.1016066703   -1.4402102993
 C    0.6975216514   -2.0524365688   -1.3569825078
 N   -0.1430986444   -1.8427930419   -2.5357268972
 C   -0.7856299755   -2.7542080932   -3.4448466846
 C   -0.1265646536   -0.4740077818   -2.4759266125
 O   -0.6395290299    0.3719332254   -3.1676311046
 H    0.7355981487    2.1381293307    0.0357274181
 H   -0.7339736523    1.8380498670   -0.9021081237
 H   -0.7935144394    1.8660780139    0.8714902329
 H    0.6725349775   -0.2042988082    0.9255777115
 H   -0.8851807912   -0.4757121327    0.1603624276
 H    2.8024712256   -0.0435316424   -0.5626985404
 H    2.6537074807   -0.3647035532   -2.3000320431
 H    2.0978153490    1.1742393666   -1.6407478759
 H    1.6507000482   -2.5501317175   -1.5720175397
 H    0.1910236750   -2.5752011493   -0.5367160864
 H   -1.4968128355   -3.4086221402   -2.9254130595
 H   -1.3291567896   -2.1576591493   -4.1816635102
 H   -0.0559822791   -3.3841671485   -3.9688398876