23

 C    0.0067883021    1.5920376527    0.1325326284
 C    0.0389530996    0.0642067357   -0.0173656431
 C    0.8084309686   -0.5879066623    1.1397755388
 C   -1.3830547398   -0.4946357341   -0.1118662169
 C   -2.2776794739   -0.2220932565   -1.3243439525
 C   -2.0317045629   -1.3377811225   -2.3573943465
 C   -0.9912491838   -2.2929201491   -1.7779231815
 C   -1.6554836214   -2.0068192055   -0.4017092854
 C   -2.9574241522   -1.5611650528   -1.1861462552
 H    1.0193916113    2.0075470465    0.1685928721
 H   -0.5195748477    2.0657697894   -0.7023950808
 H   -0.5045685293    1.8840238977    1.0579730825
 H    0.5660658280   -0.1659313958   -0.9518396371
 H    0.8762328881   -1.6738689689    1.0174064517
 H    1.8284685737   -0.1954254768    1.2084538815
 H    0.3131513073   -0.3915600404    2.0986288615
 H   -1.9360685079   -0.2189217414    0.7967141095
 H   -2.7318249330    0.7136002379   -1.6261495851
 H   -2.3044827365   -1.1948528920   -3.3954086254
 H   -1.1872374109   -3.3203250492   -2.0983882376
 H    0.0755470763   -2.0743239740   -1.9002157105
 H   -1.6076749611   -2.7405202123    0.4004434622
 H   -3.9985789346   -1.8407020563   -1.1218030106