16

 C   -0.3228043545    1.4212516163    0.1078839533
 C   -0.0531334750   -0.0335800324   -0.0630911111
 N    0.4043975464   -0.5248378124   -1.1851525427
 O    0.5133344925   -1.9085445134   -0.9124499761
 C    0.1013964141   -2.0653182576    0.3511127052
 N   -0.2669305314   -0.9596876327    0.9348562493
 N    0.1878848702   -3.3208302517    0.8914044068
 C   -0.8944839352   -3.8372984240    1.7159819360
 C   -0.6170906525   -4.4260375997    0.3717633431
 H    0.2819107117    1.8242841318    0.9258129605
 H   -0.0897833160    1.9601386296   -0.8115738829
 H   -1.3734308316    1.5844041322    0.3662128616
 H   -0.5763485119   -4.3579503337    2.6131778266
 H   -1.7725159122   -3.2081708395    1.8261361259
 H   -1.3110642439   -4.2025289074   -0.4333238368
 H   -0.0922773007   -5.3715215454    0.2844999413