17

 C    0.0454194331    1.3408299710    0.1133539860
 N   -0.1804616017   -0.0706333882   -0.1207569133
 C    0.5422643610   -0.6959291618   -1.1267791951
 C    1.1886825357   -0.1254526468   -2.2019303626
 N    1.7176881169   -1.1568044218   -2.9628224962
 C    1.4369041888   -2.3562200315   -2.3945470096
 C    0.7038764116   -2.1239721886   -1.2403578814
 C    0.2081722035   -3.0728378299   -0.3220902337
 C   -0.2268359853   -3.8419818333    0.4996728799
 H    1.1050439649    1.5950793106    0.2840192725
 H   -0.3018364175    1.9229538887   -0.7486757403
 H   -0.5356806808    1.6606026679    0.9814905549
 H   -0.2350553271   -0.6305193466    0.7182694125
 H    1.3093621982    0.9025362329   -2.4958780501
 H    2.2401731686   -1.0308870485   -3.8106499642
 H    1.7677196755   -3.2857673607   -2.8271943081
 H   -0.6146325953   -4.5344668332    1.2041015688