22

 C   -0.1467493086    1.3004991225   -0.0633691746
 N    0.1042303598   -0.1329103024    0.0489243329
 C    1.5223845801   -0.4882715375   -0.1379849055
 C    0.9094696544   -0.4884344664    1.2278621410
 C    1.0194616090   -2.0343585676    1.3161028981
 C    1.7789972653   -2.5538514852    2.5157958142
 C   -0.2000213724   -2.8463507869    0.7746340154
 C    0.4297270430   -2.8502855191   -0.6540455332
 C    1.6409815649   -2.0278378118   -0.1249909033
 H    0.6796181798    1.9302007482    0.3089066188
 H   -0.3205286474    1.5531102693   -1.1142279446
 H   -1.0485889518    1.5526653366    0.5036472129
 H    2.1931705227    0.2261181710   -0.6025011062
 H    1.0094854557    0.2204447424    2.0440034044
 H    1.1823597392   -2.4616183136    3.4321923575
 H    2.0380281099   -3.6110031079    2.3925285020
 H    2.7104397285   -1.9960278150    2.6691553209
 H   -0.2791098246   -3.8403302324    1.2243758714
 H   -1.1631731561   -2.3401856966    0.8532861283
 H    0.7109318458   -3.8455603015   -1.0069926968
 H   -0.1636221123   -2.3521143341   -1.4216974822
 H    2.6483806551   -2.4102584720   -0.2979701014