23

 C   -0.6904670506    1.4579657394    0.1390987331
 O   -0.6358984313    0.0871440932    0.4515017803
 C   -0.6880672779   -0.7411929321   -0.6876111140
 C   -0.6193848297   -2.1828791602   -0.2167725642
 C   -1.8863832976   -2.7978130654    0.4038634316
 C   -1.8109210493   -3.8110097961   -0.7696665143
 C   -1.4122462104   -5.2273137167   -0.3733451960
 C   -2.9764723544   -3.7967211672   -1.7477901355
 O   -0.6590757031   -3.0999112474   -1.3292162311
 H   -0.6426268547    2.0114166154    1.0801961470
 H    0.1538288689    1.7654824983   -0.4981272519
 H   -1.6247815845    1.7219653764   -0.3815999318
 H   -1.6180254785   -0.5745374324   -1.2576148188
 H    0.1551884490   -0.5375298560   -1.3695000801
 H    0.2885621204   -2.3162008406    0.3862167904
 H   -1.7746554205   -3.2215283866    1.4028507372
 H   -2.7586465276   -2.1408907367    0.3870074754
 H   -2.2452947633   -5.7428740158    0.1170770725
 H   -1.1253662055   -5.8031156106   -1.2591746477
 H   -0.5620547420   -5.2139657486    0.3146225241
 H   -3.2264869100   -2.7733263367   -2.0407097546
 H   -2.7226685665   -4.3586286203   -2.6527793681
 H   -3.8639704007   -4.2553136735   -1.2978984734