23

 C    0.0344526977    1.4797308219    0.0248943507
 C    0.0013175151   -0.0397174508    0.0032124276
 C    0.6162635000   -0.6908790806   -1.2635142953
 C    0.2681800608   -2.1915686134   -1.1018185764
 C    1.1873902968   -2.8677382838   -0.0575004283
 C    0.3031178745   -2.2228047658    1.0356038390
 C    0.6570217365   -0.7273146701    1.2296036596
 C   -0.8699007879   -2.1461400717   -0.0133267753
 C   -1.3929108819   -0.7140027676    0.0161522210
 H    1.0635595509    1.8567163139    0.0139510481
 H   -0.4804379975    1.9012077438   -0.8460871339
 H   -0.4521343937    1.8753217957    0.9238408251
 H    0.1436361940   -0.2727541294   -2.1601877354
 H    1.6946680636   -0.5164477438   -1.3506618040
 H    0.0951413272   -2.7062168258   -2.0488733561
 H    1.0838392922   -3.9570585582   -0.0717273640
 H    2.2530606332   -2.6120647913   -0.0711831653
 H    0.1608715551   -2.7649817228    1.9723683264
 H    1.7377823919   -0.5549883490    1.2865020127
 H    0.2141652715   -0.3357838149    2.1530807906
 H   -1.5832479578   -2.9695561892   -0.0137018731
 H   -1.9684711718   -0.4787981793    0.9187391453
 H   -1.9975645303   -0.4528122278   -0.8598770291