15

 N    0.0326745944    1.3955450435    0.0725850095
 C   -0.0076913697    0.0360439128    0.0191050205
 C   -1.2037264059   -0.6707784608    0.0244325679
 N   -2.4272002338    0.0755037063    0.0150043819
 C   -1.0857600325   -2.0724538539    0.0038611957
 N    0.0240776782   -2.7763362646   -0.0210935187
 C    1.2242552417   -2.1063345170   -0.0104606195
 O    2.3277643469   -2.6080594038   -0.0134882278
 N    1.1421688063   -0.6750903728    0.0052348110
 H    0.8363441976    1.8725346137   -0.3042895582
 H   -0.8685600148    1.8191341299   -0.1077634852
 H   -2.9104095305    0.0286961536    0.9072666410
 H   -3.0698059900   -0.2685514864   -0.6906029184
 H   -2.0139371006   -2.6500435752   -0.0051931879
 H    2.0400011428   -0.2120023753    0.0404665781