13

 C   -0.0426793840    1.4652732849   -0.0701823574
 O   -0.0358235726    0.0301796220   -0.0418511703
 C    0.5845658359   -0.5836179306   -1.0335788996
 C    0.7233184505   -1.9474838033   -1.2215154134
 N    0.2408861470   -2.9805501779   -0.4086745861
 N    1.4403489685   -2.0776028549   -2.3837946040
 N    1.7486584822   -1.0014863734   -2.9144094906
 O    1.1632919247    0.0919011336   -1.9928286749
 H    0.9772879707    1.8575296813   -0.0362669477
 H   -0.5422855560    1.8318162384   -0.9709533151
 H   -0.5944971045    1.7693946893    0.8185737433
 H    0.9855040908   -3.5596757424   -0.0367010421
 H   -0.4121963531   -3.5835347171   -0.8966257918