15

 C   -0.0420888087    1.5171616574    0.0432306770
 C    0.0027518703   -0.0033906674    0.0069892795
 C    1.3272683112   -0.7165696532   -0.2174761094
 C    0.6990452070   -0.7403720579    1.1594515305
 O    1.2089396515    0.0906716014    2.1519685647
 C    0.1480471902   -1.9885240868    1.6468529039
 N   -0.2450189438   -2.9889061859    2.0721755621
 C   -1.1714727973   -0.6230352814   -0.5601194825
 N   -2.1169958950   -1.0885837762   -1.0351868445
 H    0.8490068826    1.9113665437    0.5312134582
 H   -0.0981555910    1.9094141132   -0.9757524920
 H   -0.9198273959    1.8625096462    0.5950326406
 H    1.3288528872   -1.6303988481   -0.7987159366
 H    2.1999798640   -0.0820583960   -0.3233476098
 H    1.9831578077   -0.3352591889    2.5391592382