18

 C   -0.0548959219    1.5441513005    0.0002419511
 C    1.4537880954    1.9004754372    0.0620563407
 C    2.1399450545    0.6335496009    0.6302424876
 N    3.4562628777    0.3712972844    0.0478063243
 C    3.7023580670   -0.8126545082   -0.3257968617
 O    2.9477166394   -1.9380052272   -0.2569252861
 C    1.6581424344   -1.8463513845    0.3937259772
 C    1.1400603001   -0.4551251750    0.3227073786
 C   -0.0439700624    0.0309582580   -0.0397562664
 H   -0.5959756713    1.9081876592    0.8850150686
 H   -0.5575592404    1.9846147290   -0.8677196144
 H    1.8403166503    2.0662855175   -0.9477256241
 H    1.6639745383    2.7970253787    0.6493423751
 H    2.2825359626    0.7347844973    1.7178241905
 H    4.6552641260   -1.0565453374   -0.7934428887
 H    1.0117507158   -2.5708245753   -0.1076549241
 H    1.7976529822   -2.1708670427    1.4347637630
 H   -0.9099377777   -0.5607898023   -0.3195417513