20

 C   -0.3115893364    1.3605193808    0.7479230656
 C   -0.0822662282   -0.0806620925    0.2893364010
 C    0.5899484419   -0.1705236567   -1.0867149251
 O    1.8990757040    0.4283662139   -0.9531372971
 C    2.4602453665    0.9645289718   -2.0626093821
 C    3.8321493361    1.4927325522   -1.7296726066
 N    1.8518384971    0.9802713121   -3.1750708298
 C    0.7080365796   -1.5526036625   -1.5487457939
 C    0.7790690504   -2.7025852262   -1.8891633608
 H    0.6347989177    1.9021934842    0.8229467817
 H   -0.9559863460    1.9023083373    0.0468381831
 H   -0.7939280713    1.3816921905    1.7294819646
 H    0.5385968391   -0.6216021358    1.0116291175
 H   -1.0336655655   -0.6190859170    0.2242765985
 H    0.0290485601    0.4077230679   -1.8281548257
 H    4.4719476494    0.6763170775   -1.3810554590
 H    4.2924919351    1.9618388488   -2.6005095123
 H    3.7692582285    2.2234651054   -0.9177247417
 H    2.4189722560    1.4305141333   -3.8888932565
 H    0.8462476960   -3.7119193949   -2.2123168415