16

 C   -0.0625059353    1.4405096586    0.0109800325
 C    0.0011934480   -0.0109118085    0.0026836245
 C    0.0721156476   -1.2138214410   -0.0042751188
 C    0.1232591113   -2.6349448871   -0.0123233327
 N    1.1907198418   -3.3492120579   -0.0219250256
 C    0.7421990923   -4.7452129763   -0.0271722697
 C   -0.7843279152   -4.7245094058   -0.0189164779
 N   -1.5531226734   -5.7351337848   -0.0203451199
 N   -1.0730451533   -3.3619125325   -0.0099196662
 H    0.9421080233    1.8756410411    0.0039396217
 H   -0.5989615586    1.8162524505   -0.8670109791
 H   -0.5824371463    1.8068192314    0.9027943643
 H    1.1236910991   -5.2678557838   -0.9114006427
 H    1.1330707880   -5.2774802994    0.8471629658
 H   -2.5382946133   -5.4661404108   -0.0136180368
 H   -1.9927336660   -2.9544427438   -0.0027837793