15

 N   -0.1520147928    1.2904975186    0.0104897459
 C   -0.0150991702    0.0380214487    0.0031444221
 N    1.1291281186   -0.7686891076   -0.0070607159
 C    0.8322925138   -2.1187158673   -0.0125512204
 O    1.6021718671   -3.0471360609   -0.0219738218
 C   -0.6613955874   -2.1365928717   -0.0057709955
 C   -1.4481499376   -3.1680954467   -0.7620309238
 C   -1.4410902205   -3.1765433824    0.7462007614
 O   -1.0951910869   -0.7895916025    0.0037995509
 H    0.7451284136    1.7681343528    0.0085206120
 H    2.0682890836   -0.4052041032   -0.0100096753
 H   -2.3416580597   -2.8115218267   -1.2608857088
 H   -0.8770118240   -3.9243861556   -1.2885729306
 H   -0.8650859543   -3.9386475422    1.2588785036
 H   -2.3298579833   -2.8256024934    1.2573649564