18

 O    0.1092700338    1.3888692674   -0.1024360511
 C    0.0571339476   -0.0115166590   -0.0297845356
 C    0.6717803249   -0.6108067760    1.2953221987
 C   -0.5176047121   -1.3335694093    1.9762383716
 C   -1.5546816114   -0.2733427874    2.3960158131
 N   -2.0480992704    0.2860387425    1.0868956971
 C   -1.4049280286   -0.5307759080    0.0276648989
 C   -1.2208780153   -1.8831777393    0.7243911230
 O   -1.5248388317   -2.9975176581    0.4044382769
 H   -0.6730469965    1.6866587237    0.3923993980
 H    0.5756164331   -0.4049355724   -0.9085227912
 H    1.4831687790   -1.3102782429    1.0752039702
 H    1.0755904460    0.1978952922    1.9105179223
 H   -0.2668772202   -2.0620888187    2.7445542106
 H   -2.3710245088   -0.7249934619    2.9699901525
 H   -1.1114961726    0.5229274875    3.0037649091
 H   -3.0563937303    0.2171595489    1.0246184295
 H   -1.9559660161   -0.5117983891   -0.9098620935