16

 N   -0.0705075306    1.2523389395    0.1781177876
 C    0.1774443618    0.0581979919   -0.1509063862
 C   -0.6041286477   -1.1145471452    0.3795816401
 C   -0.9383472504   -2.1333505362   -0.7277484430
 O   -0.0095753060   -2.0696821567   -1.8180832752
 C    1.2563505055   -1.6168852213   -1.4663011231
 O    1.2080292832   -0.2601894227   -0.9996610766
 C    1.9552354178   -2.4876981511   -0.5051238148
 C    2.5404460190   -3.2179091117    0.2482295827
 H    0.5912830685    1.8877513640   -0.2730223615
 H    0.0085669023   -1.5985584142    1.1471497338
 H   -1.5070592382   -0.7397638709    0.8615348738
 H   -0.9601177940   -3.1506389384   -0.3196221105
 H   -1.9117512563   -1.9188406414   -1.1752248634
 H    1.8304564387   -1.5680894305   -2.3952091254
 H    3.0621670465   -3.8591130452    0.9161842216