15

 C   -0.2343616111    1.3648530843   -0.0222054331
 O    0.1357469911   -0.0080178045    0.1070618774
 C    0.7357908415   -0.5083135229   -1.0087522097
 C   -0.0382698521   -1.0282433298   -2.2342947723
 C    0.8887109502   -1.9269826997   -1.4842012410
 O    2.2516176815   -1.6617322585   -1.9235751651
 C    2.1815199664   -0.3694487787   -1.3977107567
 N    3.0588149900    0.5135733584   -1.2701702951
 H    0.6465133481    1.9927273382   -0.1952975599
 H   -0.9470169001    1.5041482213   -0.8460222104
 H   -0.7078160166    1.6478912135    0.9193837868
 H   -1.0937432157   -1.1732526034   -2.0217899804
 H    0.2082004032   -0.7193642535   -3.2452809185
 H    0.6866478292   -2.8830068524   -1.0231759701
 H    3.9610618545    0.2034610976   -1.6350410518