18

 C   -0.0696864934    1.6134100719    0.0100282404
 C    1.4407306051    1.2639626458   -0.0053933681
 C    1.1362127945    0.1674985377    1.0610873568
 C    2.0954327389   -1.0107807958    1.1562070254
 O    2.0962688452   -1.7888043441   -0.0276634250
 C    2.0742934883   -0.9981055894   -1.2029004843
 C    1.1170359465    0.1789854357   -1.0779556331
 C   -0.0115438115    0.0625527849    0.0011762340
 H   -0.4538441198    2.0821929315    0.9207682552
 H   -0.4700679692    2.0919118848   -0.8885886559
 H    2.2853197600    1.9565206223   -0.0092474263
 H    0.8470530059    0.5436603911    2.0479329600
 H    3.1129919131   -0.6486301575    1.3904157571
 H    1.7970448919   -1.6917326111    1.9605158218
 H    3.0875251258   -0.6333486256   -1.4513924283
 H    1.7614909065   -1.6704081820   -2.0090061607
 H    0.8102635363    0.5656929281   -2.0553617864
 H   -0.8503026041   -0.6347496081    0.0049517376