18

 C    0.0304363639    1.5779565599   -0.1533927436
 C    0.0836387984    0.0700001971    0.0058286286
 C    1.0548373686   -0.7516530774   -0.8804752968
 C    1.3052027956   -1.6995426014    0.3281527078
 C    2.6387997390   -2.2310091999    0.5392440183
 N    3.7033441030   -2.6544666999    0.6940640196
 C    0.7619622970   -0.5621470790    1.2828408542
 C    1.7918485056    0.2476487601    1.8993547721
 C    2.6505401387    0.9187522532    2.4069662389
 H    1.0217942408    2.0231966977   -0.0315344218
 H   -0.3458286673    1.8435036220   -1.1471857517
 H   -0.6345919118    2.0325471822    0.5883484604
 H   -0.9244055579   -0.3517634853   -0.0710736490
 H    0.6661139880   -1.2081755461   -1.7921346664
 H    1.9561191684   -0.1814297270   -1.1181795581
 H    0.5912040359   -2.5278230139    0.3223809526
 H    0.0665175904   -0.9233951802    2.0452682601
 H    3.4156426738    1.4980299178    2.8621404648