17

 O    0.0937811596    1.0471870815   -0.7904065802
 C    0.0389813924   -0.2006164426   -0.1387454368
 C    0.2777525661   -0.1953739655    1.4082846573
 N   -1.1568745446   -0.5604003897    1.6418223786
 C   -1.4223812125   -0.6301897784    0.1621412086
 C   -2.5050087737    0.4787188962    0.2971048772
 O   -3.8348106158    0.1888389697   -0.0382661424
 C   -2.0751766095    0.5227783532    1.7858944949
 N   -2.2892001716    1.2185298384    2.8151107073
 H    1.0155235945    1.3144373043   -0.8660205835
 H    0.6236765208   -0.9582631844   -0.6764881806
 H    0.9613738576   -0.9680847590    1.7698527809
 H    0.5538308879    0.7729797010    1.8347576257
 H   -1.7563789031   -1.5868227046   -0.2464159396
 H   -2.2381669687    1.3957059187   -0.2322815634
 H   -4.1287847328   -0.5574305571    0.4959343685
 H   -2.9996309268    1.9266378382    2.6239280973