24

 C    0.4574272112    0.6199400586    0.8500064811
 C   -0.1456292012    0.5961637004   -0.5571836651
 N    0.6693035858   -0.1336242000   -1.5181640592
 C    0.4845322168   -1.4625020398   -1.7584256677
 O   -0.4061310754   -2.0982023003   -1.2146454937
 C    1.4324552050   -2.1476281408   -2.7713273918
 C    2.0778095684   -3.3431628655   -2.0411086096
 C    0.5461816875   -2.6665884708   -3.9231229417
 C    2.5300824725   -1.2310110739   -3.3355542969
 H    0.5594044409   -0.3984959382    1.2342800987
 H    1.4463317908    1.0908557676    0.8521348801
 H   -0.1867019454    1.1830466590    1.5331308264
 H   -1.1207128649    0.1047714478   -0.5371200002
 H   -0.2864541571    1.6161020195   -0.9317332113
 H    1.4536835429    0.3378410867   -1.9331292564
 H    1.3048429280   -3.9750567874   -1.5996425320
 H    2.6707332739   -3.9417593638   -2.7405938094
 H    2.7421981392   -3.0062914616   -1.2376665189
 H    0.0945716304   -1.8389441186   -4.4809704504
 H    1.1423543739   -3.2607063044   -4.6238129083
 H   -0.2585917072   -3.2890529746   -3.5267944788
 H    3.1952997995   -0.8539012260   -2.5500995826
 H    3.1540108485   -1.7897758124   -4.0405996070
 H    2.1131973059   -0.3787850815   -3.8841475153