23

 C    0.2107461795    1.3925338891    0.0895167397
 O   -0.0645386450    0.0228912350   -0.0676506671
 C    0.6770252115   -0.5705050243   -1.1114211455
 C    0.2937642800   -2.0437653237   -1.2027035466
 C    1.0541207783   -2.7575795120   -2.2989531461
 C    2.4397991380   -3.3423976127   -2.0596502503
 C    1.2596492318   -4.2437970342   -2.3441045326
 C    0.7198378437   -5.1754489555   -1.2827839980
 O    1.1620856195   -4.7637757188   -3.6494975990
 H    1.2709507826    1.5735438787    0.3301546956
 H   -0.0341746249    1.9672361310   -0.8184274426
 H   -0.4048630611    1.7596014090    0.9146488584
 H    0.4692150315   -0.0602976810   -2.0685985954
 H    1.7599049122   -0.4685242418   -0.9236330175
 H    0.4841734713   -2.5064361607   -0.2284936715
 H   -0.7869195870   -2.1118867449   -1.3773670621
 H    0.9191074909   -2.3313802969   -3.2901572801
 H    3.1818619087   -3.2272428719   -2.8418494905
 H    2.8328273740   -3.3160163266   -1.0473432205
 H    0.7844241879   -4.7402229433   -0.2827131693
 H   -0.3264454074   -5.4247855956   -1.4867881475
 H    1.2925524368   -6.1113631139   -1.2700848778
 H    1.7493449470   -5.5263010347   -3.7046764736