15

 N    0.0664967349    1.5753795614   -0.0137755289
 C    0.0483943030    0.1073931466   -0.0071028624
 C    0.6179814397   -0.5007299937   -1.2138279534
 C    1.1400820808   -0.9729570247   -2.1895313886
 C    0.8282290653   -0.4130684119    1.2516797065
 N    2.1982887034    0.0676714361    1.3758935915
 C    0.0703401188   -0.0642116018    2.4634033764
 N   -0.5520506886    0.1905790522    3.4021336856
 H    0.8891085659    1.9063492635   -0.5072477449
 H   -0.7343978089    1.9312677597   -0.5237137888
 H   -0.9937924500   -0.2138922121    0.1008660562
 H    1.5726271404   -1.3939883441   -3.0639434773
 H    0.8586192961   -1.5073316779    1.1904829588
 H    2.7216664631   -0.2016546365    0.5476016545
 H    2.1969102259    1.0821690432    1.4319070649