13

 C    0.0221217882   -1.1685129997   -0.0130894493
 C   -0.0129797923    0.0323031766    0.0161908665
 C   -0.0349588804    1.4730856781    0.0359505446
 C    0.5348295737    2.1737996502    1.2484578910
 N    1.2637081992    2.2127276353   -0.0084142303
 C   -1.1117087854    2.0922680407   -0.6921201425
 C   -2.0310969203    2.6037915707   -1.2850296850
 C   -3.0671114673    3.1856903246   -1.9561626758
 N   -3.9504939596    3.6808733696   -2.5255243200
 H    0.0441600196   -2.2304937246   -0.0393976045
 H    0.0874289403    3.1154515870    1.5505096966
 H    0.8783550984    1.5316295675    2.0539602618
 H    2.0155011360    1.5263331039   -0.0090261430