21

 C   -0.1058019211    1.5155883937    0.1673061321
 C    0.3146681232    0.0627975686   -0.0869969308
 C    0.8639899594   -0.6095694130    1.1539959593
 C   -0.0749679017   -1.2422645765    2.1750010312
 C    0.8326503558   -2.1032861760    1.3658729641
 C    0.4085342011   -3.1269572090    0.3105260408
 O    1.4773637094   -4.0726677173    0.2948724535
 C    2.5209819148   -3.5149154352    1.0630194352
 O    1.9143988364   -2.7081456225    2.0414616087
 H    0.7449102843    2.1180907203    0.5034231852
 H   -0.5050916011    1.9780831271   -0.7406150807
 H   -0.8765940510    1.5707736689    0.9429357771
 H   -0.5484202487   -0.5024624289   -0.4611827999
 H    1.0670426317    0.0331268571   -0.8861526030
 H    1.7392461673   -0.1291726803    1.5855307214
 H    0.1572010784   -1.1342404034    3.2286727821
 H   -1.1362806469   -1.2658439970    1.9433519691
 H   -0.5133161944   -3.6538459098    0.5805456915
 H    0.2782396643   -2.6740798628   -0.6802957162
 H    3.0795885389   -4.3165864578    1.5538715349
 H    3.1936119399   -2.9132541661    0.4240231843