19

 C   -0.0484458046    1.5856214160    0.0011173757
 C   -0.0265588504    0.0688147600   -0.0119614462
 C    1.2576106956   -0.6621146861   -0.4969873277
 O    1.9582549464   -0.2404149948    0.7407292683
 C    0.6103778621   -0.6957401450    1.1884587842
 C    0.3632636525   -0.6403035371    2.6659463856
 O    1.3214217788   -1.4118313734    3.3687139282
 C    0.8321480180   -1.9351904277    0.2595082667
 O   -0.2505078791   -2.6575175464   -0.2534810792
 H    0.8988844403    1.9839111140    0.3710201965
 H   -0.2195147331    1.9771753432   -1.0073536700
 H   -0.8572978214    1.9615155353    0.6368960827
 H   -0.9561095324   -0.3730303363   -0.3769067766
 H    1.8043813495   -0.5629633052   -1.4350436601
 H    0.3584003500    0.4093123396    3.0006549442
 H   -0.6218799309   -1.0641958248    2.8916586508
 H    2.1850249375   -1.1450093400    3.0314271008
 H    1.6734949985   -2.5613510783    0.5711663013
 H   -0.4489879872   -3.3748589628    0.3564061349