13

 N   -0.6261247535   -0.2855356821   -1.5910672726
 C   -0.1853636583   -0.3581157594   -0.3980646317
 N   -1.0213257981   -0.1759221784    0.6997021877
 C   -2.3750073398    0.0962241085    0.7365113885
 N   -2.9368450952    0.2234511642    1.8778994521
 C   -3.1205677569    0.2303143266   -0.4994597368
 N   -3.8915259364    0.3743930615   -1.3494318182
 C    1.1782395806   -0.6266651153   -0.0246204796
 C    2.3245709297   -0.8528228812    0.2593891284
 H    0.1175367232   -0.4435531759   -2.2658418074
 H   -0.6098287791   -0.2467053035    1.6189820291
 H   -3.9296987918    0.4214824106    1.7763716743
 H    3.3402814957   -1.0533037457    0.5010568663