15

 C    0.0210497539    1.3986901684    0.1632446036
 N   -0.0228280036   -0.0108170846   -0.1727916073
 C   -1.2225715931   -0.6763690543   -0.0632324195
 C   -2.5019874577   -0.1976835836    0.0060398266
 O   -3.3459974701   -1.2802154509    0.0458189880
 C   -2.5266630947   -2.3554017678    0.0124132027
 N   -1.2573503816   -2.0564380202   -0.0512140497
 C   -3.1125906516   -3.6378228705    0.0508843711
 C   -3.6164049569   -4.7295835257    0.0839152731
 H    1.0458608405    1.7607340945    0.0604650076
 H   -0.6025398420    1.9662542363   -0.5368156823
 H   -0.3309167043    1.6166098066    1.1842378764
 H    0.7542543902   -0.5647626081    0.1554674328
 H   -2.9608085377    0.7734859922    0.0246550321
 H   -4.0562564614   -5.6961090525    0.1114898049