20

 C   -0.5930862724    1.3810165605    0.0464030195
 C    0.0968265779    0.0156943213   -0.0172094113
 C    1.0687903054   -0.0418229596   -1.2209903137
 O    2.1306255204   -0.9797589772   -1.0670414200
 C    2.5691337632   -1.1262067737    0.2766897250
 C    1.4446512251   -1.7650749268    1.1328240984
 C    0.8903034314   -0.3182879320    1.2632269278
 C    2.3638567460    0.1694366672    1.1120963203
 H    0.1305848258    2.1794819272    0.2477012985
 H   -1.0957768224    1.6192959906   -0.8975392972
 H   -1.3465639885    1.4041160732    0.8401935339
 H   -0.6741084198   -0.7564966018   -0.1399254310
 H    0.5450480002   -0.3164184574   -2.1417234716
 H    1.4906496273    0.9626278053   -1.3793190966
 H    3.5531469900   -1.5970509723    0.2324461656
 H    0.8206235740   -2.5160715796    0.6407845652
 H    1.8214577519   -2.1533094385    2.0832603423
 H    0.3363104686   -0.0467398635    2.1658157795
 H    2.9076325398    0.1095614286    2.0578683729
 H    2.5688392163    1.1347867985    0.6428634624