18

 N   -0.0843902645    1.3269478656    0.2817794228
 C    0.1058778715    0.0138229798   -0.0419364132
 O    1.2033352590   -0.4512902338   -0.2993286971
 C   -1.1725308228   -0.7940368993   -0.0607550216
 O   -2.3418535447   -0.0278404875    0.1583267406
 C   -1.4254797766   -2.0133810162   -0.9228888916
 C   -0.1909983988   -2.9039880790   -1.1123134713
 C   -0.0702910087   -3.0308592215    0.4430784265
 C   -1.3165589911   -2.1512026851    0.5951471973
 H    0.7391951189    1.8793610279    0.4571353498
 H   -0.9664829445    1.6080072156    0.6761029270
 H   -2.6140301135    0.3418331220   -0.6893308256
 H   -2.3171170437   -2.0143327336   -1.5415413816
 H   -0.4572546730   -3.8547025166   -1.5806694724
 H    0.6560867453   -2.4595849682   -1.6322582705
 H   -0.2533073928   -4.0497472309    0.7916725882
 H    0.8499300379   -2.6527343250    0.8887709487
 H   -2.1056357581   -2.2605599942    1.3295418340