18

 C    0.2273337164    1.4645612439    0.0272383672
 C    0.0853092598   -0.0471431039   -0.0035739552
 O    0.7029450159   -0.5777722110    1.1629326245
 C    0.5836695495   -1.9696137212    1.2863687612
 O    1.3361518061   -2.6741449652    0.3072268240
 C    2.4748482740   -3.2832103602    0.9092602556
 C    2.2673700143   -3.1149479172    2.3874301466
 C    1.1766921604   -2.3914415282    2.6044507858
 H    1.2829786112    1.7501952733    0.0431447976
 H   -0.2386047988    1.9085004426   -0.8577640673
 H   -0.2522544301    1.8797112405    0.9184185656
 H   -0.9781977078   -0.3380704701   -0.0260391113
 H    0.5592366045   -0.4678642231   -0.9002371479
 H   -0.4732267521   -2.2520597086    1.1443480531
 H    2.5135944501   -4.3369625118    0.6004355074
 H    3.4066588919   -2.8061888555    0.5671295521
 H    2.9398147825   -3.5249735336    3.1301595820
 H    0.7658816922   -2.0741397509    3.5528180791