18

 O    0.0239487257    0.0450898841   -0.2016105490
 C   -0.0270268268    1.2286537527   -0.0100611958
 C   -1.2896791678    2.0986343343    0.1623014806
 C   -0.6830398306    3.4474865508    0.5154435216
 C    0.1604782366    4.2465774895   -0.5393013144
 C    1.0837784895    4.5162834096    0.6684595646
 N    0.6705231207    3.1542856565    1.1692861940
 C    1.1193384746    2.2272566085    0.0747092512
 C    0.9500110194    3.1177389040   -1.2207562050
 H   -1.8956014257    2.0893018297   -0.7484792598
 H   -1.9049728589    1.7005144116    0.9746750267
 H   -1.2932226788    4.0852981351    1.1561109219
 H   -0.2549175056    5.0341844673   -1.1699467671
 H    2.1553706605    4.6498782243    0.4935178720
 H    0.7167853533    5.2800650651    1.3581862480
 H    2.1025596515    1.7929563069    0.2406770179
 H    0.4072496751    2.6089609092   -2.0223745250
 H    1.9077733372    3.4559905707   -1.6233984421