18

 C    0.6455407152    1.5212206076    0.2099280536
 C    0.8802785074    0.0829246592   -0.2418659950
 C   -0.1510109822   -0.4126919522   -1.2358077279
 O   -1.0587466433    0.2697547209   -1.6553030252
 C   -0.0234459743   -1.8631033695   -1.6948102323
 C   -0.1126924863   -2.1267863148   -3.2117601972
 C    1.3046445434   -2.7116448615   -3.0418612161
 O    1.3190140136   -2.3931675415   -1.6295006109
 H    0.6590697509    2.2049578336   -0.6428428780
 H   -0.3295133529    1.6272060212    0.6928983113
 H    1.4181759431    1.8349341216    0.9171905478
 H    1.8660526343   -0.0513170325   -0.7043388468
 H    0.8877617395   -0.6156414504    0.6069496906
 H   -0.7180169910   -2.4607960532   -1.0845103436
 H   -0.8832574978   -2.8319712374   -3.5227026202
 H   -0.1882340139   -1.2217768656   -3.8149922741
 H    1.3924311990   -3.7910581382   -3.2104350008
 H    2.1095427553   -2.1995402173   -3.5814897053