18

 C   -0.1997173783    1.6312407129    0.2656835853
 C    0.0525024489    0.1612137658    0.1032348819
 C   -1.0956218240   -0.8581274080   -0.0964795264
 C   -0.4506430165   -1.7892086120    0.9915173417
 O   -0.1730826271   -3.1252808194    0.6958100575
 C    0.7483305111   -0.7967830985    1.1197818044
 C    1.7338896654   -1.0001438680   -0.0010842577
 N    2.7180708519   -1.7676439335   -0.1649842291
 O    1.1309998137   -0.1220929100   -0.8709546896
 H    0.7209718978    2.1607120759    0.5269552994
 H   -0.5893306292    2.0563950785   -0.6654883253
 H   -0.9394642147    1.8054269676    1.0529987345
 H   -2.0870498471   -0.4874910691    0.1737408117
 H   -1.1280514597   -1.2790203197   -1.1031001976
 H   -1.0531778834   -1.7839562810    1.9041562158
 H    0.6637908081   -3.1665363295    0.2141373747
 H    1.1317597675   -0.5331101692    2.1032584814
 H    3.1142035856   -1.6665149329   -1.1018881124