17

 N    0.1387894799   -1.2238393506   -0.3642870166
 C    0.0852272370   -0.0933330704   -0.1310327775
 C    0.0450422492    1.3433305412    0.1153754807
 C   -0.4459742621    2.2375948425   -1.0652880275
 N    0.7142357803    3.1359962548   -0.8572450039
 C    1.3787564351    2.1677650306    0.0486140343
 C    1.5620919868    2.6762270585    1.4752174618
 C    0.1155184715    2.7154610456    1.9830775688
 O   -0.5404189691    1.5918791381    1.3728086015
 H   -0.4543904102    1.6987548542   -2.0195143233
 H   -1.4211918595    2.7064062129   -0.9016445315
 H    1.2356315768    3.3581608333   -1.6959650100
 H    2.2467843599    1.6472507361   -0.3637015057
 H    2.1607171336    1.9648733415    2.0532249202
 H    2.0435683673    3.6563187270    1.5041061352
 H    0.0164186928    2.5968455084    3.0639822967
 H   -0.3750759291    3.6477236764    1.6776997468