16

 O   -0.0494066014   -0.0861781904    0.0254755834
 C   -0.0463968193    1.1298863279    0.0188820548
 N   -1.1863150592    1.8809679754    0.0630464688
 C   -1.2038638194    3.3331238662    0.0561892838
 C    0.2099121555    3.8845025849   -0.0064183669
 C    1.2574806474    3.2192218152   -0.9402533426
 O    2.3309950892    3.7759275199   -0.0954385066
 C    1.3327886028    3.2285872217    0.8426814700
 C    1.2234174699    1.9526058810   -0.0390785186
 H   -2.0537785628    1.3674006131    0.1024509344
 H   -1.7772160348    3.7056388356   -0.8042592302
 H   -1.7027797683    3.7148643833    0.9579814800
 H    0.2386618068    4.9750035590   -0.0133599120
 H    1.3721674444    3.2846134036   -2.0224372091
 H    1.5382922378    3.3052755872    1.9105945471
 H    2.1121096815    1.3257755464   -0.0733186763