14

 C   -0.0042153386    1.3761601579    0.0993743056
 O    0.0582052657   -0.0399921581    0.0281980783
 C    0.6102963180   -0.5800468881   -1.0706685528
 C    1.1165244504    0.0953720148   -2.1242098107
 O    1.6613401070   -0.5138652910   -3.2055937524
 N    1.7072502395   -1.9505329240   -3.2421777708
 N    1.2522873263   -2.5821746029   -2.2943662676
 C    0.6581821561   -2.0312111092   -1.1108385657
 N    0.2188759316   -2.7912792544   -0.1899440354
 H    0.9991338299    1.8204359576    0.0712028779
 H   -0.6063532567    1.7894416227   -0.7200847238
 H   -0.4784804050    1.6092459874    1.0525035887
 H    1.1443776536    1.1720269384   -2.2229941177
 H    0.3706210321   -3.7659409412   -0.4595134236