21

 C   -0.0803202964    1.5561089670    0.0160246673
 C    0.0222167196    0.0246214273    0.0076098221
 C    0.8546940959   -0.5331555161   -1.2033886247
 C    1.9773209940   -1.3403057004   -0.5781990011
 C    1.8943567660   -1.3182716618    0.7574483414
 C    2.6230621103   -1.8580170292    1.9633366174
 C    1.7954768027   -1.3079798402    3.1755504010
 C    0.6709607964   -0.5058170818    2.5434819185
 C    0.7544971111   -0.5322039443    1.2077025373
 H    0.9154941479    2.0102624674    0.0538410804
 H   -0.5852369895    1.9203399344   -0.8849813258
 H   -0.6422719357    1.9098237648    0.8862437440
 H   -0.9938624365   -0.3858510681   -0.0293152175
 H    0.2353882805   -1.1455287352   -1.8719348171
 H    1.2425156597    0.2860973951   -1.8251453170
 H    2.7285094200   -1.8470365292   -1.1735556226
 H    2.6556682542   -2.9522853404    1.9626507615
 H    3.6626980962   -1.5167397471    1.9975695633
 H    1.4093034349   -2.1207465094    3.8044725415
 H    2.4127607882   -0.6871342649    3.8379341792
 H   -0.0793143594    0.0037677521    3.1375524711