21

 C   -0.0435320536    1.5981963954   -0.0099086609
 C   -0.0507163514    0.0711554879    0.0958217078
 C   -1.4520117588   -0.5331095378   -0.0510351680
 O   -2.0493479781   -0.1794842908   -1.3005224061
 C   -1.4670074698   -2.0479541905    0.1267318592
 C   -1.1651423945   -2.6700524410    1.5442706312
 C   -2.5620487709   -3.3038718672    1.5064036871
 O   -3.5024535592   -2.2313204334    1.3735273562
 C   -2.8548009060   -2.7137061248    0.1909306110
 H    0.9746352696    1.9958566250    0.0380763638
 H   -0.4978026985    1.9201399943   -0.9505479207
 H   -0.6187011461    2.0494678253    0.8058946306
 H    0.6001015090   -0.3616781197   -0.6795036814
 H    0.3751471788   -0.2426364123    1.0567505951
 H   -2.1175057858   -0.0975676289    0.7032725260
 H   -1.4761522730   -0.5121984335   -2.0008573951
 H   -0.8393264185   -2.5227807355   -0.6380730451
 H   -0.3480009770   -3.3943477538    1.5206517955
 H   -1.0066825712   -1.9673546948    2.3665284217
 H   -2.9153267131   -4.2165220404    1.9718330796
 H   -3.4912022218   -3.0486989835   -0.6191360176