16

 C   -0.0729728521    1.5165119702   -0.2713274692
 C   -0.0099590591    0.0077785939   -0.1190895664
 C    1.3701217968   -0.6378981752    0.0538373863
 C    0.4609814039   -0.5575671165    1.2262802948
 C   -0.9843411295   -0.8784895215   -0.8138914972
 O   -0.9690231356   -2.0919000663   -0.7189535787
 C   -2.1003661567   -0.3218827053   -1.7173645747
 O   -2.3163126398    0.8339698717   -1.9647196661
 H    0.7282607419    1.9719819738    0.3191204283
 H    0.0533274545    1.8290890767   -1.3105532693
 H   -1.0243295283    1.9242924469    0.0783328108
 H    1.5056301422   -1.6079404946   -0.4095412422
 H    2.2180437982    0.0354070438   -0.0032048803
 H    0.6634930909    0.1727698489    2.0016299444
 H   -0.0166386675   -1.4734257846    1.5536107471
 H   -2.7063045499   -1.1571877619   -2.1294561476