21

 C   -0.3683737193    1.3052069708   -0.2994846252
 O    0.3284865342    0.1042272594   -0.0160350517
 C    0.8056716598   -0.5806052748   -1.1258654561
 C   -0.1400291248   -1.2927068017   -2.0611781506
 C    0.7667341829   -2.0822510091   -1.1378283423
 C    2.0975191551   -2.5225705220   -1.7103704479
 O    2.6178713234   -1.3759396476   -2.3805327009
 C    2.1757393076   -0.1998946905   -1.6999814824
 C    2.2392928578    0.9553152813   -2.6882697190
 H    0.2938732326    2.0902333075   -0.6878136338
 H   -1.1766665587    1.1417233080   -1.0248992202
 H   -0.7994106230    1.6479334271    0.6442085902
 H   -1.1905194439   -1.2729289118   -1.7933302978
 H    0.0664126056   -1.2924182634   -3.1269373903
 H    0.3284063192   -2.6214650248   -0.3070030317
 H    2.7687159770   -2.8486413128   -0.8994753302
 H    2.0333186739   -3.3277946857   -2.4498762231
 H    2.8297196538    0.0153507858   -0.8368363796
 H    1.5104255611    0.8227475943   -3.4930174254
 H    2.0421587902    1.9079155472   -2.1887184507
 H    3.2370916057    1.0058257627   -3.1333543311