27

 C    0.0180664697    1.5257787696   -0.0143577886
 C    0.0388663822   -0.0047118450    0.1007985294
 C    0.7424433620   -0.4360505689    1.3955363399
 C   -1.3874375321   -0.5737549026   -0.0141197033
 C   -1.4774830882   -2.1012918677   -0.1075415983
 C   -2.9102832294   -2.6057983362   -0.3285513148
 C   -3.0067982606   -4.1140118356   -0.4218702849
 C   -3.1212097099   -4.9517429242    0.8279895788
 C   -4.2981875573   -4.8249426594   -0.1096942337
 H    1.0302289630    1.9421274470    0.0261811087
 H   -0.4411835033    1.8499319889   -0.9543017308
 H   -0.5561301953    1.9721949763    0.8066641550
 H    0.6214404804   -0.3968172666   -0.7461276173
 H    1.7482406225   -0.0068461409    1.4552325428
 H    0.1839415693   -0.0923033027    2.2750664078
 H    0.8432472427   -1.5226981791    1.4686465011
 H   -1.9802325091   -0.2252546459    0.8447298615
 H   -1.8648947449   -0.1393843108   -0.9033720427
 H   -0.8410845053   -2.4524863097   -0.9322428735
 H   -1.0777804008   -2.5640382162    0.8026210134
 H   -3.5508422133   -2.2553973702    0.4927680491
 H   -3.3176671567   -2.1535073448   -1.2437393255
 H   -2.4135479449   -4.5485995007   -1.2236551020
 H   -2.5963168004   -5.8997415607    0.8721421342
 H   -3.1770291047   -4.4328144145    1.7799030022
 H   -5.1407859875   -4.2228880058    0.2152678381
 H   -4.5752556681   -5.6858710935   -0.7082665766