19

 C   -0.0054926580    1.5500282707    0.3122199696
 C    1.2580534430    0.7676253370   -0.0311009620
 C    2.2798686111    0.3920434849    1.0378019547
 C    1.6698708575   -0.1105871202    2.3806092410
 C    0.6004301409   -1.1674154451    2.1701116674
 C   -0.1982105777   -0.9897407902    1.1279983240
 C   -1.1724112249   -1.6568264590    0.1842502609
 O   -0.8780311245   -0.6387464898   -0.8256080688
 C   -0.0621354078    0.0689701288    0.1147764476
 H   -0.1570656895    1.9654840876    1.3038813483
 H   -0.4142068588    2.1493257030   -0.4952484752
 H    1.6512527904    0.9289328721   -1.0302348867
 H    2.9170640678   -0.4032479428    0.6308175777
 H    2.9366865986    1.2438191471    1.2497839271
 H    2.4783363793   -0.5096820263    3.0013346468
 H    1.2640885823    0.7433221438    2.9389868578
 H    0.5531274124   -2.0330222383    2.8228252846
 H   -0.9123727503   -2.6644495973   -0.1586841326
 H   -2.2305002118   -1.6300361763    0.4731743979