17

 C    0.1844632008    1.4170252090   -0.2908751342
 N   -0.1385129232    0.0301381857    0.0642805905
 C    0.5539800630   -0.4660876293    1.1842532968
 C    2.0208588258   -0.9465498796    1.0731855079
 O    3.0768402556   -0.4919902709    1.8417898654
 C    0.9996293326   -1.8918687379    1.5727207949
 O    0.7755203085   -1.5926333252    2.9797465345
 C    0.2261823786   -0.3419035288    2.6409088722
 N   -0.3901772027    0.4849532327    3.3494669417
 H    1.2499010953    1.4867853893   -0.5295179255
 H   -0.3811733099    1.6939675454   -1.1847510121
 H   -0.0364473913    2.1406749964    0.5061371529
 H   -1.1397589286   -0.0760998889    0.1889680548
 H    2.3015097843   -1.0715016927    0.0311818813
 H    2.8865491063   -0.7321112572    2.7579884736
 H    0.7062908670   -2.8723095792    1.2221007018
 H   -0.4598601321    0.1775262313    4.3207542035