17

 C    0.0232578547    1.5304896474   -0.0516285471
 C   -0.1350423052    0.0404442949    0.2481374087
 C   -1.5578142948   -0.4588345153    0.0915567865
 O   -2.5030336610    0.2950746378   -0.0213113417
 C   -1.8134659084   -1.9703087978    0.0602071722
 C   -1.2884115760   -2.6816480627    1.3154827348
 O   -3.1849096248   -2.2150345959   -0.0970582390
 H    1.0553914369    1.8490150456    0.1167995644
 H   -0.2399937603    1.7516895381   -1.0896130966
 H   -0.6346300316    2.1254187384    0.5856180432
 H    0.5215894336   -0.5718540051   -0.3829932707
 H    0.1733793179   -0.1811308195    1.2795150224
 H   -1.2584872380   -2.3577427238   -0.8139673123
 H   -1.7448975375   -2.2580324493    2.2153464459
 H   -1.5615329594   -3.7382366962    1.2619450313
 H   -0.1999451757   -2.6107616913    1.3987938861
 H   -3.5919033005   -1.3359073153   -0.1684291381