17

 C    0.0770483149    1.5016676134    0.0442759523
 C   -0.0695747542    0.0257439754    0.0359456955
 C   -1.1088484009   -0.8423482620   -0.0400273698
 O   -2.4642709042   -0.7608804286   -0.1277687620
 C   -2.9220963355   -2.1035935338   -0.4327925018
 C   -1.7848409596   -3.1053880957   -0.0503062007
 C   -0.6109306883   -2.1730249592   -0.0026437176
 C    0.7338269876   -2.0593677650    0.1022566576
 O    1.0816704051   -0.7383126292    0.1263406224
 H    0.7100660623    1.8524174964   -0.7793199160
 H   -0.9079461354    1.9624071600   -0.0631691360
 H    0.5224070578    1.8651160303    0.9782063673
 H   -3.8506047690   -2.2678338250    0.1179472145
 H   -3.1347979192   -2.1554439742   -1.5075453862
 H   -1.9759922554   -3.5711117686    0.9233381997
 H   -1.7030986524   -3.9079116978   -0.7882230121
 H    1.5533862963   -2.7558610163    0.1637806629