15

 O   -0.1823770118    1.2872397637   -0.0719811700
 C   -0.0067701258   -0.0708774232   -0.0673095295
 C    0.9870093282   -0.9013114903   -0.8786724814
 C    0.0974891767   -2.1262542410   -0.4875914060
 C    0.3019496581   -2.2396890233    1.0443350069
 O    0.6648447002   -3.1226175258    1.7704467257
 C   -0.3373818026   -0.9067439394    1.2345521346
 C   -1.0659882754   -1.0969418202   -0.1351335391
 O   -2.3842769348   -1.0219262254   -0.4569926969
 H    0.5276508415    1.6936576862    0.4383981479
 H    0.9258807696   -0.6683691862   -1.9452140502
 H    2.0320778784   -0.9293984111   -0.5502163540
 H    0.0215795886   -3.0006277709   -1.1276141877
 H   -0.7024553173   -0.3940928612    2.1146248714
 H   -2.8703106936   -1.6930188619    0.0368745984