17

 C   -0.0521380885    1.5752252939   -0.0307521251
 C    0.0668056235    0.0394412184    0.0163750445
 C    0.7081799312   -0.4788349969   -1.1992663253
 C    1.2405032274   -0.8828017323   -2.1979499249
 N    0.7426590743   -0.4327801597    1.2243563861
 C    2.1404690941   -0.0959329913    1.4456994712
 C    0.0923758931   -1.2424821115    2.1120227885
 O    0.5650350487   -1.6940554806    3.1324281838
 H    0.9309509595    2.0461247586   -0.1031722252
 H   -0.6341164620    1.8753084660   -0.9056846672
 H   -0.5530309135    1.9360986428    0.8716813177
 H   -0.9491619125   -0.3724497009    0.0627323468
 H    1.7031529218   -1.2540315589   -3.0792410033
 H    2.2681930453    0.9706606059    1.6606935806
 H    2.4814588610   -0.6731256084    2.3049064208
 H    2.7361776064   -0.3529859466    0.5642813582
 H   -0.9493742698   -1.4456144187    1.7931382228