18

 C    0.0720934861    1.4160391493    0.2201659294
 C    0.0472815883   -0.0277774028    0.0595777902
 C    0.0074135273   -1.2270142872   -0.0742654056
 C   -0.0407358086   -2.6668190520   -0.2571353417
 O   -1.0844697856   -3.2392853365   -0.4941708940
 C    1.2971903823   -3.3957600524   -0.1291854229
 C    1.8139161246   -3.2893775563    1.3198679288
 C    1.1818675579   -4.8474080495   -0.5958677409
 H    1.0854251375    1.8158645984    0.1100871399
 H   -0.5703062909    1.9036968697   -0.5207719587
 H   -0.2948422558    1.6988872422    1.2130535951
 H    2.0049855409   -2.8536320821   -0.7720717751
 H    2.8049027822   -3.7457652147    1.4008028928
 H    1.8895605212   -2.2477722668    1.6431536018
 H    1.1430493613   -3.8140587613    2.0084514455
 H    0.8314328199   -4.9061989932   -1.6294996763
 H    2.1538509457   -5.3456338697   -0.5295171330
 H    0.4672181558   -5.3973002549    0.0224699345