16

 O   -0.0149320068    1.4434569301    0.0591687206
 C    0.0198870814    0.0231926830   -0.0087419243
 C   -1.4220408154   -0.4727678912    0.0796262463
 C   -1.5034844427   -1.9783113821   -0.1998103880
 C   -0.8709078769   -2.3632029325   -1.5329347339
 O   -1.2509239433   -3.3166411061   -2.1814597547
 C    0.2653032617   -1.5223919083   -1.9769065415
 C    0.6762414604   -0.4550253231   -1.2827549538
 H    0.8876020903    1.7693206884    0.1355806326
 H    0.5902839621   -0.3818527450    0.8473387866
 H   -1.8350187942   -0.2316222446    1.0631589332
 H   -2.0069022690    0.0826367487   -0.6625018106
 H   -0.9641138093   -2.5321582419    0.5826724170
 H   -2.5329710755   -2.3441123495   -0.1909603614
 H    0.7505554445   -1.8334637786   -2.8969808191
 H    1.5306691127    0.1258508224   -1.6279455990