19

 C    0.2610721442    1.4592603407    0.5057477284
 C   -0.0417504198    0.0165775436    0.2336049286
 C   -0.9348257447   -0.8155164759    1.0581014616
 N    0.5181405055   -1.1218960255    1.0843552000
 C    0.8397571048   -1.8548445451   -0.2038738781
 C    0.3074826286   -3.2736357468   -0.2815068637
 O    0.8343774125   -4.0628281832    0.7698942246
 C    0.2643476211   -0.7132287288   -1.0807807525
 H    1.2712315105    1.7217760353    0.1733479017
 H   -0.4460872308    2.1099203674   -0.0225086759
 H    0.1880095380    1.6758181301    1.5753623459
 H   -1.2782737856   -0.4042228168    2.0025831742
 H   -1.6334710259   -1.5063952899    0.5924746073
 H    1.9304833849   -1.8981062014   -0.2694785548
 H   -0.7947615864   -3.2845902723   -0.2766238819
 H    0.6255974423   -3.7389524471   -1.2218975722
 H    0.7613359548   -3.5346266483    1.5740561058
 H   -0.6023138700   -0.9413495250   -1.7095133192
 H    1.0220688361   -0.2236880109   -1.6955085497