13

 N   -0.0969860269    1.1903540355   -0.2842137922
 C   -0.0555975785   -0.0260981112    0.0156283903
 O    0.9801123239   -0.8414609523    0.4304548583
 C    0.1157242161   -2.0304178584    0.4372168669
 C   -1.0522984786   -1.1388115484    0.0274554691
 C   -2.4782630294   -1.0732487198    0.4149954054
 N   -2.0808654408   -1.4158985672   -0.9595175416
 H    0.8136913174    1.6414597297   -0.1929966557
 H    0.4396600594   -2.7569536009   -0.3112816909
 H    0.0768007024   -2.4793217215    1.4322294464
 H   -2.9178858121   -1.8907985379    0.9794441641
 H   -2.8887162701   -0.0879097162    0.6177118803
 H   -2.1808793029   -0.6077942414   -1.5714385203