20

 C    0.0185544505    1.5446792017   -0.0335362601
 C    0.0211780004    0.0189501614    0.0435170957
 O    0.6902314524   -0.4373534397    1.2204681793
 C   -1.3916226151   -0.5739387563   -0.0483902618
 C   -1.3865258812   -2.1035513594   -0.1253673996
 C   -2.7971493825   -2.7507612791   -0.0621052139
 O   -2.8739337861   -3.5641749961   -1.2590159686
 C   -1.7148997471   -3.3307793705   -1.9200200408
 N   -0.8379386829   -2.5683793084   -1.4192670562
 H    1.0368879869    1.9298087154    0.0671437013
 H   -0.3927634097    1.8941031879   -0.9859117313
 H   -0.5920274770    1.9766195737    0.7705502890
 H    0.6149729778   -0.3878470018   -0.7814649588
 H    0.2668697855   -0.0155130183    1.9768985927
 H   -1.9683696766   -0.2571382101    0.8336779082
 H   -1.9084040476   -0.1713603116   -0.9285609886
 H   -0.7385038325   -2.4767359838    0.6744036535
 H   -2.9464685204   -3.4026866557    0.8018932697
 H   -3.6084488165   -2.0156922374   -0.0992852554
 H   -1.6345174782   -3.8467762218   -2.8707255142