14

 C    0.5504889767    1.6871457227   -0.3741181969
 C   -0.0104498931    0.3804941300    0.1835158167
 C    0.1570203989   -0.7775114365   -0.7910669414
 O   -0.1359695402   -1.9265954394   -0.5593303695
 C    0.5646146239    0.0676477656    1.5900475030
 N    0.1292717705   -1.1030465676    2.1290605465
 O    1.2935958955    0.8528312170    2.1600338755
 H    1.6335379609    1.6204059601   -0.5093639667
 H    0.0917409348    1.9229494117   -1.3394796604
 H    0.3606901378    2.5095675158    0.3159058261
 H   -1.0980376251    0.4678507752    0.3265760203
 H    0.5726131637   -0.4935519098   -1.7820112551
 H   -0.2467317190   -1.8084483208    1.5097820291
 H    0.5708899646   -1.3962054242    2.9867216928