19

 C    0.1977519087    1.4907952071    0.0064002683
 O    1.1892227019    0.4722616632   -0.1355940481
 C   -0.1773359441    0.0721844310    0.0244148615
 C   -0.5166385187   -0.6568476534    1.2968893732
 C   -2.0561416047   -0.7827537279    1.5645442794
 C   -2.1383141693   -2.3232267238    1.5375149360
 C   -0.9564028362   -2.7731061244    2.4237993913
 C   -0.2224205237   -2.1774146359    1.2053405354
 O   -1.3249556407   -2.6473241038    0.3640097844
 H    0.2327272613    2.0485233809    0.9421177231
 H    0.0118755011    2.0920262643   -0.8826637170
 H   -0.6252322770   -0.3539608521   -0.8739079551
 H    0.0221159507   -0.1931696167    2.1285463401
 H   -2.3664134556   -0.3484572844    2.5181899480
 H   -2.6559818718   -0.3374706740    0.7668340623
 H   -3.1172836927   -2.8016604720    1.5472332413
 H   -0.8195854037   -2.3182946044    3.4086375402
 H   -0.8650578790   -3.8586835227    2.4639914968
 H    0.7645901735   -2.4950747913    0.8712035889