18

 C    0.2412933254    1.3711750133    0.0972777236
 O    0.3467392893   -0.0567532590    0.0696787704
 C    0.4893239457   -0.5986321380   -1.1584551062
 O    0.5268515618    0.0627791460   -2.1703310537
 C    0.5923117916   -2.0883658036   -1.1022439663
 C    0.5271330586   -2.7640604869    0.2520339783
 C   -0.0061267459   -2.7944581233   -2.3125278197
 C    1.4783648596   -2.6871296439   -2.1875367747
 H    1.1364045988    1.8325547415   -0.3274161522
 H   -0.6278938093    1.7051089649   -0.4749787960
 H    0.1339226739    1.6403774035    1.1482307393
 H   -0.4190388231   -2.5532422885    0.7589105017
 H    0.6152667443   -3.8485700744    0.1364916509
 H    1.3358556484   -2.4263742615    0.9066690851
 H   -0.4789031984   -3.7525266769   -2.1267014003
 H   -0.4924340871   -2.1672969849   -3.0497612886
 H    1.9858868952   -1.9881107338   -2.8410908198
 H    2.0455754112   -3.5700098746   -1.9141526918