15

 C   -0.0307589775    1.4876671419   -0.0198227459
 C   -0.0026454104   -0.0073666100   -0.0339102921
 N   -0.0213792753   -0.6580785726   -1.1638553683
 C    0.0045795188   -2.0178686183   -1.1744632529
 O   -0.0172592034   -2.6222373079   -2.3887258974
 C    0.0505220589   -2.7476510999   -0.0286514385
 N    0.0700294474   -2.0612957157    1.1606638008
 C    0.0460588050   -0.6794731283    1.2783058451
 O    0.0663233307   -0.1123264957    2.3617347728
 H    0.8515024385    1.8787199643    0.4987662443
 H   -0.0678165899    1.8758321648   -1.0380004002
 H   -0.8953927404    1.8453811775    0.5499301515
 H   -0.0490932589   -1.9077881624   -3.0378634872
 H    0.0724859772   -3.8273514079    0.0036661469
 H    0.1042599394   -2.5653504697    2.0359708311