12

 N    0.0974481649    1.3827745595    0.0946715402
 C    0.0030148055    0.0125576998    0.0081342290
 N   -1.1049200325   -0.6466260876    0.0513480766
 O   -0.7260790022   -2.0202278185    0.0493369530
 C    0.6260397430   -2.1497711228   -0.0456964548
 O    1.2265173905   -3.1737950623   -0.0936467085
 N    1.1179739809   -0.8114026829   -0.0589409860
 C    2.4644251636   -0.4125712724    0.0284515808
 O    3.3978792739   -1.1553575605   -0.0389632379
 H    0.6523952795    1.8184135776   -0.6318260282
 H   -0.8198881882    1.8079739136    0.1587493991
 H    2.5435177711    0.6779738564    0.1787317968