16

 N   -0.0134537309    1.3616062479    0.0652216052
 C   -0.0157454747   -0.0073707525    0.0294380954
 C   -1.0487090399   -0.9061069516    0.1245374421
 C   -0.3758384014   -2.1583918543    0.0980836426
 N    0.9249309903   -2.0408610110   -0.0107649820
 O    1.1555936552   -0.6415462904   -0.0482831733
 N   -2.4058305888   -0.5217556226    0.2021530084
 C   -3.4338303920   -1.4592211340   -0.2546520940
 C   -3.2699894371   -1.1753319624    1.1954453563
 H    0.7322993817    1.8026820402   -0.4540878151
 H   -0.9269368468    1.7510728674   -0.1250964418
 H   -0.7943267467   -3.1550392000    0.1453104979
 H   -4.2531379208   -1.0137520968   -0.8119951930
 H   -3.1114053846   -2.4307289648   -0.6210508801
 H   -2.8234711633   -1.9490732124    1.8149348958
 H   -3.9674240602   -0.5199659527    1.7091631155