15

 O   -0.0199043460    0.0434465187   -0.2272559983
 C    0.0018884253    1.2099002404    0.0132112081
 O   -1.1326032198    1.9761421577    0.1867138079
 C   -0.7046589723    3.2757268029    0.5497423046
 C    0.1218394951    4.0598856305   -0.5350470312
 C    0.9878138269    4.5975085216    0.6232580628
 C    0.7050111445    3.1923333423    1.2085694417
 C    1.1609419316    2.2055557263    0.1135485950
 O    0.9449881610    3.0193160626   -1.0780364978
 H   -1.4959222889    3.8107670777    1.0681200693
 H   -0.3071752807    4.6612269685   -1.3327045778
 H    2.0144054039    4.8689519892    0.3758163228
 H    0.5009194467    5.3817177772    1.2071073914
 H    0.8551979256    2.9110370559    2.2488286337
 H    2.1589049372    1.7756705485    0.1250821279