19

 C   -0.3579479364    1.4075539383    0.0203978510
 C    0.1061648635   -0.0336527905   -0.0319283225
 O    1.3217187213   -0.1938013562   -0.8122120334
 C    2.0253177461   -0.7679976289    0.3031091137
 C    0.7895188158   -0.6476332562    1.2116359168
 C    0.8859469435    0.0314991561    2.6214326764
 C    0.2760749365   -1.2423587089    3.2221944858
 O   -0.9870822564   -1.4464102351    2.5767765830
 C    0.2007555629   -1.8831116734    1.9010426248
 H    0.4159939265    2.0571069679    0.4408613290
 H   -0.5893415765    1.7612479264   -0.9892092681
 H   -1.2622567653    1.4941497437    0.6316611336
 H   -0.6936785788   -0.6723106908   -0.4318780863
 H    2.3637600371   -1.7931820707    0.0980526568
 H    2.8932653763   -0.1646799069    0.6009005871
 H    1.9252026395    0.1966460345    2.9199845391
 H    0.3097858065    0.9458849518    2.7803884692
 H    0.4018541716   -1.6676214342    4.2106510725
 H    0.2509312062   -2.9239096670    1.5995105917