18

 O    0.0459557299   -0.0307891368   -0.0845858142
 C   -0.0117566672    1.1713885756   -0.0024755127
 C   -1.3077056850    1.9633555487    0.0241119615
 C   -1.3082357239    3.0543945246   -1.0697849967
 C   -0.0168200109    3.8831086745   -1.0119145229
 N    1.2047920893    3.0728988480   -1.0650837422
 C    1.2673640947    2.0496129222   -0.0021916950
 C    1.4613559393    2.6523878661    1.3153207634
 C    1.5836396263    3.1129987407    2.4190810969
 H   -2.1453096522    1.2700362471   -0.0814480999
 H   -1.3799842018    2.4439753494    1.0085030864
 H   -1.3886306761    2.5775579825   -2.0555508547
 H   -2.1877558397    3.6993382241   -0.9578957539
 H    0.0189534903    4.5993579318   -1.8388162512
 H    0.0139924633    4.4646879459   -0.0827527756
 H    1.2591018804    2.5960157783   -1.9609838735
 H    2.1064508165    1.3806047525   -0.2192667912
 H    1.7130576469    3.5233291148    3.3902668953