16

 O    0.0639827905   -0.0110879145    0.0488011118
 C    0.0001647477    1.1723432063   -0.0517620874
 O    1.1189581117    1.9532543210    0.1406541069
 C    0.9785159420    3.3102211425    0.1198800137
 N   -0.1272161476    3.9265995199    0.2370158151
 C    0.1479101246    5.3656220860    0.0831256948
 C    1.6691167060    5.5332820327   -0.0016121376
 C    2.4641324350    5.0345576256    1.1674921034
 C    2.2183237716    4.1162305854   -0.0165910234
 H   -0.8857499187    1.7694474212   -0.3032142796
 H   -0.3491653218    5.7248708546   -0.8259108880
 H   -0.2907672952    5.9134773757    0.9247147499
 H    2.0880500142    6.3065437789   -0.6333937756
 H    3.4745764110    5.4113115343    1.2794053624
 H    1.9553535390    4.8139771953    2.1007248674
 H    3.0406026100    3.7639306750   -0.6255235237