17

 C   -0.0982463829    1.5632552921   -0.0304869398
 N    0.1677663991    0.1331466157    0.0366863231
 C    1.2446706406   -0.6840574807   -0.4103673782
 C    2.7177596068   -0.3614599689    0.0578319970
 C    2.9708318531    0.7927438532    0.9576104304
 O    2.5241704078    2.0980019603    0.7347371695
 C    2.2272433338   -0.3797903452    1.5284488504
 C    0.7732678953   -0.7072361304    1.0134465696
 H    0.6364693745    2.0943024858   -0.6352373286
 H   -1.0950636268    1.7085172780   -0.4639036242
 H   -0.0947369728    2.0081690285    0.9681068121
 H    1.0810726036   -1.4080814710   -1.2027047018
 H    3.5382856926   -0.9269284453   -0.3688098611
 H    4.0077573465    0.7700537531    1.3068286786
 H    2.4154510591    2.5210708757    1.5932631730
 H    2.6426837629   -0.9521423808    2.3504407641
 H    0.1745072368   -1.4520560602    1.5292408059