16

 O   -0.1270912435    1.4369066771   -0.2535644788
 C    0.0344464651    0.0652915922    0.0824950826
 C   -1.3433429080   -0.5663833505    0.0044331126
 C   -2.0354639798   -0.7861466111   -1.3952358984
 C   -1.0870742894   -2.0185544733   -1.5956897811
 C   -1.5041344502   -2.1289602642   -0.0865693136
 C   -2.9078921303   -1.7876227226   -0.6224878929
 O   -4.0434684855   -2.1266474612   -0.5055159330
 H    0.7164085391    1.8806112984   -0.1243829231
 H    0.7597943102   -0.4218805846   -0.5823248016
 H    0.4102428031   -0.0515723339    1.1115952219
 H   -1.9859796280   -0.0813946439    0.7449443309
 H   -2.3171203719   -0.0283173684   -2.1214099986
 H   -1.4344783724   -2.8080372590   -2.2644339303
 H   -0.0410167924   -1.7829204368   -1.7822512402
 H   -1.2018967460   -2.8780813782    0.6423786236