19

 C   -0.0631560313    1.5917635277   -0.0791549523
 C    0.0193585544    0.0603420150   -0.0082976783
 C    0.7230584374   -0.5002503990   -1.2460726373
 O   -0.0290605527   -0.1402496903   -2.3965265496
 C    0.7206330455   -0.4480920282    1.2609614493
 C   -0.0108248001   -0.1216283688    2.5577160703
 O    0.6955539169   -0.7523470888    3.6175055407
 H    0.9349673287    2.0384827070    0.0115338581
 H   -0.4868696490    1.9026596567   -1.0365624928
 H   -0.6864554910    2.0046060545    0.7191592556
 H   -1.0038464375   -0.3416435825   -0.0259756644
 H    1.7482422677   -0.0964762820   -1.2996125630
 H    0.8054368964   -1.5952785410   -1.1575169134
 H    0.4547350993   -0.4289393686   -3.1752606602
 H    0.8295831044   -1.5387737352    1.2137133641
 H    1.7364508646   -0.0357634852    1.3207493236
 H   -0.0576060926    0.9668865455    2.7112694541
 H   -1.0493569899   -0.4882834435    2.4981912867
 H    0.2656994388   -0.5181312132    4.4450333988