21

 C   -0.0851058894    1.4634879368    0.1575045510
 C    0.1131678305   -0.0514735250    0.0456811348
 C    0.7875978659   -0.5129270176   -1.2714929535
 C    2.2287876643   -0.0062182673   -1.3952424239
 C    0.6720639356   -2.0198395997   -1.3995107314
 C   -0.6839387417   -2.6378041453   -1.6269974001
 N    1.7445511559   -2.7072036528   -1.3010048815
 O    1.4896272285   -4.0869820772   -1.4111737107
 H    0.8665172411    2.0025343942    0.1687993261
 H   -0.6759350760    1.8478108552   -0.6818743810
 H   -0.6165435453    1.7171211811    1.0801206224
 H    0.7180045586   -0.4131461723    0.8870169101
 H   -0.8633263084   -0.5410248589    0.1401464607
 H    0.1980712860   -0.0881838028   -2.0992591084
 H    2.6888487689   -0.3595699586   -2.3212114601
 H    2.2562090252    1.0866441430   -1.3951597373
 H    2.8439500531   -0.3689069008   -0.5672321785
 H   -0.6504872935   -3.3017959379   -2.4960864120
 H   -0.9770378154   -3.2600557106   -0.7747969986
 H   -1.4501862943   -1.8766760220   -1.7867623983
 H    2.3749275904   -4.4590787015   -1.3435348701