16

 O    0.1917142364    1.3622167588    0.0670868606
 C    0.1489645705    0.0204500657    0.0726654214
 N    0.2725223093   -0.6706648410   -1.0436012131
 O    0.1762165406   -2.0294377002   -0.6609854907
 C    0.0097649543   -2.0526631473    0.6617150377
 C   -0.0176199556   -0.8159222485    1.2063807969
 C   -0.2542133611   -0.8666596030    2.6858509511
 C   -0.0747728971   -2.4008622862    2.9800872471
 C   -0.1969275082   -3.1749796024    1.6217382159
 H    0.3192410968    1.6450842177   -0.8487905510
 H    0.4466611115   -0.2635181572    3.2706178443
 H   -1.2617247598   -0.5214535352    2.9482147392
 H    0.9242272799   -2.5685876359    3.3914837524
 H   -0.7918166942   -2.7629605783    3.7199713143
 H   -1.1859858657   -3.6312536828    1.4907042357
 H    0.5407389524   -3.9774993943    1.5290447882