17

 C    0.0244913587    1.5128026518   -0.0066123234
 C    1.5277584984    1.8762716097    0.0012316414
 O    2.0436742602    1.6900993535    1.3439004876
 C    2.1592326980    0.2732191303    1.0563464914
 C    0.7719612701   -0.3847148689    1.2423143954
 N    0.0051485555    0.0206070760    0.0274509429
 C    1.0026557288   -0.2832040839   -1.0311319568
 C    2.1691329529    0.5401127239   -0.4783774832
 H   -0.4957382271    1.9351785590    0.8556894304
 H   -0.4726508074    1.8466948682   -0.9238891477
 H    1.8009596250    2.8436740898   -0.4259213466
 H    2.9983347612   -0.1959679796    1.5747452566
 H    0.8370227441   -1.4780175563    1.2644005267
 H    0.2813642221   -0.0375705731    2.1541309437
 H    1.2018815077   -1.3577677348   -1.0784461926
 H    0.6454170988    0.0548589675   -2.0082246354
 H    3.1251258331    0.5769481669   -0.9945606505