17

 C    0.0600132104   -1.2016963591    0.0717482104
 C   -0.0226153923    0.0002432596    0.0217010425
 C   -0.0452016094    1.4165923369   -0.0342002602
 C   -1.1793364286    2.1382319799    0.0285691219
 C   -1.1603895429    3.6111433314   -0.0031891536
 C   -0.2853049732    4.3551332004    1.0225299039
 C    0.1675698862    4.2195419572   -0.3967739237
 O    1.2034532548    3.3836083325   -0.8078101803
 C    1.2957306871    2.1213108951   -0.1634217109
 H    0.1104293327   -2.2612943600    0.1146301408
 H   -2.1373655106    1.6322972924    0.0899829275
 H   -2.0741273199    4.1013383706   -0.3198841311
 H   -0.6204875761    5.3317428631    1.3546532254
 H    0.1766168317    3.7509239301    1.7943861308
 H    0.1602266624    5.1045672861   -1.0228625260
 H    1.7699363328    2.2263218817    0.8258275172
 H    1.9719201651    1.5244697621   -0.7809524947