15

 O    0.3471270079    1.3143792611    0.3896166004
 C    0.0882075883   -0.0273027214    0.0849112090
 C   -1.4340303317   -0.4927990333    0.0364179729
 N   -1.1795068657   -0.8824735272   -1.3687698582
 C   -1.4457248761   -1.5186938272   -2.5241996317
 N   -0.3535716722   -1.5192876167   -3.2898324661
 C    0.6389797507   -0.9059457697   -2.5801953887
 O    1.8824261909   -0.7600990061   -3.0811359271
 C    0.1402005630   -0.4869409142   -1.3651822293
 H    0.0702278709    1.8467749809   -0.3647304404
 H    0.6829091368   -0.6168346344    0.7875273256
 H   -1.7024557926   -1.3321133671    0.6822308802
 H   -2.1547269432    0.3210595915    0.1452573669
 H   -2.4006015231   -1.9400355303   -2.7947311011
 H    1.8662114662   -1.1592669259   -3.9599414925