19

 C   -0.1692703913    1.4292901057   -0.1205547421
 C    0.0025729526   -0.0615520909    0.0511353967
 C   -1.2543537007   -0.9357686464    0.3546365096
 C   -0.4984293481   -1.6330817901    1.5283064235
 C    0.7469957252   -0.7711083867    1.2263123616
 O    1.6676764025   -1.4182706928    0.3236540795
 C    1.0893176597   -0.7812523952   -0.8182415618
 C    0.5888509561   -1.7113609318   -1.8939161991
 O    0.5027365770   -2.9072713175   -1.7971078559
 H    0.7961695069    1.9463613965   -0.1387248990
 H   -0.6916898712    1.6616705013   -1.0565048553
 H   -0.7628083336    1.8515165450    0.6974999706
 H   -2.0992548670   -0.3270959963    0.6863637599
 H   -1.6007457896   -1.5896449578   -0.4482277263
 H   -0.9411605968   -1.4551663484    2.5114154977
 H   -0.3111329622   -2.7007806699    1.4033127464
 H    1.2618974356   -0.2591994003    2.0439048699
 H    1.7874651050   -0.0652803144   -1.2828527435
 H    0.2671045499   -1.1732069401   -2.8184837025