20

 C   -0.2448884470    1.5367727452    1.1483063553
 C   -0.0959381647    0.0868232604    0.7191929810
 C    0.9358460706   -0.3520161661   -0.3865314371
 C    2.2572881718    0.0908228343    0.2516751277
 C    2.1308346723   -0.2989919908    1.5247881888
 C    0.7425246010   -0.9478429132    1.5595813735
 C    0.8306563495   -1.8045482959    0.2321780617
 C   -0.3319177690   -2.7086989211   -0.1601253477
 H    0.7190066885    1.9939945673    1.3841301022
 H   -0.7175228309    2.1268740788    0.3547486946
 H   -0.8846059448    1.6124195072    2.0350837713
 H   -1.0877357932   -0.3169713980    0.4970394035
 H    0.7715529057   -0.1566931862   -1.4473506521
 H    3.0778119266    0.5880470814   -0.2458927960
 H    2.8197185803   -0.2075556500    2.3525222841
 H    0.3794312417   -1.3652282226    2.5000241876
 H    1.7650900415   -2.3675714583    0.1526244076
 H   -1.3095967661   -2.2232644518   -0.1083793409
 H   -0.1979368326   -3.0725714735   -1.1852464482
 H   -0.3645369912   -3.5871506070    0.4944617030