21

 C   -0.1253532103    1.5812798198    0.0418511195
 C    0.0241425099    0.0557457084   -0.0045786706
 C    0.8250796056   -0.4589200435   -1.2450451966
 C    2.1572420446   -0.8946431846   -0.6515225839
 O    2.7708327600    0.2765812067   -0.0108213105
 C    2.2983756291   -0.2001858236    1.2510571830
 C    0.8121634941   -0.5172804652    1.1802600019
 C    1.8504757532   -1.5302361487    0.7317428357
 C    2.0374721520   -2.9479734768    1.1757889099
 H    0.8570489639    2.0590330321    0.0087999941
 H   -0.7140139078    1.9455746297   -0.8072343739
 H   -0.6337366321    1.8993873371    0.9586787687
 H   -0.9762885971   -0.3918132333   -0.0058492065
 H    0.3275499909   -1.3148053290   -1.7169742372
 H    0.9581235411    0.3146592555   -2.0074734090
 H    2.8608807308   -1.3954725214   -1.3206125024
 H    2.8352732710    0.1042150352    2.1429068212
 H    0.3145073047   -0.6788229843    2.1319747449
 H    1.3423013184   -3.6246632906    0.6640036050
 H    3.0554670707   -3.3023266375    0.9779441113
 H    1.8552317172   -3.0454915260    2.2510121453