23

 C   -0.5729747913    1.3732666700    0.1156453830
 C   -0.0411902843   -0.0382891859    0.0149804624
 C   -0.2035855236   -0.9650056128    1.2174533322
 C    1.1655888966   -0.5160242447    0.7705725625
 O    1.9296786423   -1.3967356971   -0.0131164784
 C    1.0845840334   -1.8621279015   -1.0621783725
 C    0.0536273823   -0.7375885315   -1.3585257455
 C   -1.2797857227   -1.3130566698   -1.8496216832
 C    0.6377679761    0.2256271259   -2.4085498517
 H    0.0034784348    2.0780423891   -0.4916199416
 H   -1.6198779773    1.4311550048   -0.2066089348
 H   -0.5347608096    1.7254863696    1.1511185319
 H   -0.6012627517   -0.5151328822    2.1214186239
 H   -0.4905067246   -2.0015314726    1.0796994000
 H    1.7861601264    0.1155990176    1.3960626300
 H    1.7179096471   -2.0958902574   -1.9227819958
 H    0.5732524998   -2.7878520260   -0.7607614617
 H   -1.7261307041   -1.9790809676   -1.1047150327
 H   -1.9995923750   -0.5150413987   -2.0608134765
 H   -1.1448742709   -1.8840609807   -2.7754418052
 H    0.7905504759   -0.2980704245   -3.3583084013
 H   -0.0298268583    1.0700470847   -2.6036295412
 H    1.6049654087    0.6216403510   -2.0830523440