16

 C    2.5962978403    0.8086678586   -0.4778771197
 N    1.9167307701   -0.4731645058   -0.4339067160
 C    1.1668365624   -0.7945050600    0.5185041828
 C    0.4964820584   -2.1496786031    0.6016961818
 C   -0.9584764695   -2.0434853744    0.6498871698
 C   -2.1536917859   -1.9270318019    0.6878718711
 O    0.9167141225   -0.0009042017    1.6453896452
 C   -0.0664594514    0.9454544568    1.5722371070
 O   -0.3258932878    1.6525147574    2.4931854408
 H    2.5005610306    1.4117698255    0.4314058589
 H    3.6575247038    0.6259806390   -0.6736852390
 H    2.2128490815    1.3802740193   -1.3299243932
 H    0.8203871555   -2.7338503112   -0.2631284375
 H    0.8568500311   -2.6579945207    1.5058112625
 H   -3.2117443934   -1.8405456524    0.7255435548
 H   -0.5594054381    0.9656639744    0.5866603205