22

 C    0.5848350195    0.7890998435    0.9856255134
 O    0.1299956405   -0.5442517627    0.9191095318
 C   -1.2751561237   -0.7329457545    0.7766500563
 C   -2.0377822920   -0.1371594882    1.9540923747
 C   -1.7280075450   -0.4301539500   -0.6987785597
 C   -1.7411920376   -1.9481299653   -0.9768834396
 C   -1.4113811510   -2.2453474823    0.4666365424
 N   -2.6535101647   -2.6711945695   -0.1282034925
 C   -3.9904120440   -2.2144370683    0.2141791289
 H    1.6762161171    0.7498357964    0.9387110073
 H    0.2224034278    1.3979276181    0.1439539174
 H    0.2964774828    1.2886576801    1.9207048050
 H   -1.9797907228    0.9562260620    1.9595737063
 H   -3.0939034383   -0.4068781034    1.9272483426
 H   -1.6136541600   -0.5061734166    2.8937214149
 H   -2.6738440976    0.1011961164   -0.8434869534
 H   -0.9436657173    0.0891808380   -1.2518143316
 H   -1.3766141754   -2.4239721750   -1.8811224612
 H   -0.7475451834   -2.9893420687    0.8951637334
 H   -4.1362743870   -1.1264913740    0.1913066982
 H   -4.6942725821   -2.6571030019   -0.4984289946
 H   -4.2513739359   -2.5781809441    1.2127870301