18

 O   -0.4774766330    0.7349544847    0.7902710315
 C    0.1142814205    1.0055212315   -0.2225082276
 C    1.4450184952    1.7237207551   -0.2864050760
 C    1.3801559098    2.9298791566   -1.2248606154
 C    0.7521415958    4.2933814646   -0.7803028473
 C    2.0349647387    4.5606254026    0.0621328347
 C    2.5361670478    3.9787375524   -1.2931917989
 C    1.5123889819    4.9292056425   -1.9804801109
 H   -0.3064939182    0.7314567950   -1.2194977006
 H    1.7480870678    1.9717934347    0.7322567869
 H    2.1777322788    1.0097807422   -0.6926174554
 H    1.0390367825    2.5996851778   -2.2143307074
 H   -0.2819381401    4.4762585290   -0.4844347061
 H    2.2734147229    5.6107790196    0.2497222463
 H    2.1884778813    3.9656110909    0.9631374983
 H    3.5691670466    3.7939789642   -1.5933880744
 H    1.1754737397    4.6501882198   -2.9829090016
 H    1.7221728919    5.9992568269   -1.9095214360