19

 C   -0.2525204332    1.7034737791   -0.6410829026
 N   -0.8503762355    0.3920443447   -0.3175609414
 C   -0.0001025753   -0.7879954789   -0.2386044081
 C   -0.6046283013   -0.1984870813    0.9895936322
 C    1.1402223868    2.0037171208   -0.1577072489
 C    1.4820877973    2.6463819856    1.0155511454
 N    2.8489416390    2.7233255958    1.0813736210
 C    3.4008268141    2.1412312910   -0.0314596766
 C    2.3688564371    1.6874393443   -0.8171190065
 H   -0.2822920892    1.7879550131   -1.7334477025
 H   -0.9463908324    2.4555275291   -0.2483928743
 H   -0.4119182192   -1.6903770331   -0.6833805439
 H    1.0744452401   -0.6652295037   -0.3544815431
 H    0.0789572184    0.3096274980    1.6672263075
 H   -1.4666902698   -0.6603923377    1.4641661326
 H    0.8618110073    3.0663263606    1.7919066136
 H    3.3683630286    3.1527333117    1.8265826377
 H    4.4695567491    2.1082056324   -0.1695972938
 H    2.4700848781    1.1923821984   -1.7715530283