13

 O   -0.0385743326    0.0602632412    0.2860647160
 C    0.0107362288    1.2200332425    0.0195072984
 O   -1.1150180794    1.9509669710   -0.2886930087
 C   -0.7861109541    3.2503728513   -0.8039015086
 C   -1.6007893415    4.2760090884   -0.1419541236
 N   -2.2312009080    5.1190550638    0.3313930002
 C    0.7145785918    3.4289568783   -0.5791942342
 N    1.0500276838    3.2885746696    0.8351452208
 C    1.2046651682    2.1266112318   -0.0791257119
 H   -1.0165183428    3.2597704778   -1.8758450625
 H    1.2805247749    4.0742380307   -1.2393936948
 H    1.9672513320    3.6914174867    1.0146171044
 H    2.1777599989    1.7045268369   -0.2912795056