12

 O    0.0683452674    1.3515052674    0.0087052518
 C   -0.0560182333   -0.0444738595    0.0024045972
 C   -1.5285009819   -0.4006324106    0.0142105269
 O   -2.4525124911    0.3563478563    0.0271548588
 O   -1.6339253515   -1.7725516237    0.0079914675
 C   -2.8925714107   -2.3226491634    0.0173809586
 N   -2.9853480361   -3.5762973897    0.0113302229
 H    1.0054237903    1.5665316589   -0.0019451961
 H    0.3871660719   -0.5192439375   -0.8874920624
 H    0.4035391543   -0.5285945441    0.8789031748
 H   -3.6824982077   -1.5715961922    0.0294304842
 H   -3.9671994816   -3.8490703118    0.0196198658