19

 C   -0.0073016761    1.5159524578   -0.0312835611
 C   -0.0094613289    0.0175322681   -0.0043866381
 C    0.4997713711   -1.0243983767   -0.9731549323
 C    1.1416106425   -0.8806260971    0.4038443181
 C    0.5299094427   -1.9838466618    1.3173920381
 C    0.0621300810   -3.0508422171    0.3048727855
 C   -0.6203363519   -2.0171157168   -0.6024751803
 C   -1.1345632776   -0.9350134317    0.4576570856
 O   -0.7342973118   -1.4282811947    1.7298895858
 H    0.9459941015    1.9028054316   -0.4068498985
 H   -0.8003192039    1.9076723497   -0.6786424667
 H   -0.1608674200    1.9266317305    0.9731485900
 H    1.0230236863   -0.9151721733   -1.9151293563
 H    2.1390870063   -0.4828569949    0.5329027021
 H    1.1071649043   -2.2954790241    2.1855581013
 H    0.8850611701   -3.5659584457   -0.1990667673
 H   -0.6147671617   -3.7741368262    0.7661952002
 H   -1.3116510693   -2.3540788140   -1.3713857027
 H   -2.1738410147   -0.6126950138    0.4644560467