17

 O   -0.0001905669    0.1295890869    0.6443655768
 C   -0.0398320784    1.2308637039    0.1633678926
 C   -1.3395850085    1.9492893958   -0.2040181163
 C   -1.0843766915    3.3379076327   -0.7985370497
 C    0.0194177517    3.2566066030   -1.8881351259
 C    1.0616553126    3.3859137219   -0.7294037759
 C   -0.0630903170    4.1133957586    0.0776888970
 C    1.2864751092    2.0208880350   -0.1249297103
 O    2.3573039930    1.5374715336    0.1309368950
 H   -1.8864320697    1.3073798755   -0.9056399465
 H   -1.9535380951    2.0085854151    0.7031350584
 H   -2.0209146436    3.8371379776   -1.0554275046
 H    0.0581132743    2.3658989506   -2.5228177281
 H    0.0409814492    4.1465569118   -2.5213439284
 H    2.0101385051    3.8919342107   -0.9101294573
 H   -0.0588550359    5.1834558482   -0.1422767280
 H   -0.0965474385    3.9720680092    1.1623941214