22

 C   -0.2404745786    1.6030055917   -0.0597146814
 C   -0.0449156475    0.0772649748    0.0073097947
 C   -1.4281935675   -0.6006267786    0.0302987908
 C    0.7303832532   -0.4575943080   -1.2131962482
 C    2.1162645356    0.1291607356   -1.4396077067
 O    3.1101707417   -0.2103637998   -0.4648307184
 C    2.9805871230    0.2158777047    0.8240553140
 N    1.9936469012    0.2455095535    1.6056888325
 C    0.6837098486   -0.3155134968    1.3145404977
 H    0.7017697542    2.1486023974    0.0323943000
 H   -0.7148975010    1.8978060227   -1.0025567879
 H   -0.8882123947    1.9379862677    0.7572303970
 H   -2.0044607504   -0.3435607585   -0.8650068219
 H   -1.3373341607   -1.6918887151    0.0673133279
 H   -2.0092231673   -0.2822643250    0.9023437356
 H    0.8209581820   -1.5486708400   -1.1339010950
 H    0.1503010092   -0.2572723512   -2.1243459756
 H    2.5270199092   -0.2516111311   -2.3784676131
 H    2.0678612213    1.2220617402   -1.5188908978
 H    3.9576289560    0.5277895791    1.1980738583
 H    0.0340301836   -0.0489199765    2.1561446569
 H    0.7784196291   -1.4120214367    1.3362827906