17

 O    0.6112139915   -0.5563733911    0.4271382213
 C    0.1909803181    0.5685054114    0.2749509587
 N    0.9452988929    1.6484646947   -0.0864310505
 C    2.3596930447    1.5793986511   -0.3350649470
 C    2.9138788639    2.1227603194   -1.6801379230
 C    4.1356807938    2.7120058167   -0.8963413815
 C    3.3044703394    2.5520214762    0.4219169354
 C    5.3273726346    1.8793576114   -0.9477468269
 N    6.2734415135    1.2156027814   -0.9877652170
 H   -0.8727247527    0.8435701644    0.4164084830
 H    0.4785415099    2.5376161774   -0.1814716287
 H    2.6490101757    0.5398187765   -0.1765147796
 H    3.1209787429    1.4041591250   -2.4736194831
 H    2.2962544366    2.9327761773   -2.0783158887
 H    4.4126614679    3.7353897847   -1.1567932888
 H    2.8068608545    3.4939188641    0.6695760322
 H    3.8229531526    2.1755920596    1.3041676040