18

 C    0.0449930551    1.3781968739    0.1177116722
 O   -0.0024212257   -0.0233751299   -0.0029769117
 C    0.6360273325   -0.6714823365    1.0581472803
 C    0.5726602823   -2.1763678764    0.9075710619
 N   -0.0233387608   -2.6672853088   -0.1180002631
 O   -0.0012454987   -4.0583468893   -0.1208912167
 C    1.1950010350   -2.9316076663    1.9412543029
 C    1.7365436921   -3.5232655656    2.8426489177
 C    2.3826056902   -4.2581660508    3.9172123207
 H    1.0806843573    1.7541958605    0.1273924326
 H   -0.4742853161    1.7949500517   -0.7481055670
 H   -0.4545039768    1.7279270726    1.0354886036
 H    1.6985657632   -0.3748285057    1.1287860587
 H    0.1787822930   -0.4007419615    2.0274546777
 H   -0.4767015246   -4.2638033721   -0.9334529911
 H    2.2931617756   -5.3388616019    3.7645020699
 H    3.4492481354   -4.0146764981    3.9770435721
 H    1.9329729810   -4.0175780358    4.8870024393