20

 C    0.0825149600    1.3120430529    0.6483819549
 C   -0.0128677311   -0.0741226055   -0.0015676532
 C   -1.3881108985   -0.7131665016    0.1189407675
 C   -2.5241914150    0.0133074439   -0.5850414724
 C   -3.8919193121   -0.6741815110   -0.5334124797
 O   -4.9167484651    0.1383702944   -1.0854217856
 C   -1.4628908103   -2.1540900887    0.4148183157
 O   -1.6911554733   -1.1871869010    1.4450101109
 H    1.1113487904    1.6822254213    0.6159018387
 H   -0.5468528048    2.0489101678    0.1401997416
 H   -0.2274861941    1.2645342394    1.6967451796
 H    0.2579516723   -0.0119997854   -1.0634330091
 H    0.7141393518   -0.7426648277    0.4718189444
 H   -2.6261017562    1.0065636526   -0.1264227040
 H   -2.2470657926    0.1870360219   -1.6318022741
 H   -3.8874710180   -1.5834887599   -1.1425595455
 H   -4.1174431862   -0.9668325435    0.5016088747
 H   -5.0295460509    0.9004456981   -0.5084561582
 H   -2.3328734459   -2.7405803825    0.1268429569
 H   -0.5404060303   -2.7264871455    0.5087662469