13

 O    0.3004479982    1.1749032000    0.5895235813
 C   -0.0372084786   -0.0677187272    0.0393466488
 C   -1.5261895845   -0.2666388551   -0.2384083601
 C   -1.4804945337   -1.2741713163   -1.3976790630
 O   -0.2632437041   -0.9789889499   -2.1250449391
 C    0.5669052091   -0.2469907296   -1.3539324936
 O    1.6089161878    0.2130498542   -1.7298994055
 H    1.1445846078    1.4245524238    0.1865008355
 H    0.3399870706   -0.8975199815    0.6641615129
 H   -2.0964244734   -0.6342213554    0.6158310216
 H   -1.9529433587    0.6864733609   -0.5649284684
 H   -1.4282873806   -2.3103635924   -1.0457140348
 H   -2.3101382399   -1.1823171316   -2.1001243457