23

 C    0.0781696188    1.5297173604   -0.1665686408
 C    0.0583533541    0.0067980136    0.0077058534
 C   -1.3540481773   -0.5614061682    0.0706511888
 C   -2.2446371659   -0.5489141176   -1.2152661101
 C   -2.7001130054   -2.0099869208   -0.8994008675
 O   -4.0443756131   -2.1833746167   -0.5469019089
 C   -1.9918202213   -3.1093421330   -1.7231629044
 C   -0.7809551151   -3.0223440092   -0.7431179967
 C   -1.5960295347   -2.0879374092    0.2051381109
 H    1.1021099279    1.9133276293   -0.2138874441
 H   -0.4319839017    1.8298541118   -1.0885215826
 H   -0.4275631462    2.0294639282    0.6671589387
 H    0.6116979594   -0.4564542586   -0.8186914939
 H    0.5966463318   -0.2651716079    0.9257166268
 H   -1.8986450582   -0.0598446590    0.8795833959
 H   -3.0581790274    0.1806181867   -1.2150077776
 H   -1.6838480627   -0.4510871281   -2.1510140828
 H   -4.5866312662   -1.9663846176   -1.3138257104
 H   -2.5249703357   -4.0595056940   -1.6303266682
 H   -1.8040727583   -2.9069040253   -2.7824759915
 H   -0.4920830946   -3.9750440635   -0.2953729897
 H    0.1158523752   -2.5686943981   -1.1706782206
 H   -1.7969273034   -2.4852798133    1.2007743755