17

 C   -0.0280176291    1.4813496166   -0.0786121370
 C   -0.0717679985   -0.0305668103    0.1827231811
 N   -1.4255738527   -0.5431624064    0.0620816969
 C   -1.8217426701   -1.0738340105   -1.0400378808
 C   -1.0968110799   -1.2718435069   -2.2990463291
 N   -1.6133468665   -1.8538587345   -3.3389730209
 N   -2.8694406283   -2.2858948456   -3.2320676509
 N   -3.6927950984   -2.1509881302   -2.1789732226
 C   -3.1917091302   -1.5715047545   -1.1356595426
 H    0.9734121749    1.8789401286    0.1145802883
 H   -0.2933689346    1.7091566151   -1.1163318861
 H   -0.7400941650    1.9982854940    0.5707353091
 H    0.6548017686   -0.5398053922   -0.4695005318
 H    0.2547773684   -0.2185078972    1.2124675823
 H   -0.0787555701   -0.9251414607   -2.4294574546
 H   -3.2653016913   -2.7118636783   -4.0527269598
 H   -3.8459323173   -1.4553706569   -0.2773783615