16

 C   -1.1123415978    1.1510244054   -0.2941119729
 N   -0.2414120272    0.0001921951   -0.0237702123
 C   -0.2199454983   -0.4221017869    1.3579170017
 N    0.5708037433   -1.4758024151    1.6340089054
 O   -0.8911842161    0.1689433613    2.1827465038
 C    0.4757046452   -0.5909480682   -1.0465153189
 N    1.2575751843   -1.5961111910   -0.9028042232
 C    0.3286572138   -0.0054820942   -2.4565463910
 O    0.9345287420   -0.4891459871   -3.3769944381
 H   -0.5460356981    2.0044582537   -0.6783811936
 H   -1.9115923902    0.8963413584   -0.9962753176
 H   -1.5570473260    1.4254855637    0.6594690052
 H    1.1068293832   -1.9252746274    0.8957979450
 H    0.5883391896   -1.7724975851    2.5940160645
 H    1.6560299511   -1.8261885337   -1.8145321980
 H   -0.3372256089    0.8590965813   -2.6064044700