25

 C    0.1715521880    1.5499706374    0.0502548406
 C    0.0040504828    0.0282682264   -0.0117464947
 C   -1.4552665544   -0.4660815531   -0.0443419490
 C   -2.1864534712   -0.0171359939   -1.3181276081
 C   -1.4968273835   -1.9952624791    0.1410053300
 C   -2.8896375962   -2.6067050770    0.2573405787
 C   -3.6852468087   -2.9749391697   -1.0195514901
 O   -3.8508189931   -4.3376949661   -0.5817259658
 C   -2.9804757493   -4.1229020060    0.5469136969
 H    1.2279769746    1.8215509147    0.1409739570
 H   -0.2156940775    2.0450257018   -0.8453131653
 H   -0.3535349847    1.9703397514    0.9156368370
 H    0.5322374721   -0.3634068407   -0.8923593202
 H    0.5016698939   -0.4158502749    0.8599895402
 H   -1.9752011377   -0.0184514631    0.8169919040
 H   -3.2364669002   -0.3243472473   -1.3114804376
 H   -2.1719720067    1.0707799768   -1.4278629201
 H   -1.7172197935   -0.4475928769   -2.2111855547
 H   -0.9565687288   -2.4806839820   -0.6850415246
 H   -0.9379993949   -2.2459104225    1.0534496503
 H   -3.4964313676   -2.0260033237    0.9595112299
 H   -4.6485497630   -2.4728661351   -1.1702418423
 H   -3.1048843640   -2.9136995524   -1.9507438226
 H   -2.0275727207   -4.6609583314    0.4370229601
 H   -3.4483930256   -4.4221640034    1.4923789107