16

 O   -0.0266030878   -0.0024443814    0.3156048951
 C   -0.0739406799    1.1827050678    0.0856577341
 C   -1.2834825438    2.0406617385   -0.1086898020
 C   -0.9452494691    3.3362375817   -0.0587509670
 C    0.5455339337    3.4560815782    0.0205165469
 C    1.3540966177    3.7300666856    1.3149804427
 C    1.0475013800    2.7173646405    2.3875742813
 C    1.8783048773    2.3039519598    1.2094492484
 N    1.0314624053    2.0597919674    0.0208416456
 H   -2.2747756815    1.6173064647   -0.2020779165
 H   -1.6151353596    4.1843145775   -0.1357077162
 H    0.9512637077    4.0351511675   -0.8186575287
 H    1.9007312676    4.6439274381    1.5030682197
 H    1.6004497265    2.8645955182    3.3097802008
 H    0.0451631792    2.3223358844    2.5227697584
 H    2.8840800168    1.9102478315    1.2652295072