15

 O    0.3491633069    1.2920330339   -0.3202886869
 C    0.1139501690   -0.0531756282   -0.0927835657
 C    0.0353527327   -0.6493429714    1.3733169854
 C   -1.4374154104   -0.0689434279    1.4649772237
 C   -1.6466386802    1.3485810484    1.6842097849
 C   -1.8689965559    2.5096374557    1.9149674112
 C   -1.3556190937   -0.6404061871   -0.0118586527
 C   -0.6594897542   -1.8250011856    0.6724741639
 O   -0.6575127627   -3.0151207279    0.6628074661
 H   -0.2168183422    1.8285455723    0.2513955693
 H    0.7803921336   -0.5966042040   -0.7655202318
 H    0.7915120866   -0.6433567688    2.1544274064
 H   -2.0998813454   -0.6341488494    2.1265693817
 H   -2.0602625422    3.5358374421    2.1136411924
 H   -2.1398122519   -0.6245343222   -0.7646773279