22

 C   -0.2190008553    1.3063265222   -0.7479354938
 C    0.4621471475   -0.0563758788   -0.5611799725
 C    1.9350030626   -0.0202842993   -0.9911663269
 C    0.3376530679   -0.5060611819    0.8833568826
 N   -0.9496750302   -1.0670905628    1.3126116650
 C    0.2485032162   -1.9261865432    1.3302974170
 C    0.2485254755   -3.0977747749    0.4053592433
 C    1.3607706376   -4.0575385595    0.3869072912
 O    0.1280627693   -4.3835571240    1.0274224816
 H    0.2711066691    2.0770486909   -0.1402298215
 H   -0.1738890839    1.6304062711   -1.7926806803
 H   -1.2700753378    1.2565430928   -0.4491750588
 H   -0.0679567020   -0.7837466010   -1.1868029436
 H    2.5054798626    0.6909613055   -0.3816230592
 H    2.4058744680   -1.0027562081   -0.8845381068
 H    2.0312248432    0.2908508553   -2.0362604072
 H    0.8422528061    0.1611257591    1.5854533785
 H   -1.1913799971   -0.7681075961    2.2528303602
 H    0.6902784688   -2.1599716457    2.2981223101
 H   -0.3545480362   -2.9832939899   -0.4935990294
 H    1.5818324193   -4.6131808986   -0.5235128600
 H    2.2093540787   -3.9095175629    1.0546543006