17

 C   -0.1302074634    1.3714078427    0.0191161617
 O    0.1468995433   -0.0072471192    0.0674360495
 C    0.6998321633   -0.5306062144   -1.1340787373
 C    1.2658848963   -1.9389402452   -0.8469238992
 C    0.8837325023   -2.8138789308   -2.0659214149
 C   -0.2051610222   -2.0102452504   -2.7353799493
 C   -0.3067241648   -0.7795358905   -2.2389193112
 H    0.7694504648    1.9601688294   -0.2230515962
 H   -0.9090658705    1.6220232185   -0.7171339780
 H   -0.4857166995    1.6654392280    1.0101243340
 H    1.4865260200    0.1630348599   -1.4815880758
 H    2.3390386859   -1.9270061761   -0.6449194798
 H    0.7626602465   -2.3010962456    0.0540279564
 H    1.7344912270   -2.9548806614   -2.7465291169
 H    0.5534398403   -3.8194272215   -1.7810109415
 H   -0.8026904983   -2.4068556523   -3.5497908485
 H   -0.9939651709   -0.0163749112   -2.5858762729