19

 C   -0.2637388392    1.4526348895    0.1876134077
 O   -0.2860010987    0.0438420771    0.4590806869
 C    0.8863407191   -0.4816378170    0.8640043000
 O    1.8954901738    0.1643620094    1.0076558027
 C    0.7810469237   -1.9780790862    1.1044194214
 C    1.5953311645   -2.7369827030    0.0398109772
 C    1.3039009891   -2.2915040184    2.4955631432
 C    0.4099065029   -2.4755691195    3.6441432428
 O    1.0090040241   -3.5970818815    2.9869065628
 H    0.4547197017    1.6806634945   -0.6035925980
 H   -1.2749460323    1.7096280732   -0.1273835741
 H    0.0134055622    2.0124922519    1.0841969673
 H   -0.2690670593   -2.2749195648    1.0445633044
 H    2.6370809621   -2.4041070934    0.0484600007
 H    1.5649284197   -3.8084124865    0.2526416625
 H    1.1885184324   -2.5691112033   -0.9615309632
 H    2.3233320765   -1.9533411672    2.6808461189
 H    0.7719707514   -2.2760300800    4.6513531627
 H   -0.6665261537   -2.3773927248    3.5088775140