23

 C   -0.1195800375    1.5571109997   -0.1659718221
 C   -0.0043802636    0.0377984180   -0.0642555777
 C    1.1800361575   -0.5563425138   -0.8844379523
 C    2.0082616997   -0.6588516849    0.4239622740
 C    0.6849100713   -0.5171454200    1.2299588793
 C    0.6739771606    0.2916445041    2.5203013158
 C    1.4810622529   -0.3955665767    3.6432405575
 C    1.4968203650    0.3666177254    4.8856384976
 C    1.4936443501    1.0161136248    5.8973232791
 H    0.8434894238    2.0535930090   -0.0034845555
 H   -0.4695294612    1.8440803711   -1.1636244952
 H   -0.8290955770    1.9609335324    0.5639547769
 H   -0.9819719475   -0.4076551422   -0.2745460101
 H    0.9445384896   -1.5399852789   -1.3000157223
 H    1.5838615128    0.0688381056   -1.6856953109
 H    2.6029090258   -1.5628900713    0.5768700652
 H    2.6627148440    0.2079958354    0.5643735934
 H    0.2823685387   -1.5172964886    1.4352776582
 H    1.0902841139    1.2906565175    2.3509051415
 H   -0.3565186780    0.4386234455    2.8661001385
 H    1.0643844737   -1.3938782062    3.8324981227
 H    2.5121189822   -0.5591005309    3.3035463156
 H    1.4978570532    1.5802778351    6.7965258209