19

 O    0.0291557127    1.4267005856    0.1385992728
 C    0.0704685526    0.0164814496    0.0204951701
 C   -1.3257321797   -0.5647814805   -0.0301667157
 C   -2.1729525253   -0.5738570696    1.2638006371
 O   -2.4216114813   -1.9941945039    1.1335972412
 C   -1.5897509236   -2.0931094721   -0.0440257225
 C   -2.3814039973   -2.3366929741   -1.3251683188
 C   -2.9724393018   -0.9473711174   -1.6107722331
 O   -1.9786818916   -0.0189764879   -1.1683074097
 H   -0.5314619535    1.7393440119   -0.5812450323
 H    0.6228258220   -0.3006551925   -0.8786071629
 H    0.6056125031   -0.3606116968    0.8975831654
 H   -1.6221987977   -0.3358900253    2.1810087192
 H   -3.0941469996    0.0179718831    1.2248563449
 H   -0.7494055285   -2.7787042203    0.1052583767
 H   -1.6998997799   -2.6403831183   -2.1269923842
 H   -3.1411883591   -3.1108720189   -1.1956199576
 H   -3.1631222540   -0.7504584829   -2.6681339386
 H   -3.9087957575   -0.8029245598   -1.0542811218