20

 C    0.4972301315    1.4068476465    0.1289518805
 C    0.0721640328   -0.0216940988    0.0047362511
 C    0.1535801391   -0.8060932098   -1.0711500951
 C   -0.4194126374   -2.1799696266   -0.8444020312
 C   -0.5628519652   -2.2494768402    0.7153506242
 C    0.6531996374   -2.9744434577    1.3292673714
 C   -0.5799599664   -0.7496210550    1.1606920611
 C   -1.7907060921   -2.9430754852    1.1121271968
 N   -2.7587383655   -3.4918172343    1.4265937461
 H    1.2438463369    1.5316320053    0.9234116677
 H    0.9256586021    1.7819858983   -0.8041082682
 H   -0.3510303666    2.0495332061    0.3969452392
 H    0.5525721127   -0.4984683754   -2.0318039249
 H   -1.3908717364   -2.2955510452   -1.3412322680
 H    0.2188861161   -2.9896964357   -1.2153177823
 H    1.5688145617   -2.4562543939    1.0295599463
 H    0.5962672950   -2.9809827996    2.4210878266
 H    0.7085614174   -4.0096329850    0.9821217554
 H   -0.0498342737   -0.6129504411    2.1106502091
 H   -1.6033129295   -0.3869213725    1.3210764042