19

 O    0.0674083080   -0.0516730995   -0.0014136750
 C   -0.0288650077    1.1569930378   -0.0391807152
 C   -1.3884484811    1.8391084817   -0.1598893046
 C   -1.3541391107    3.2009074208   -0.8785530433
 C   -0.1695255019    4.0503698383   -0.4164927415
 C    0.1319967553    4.0640098588    1.1249249232
 C    1.4097675227    3.2727076100    0.8528202626
 C    1.2111873854    3.3945003534   -0.6417248833
 C    1.1880655785    2.0226481681   -0.0042109455
 H   -2.0668664967    1.1322385381   -0.6446983372
 H   -1.7663554132    1.9696146393    0.8628106322
 H   -1.2762724274    3.0460891850   -1.9623447239
 H   -2.2985512247    3.7301561345   -0.7062578684
 H   -0.2281577194    5.0577995311   -0.8333014944
 H    0.3614337073    5.0744864505    1.4715102519
 H   -0.6081555748    3.6296314137    1.8030668560
 H    2.3274083707    3.3392240207    1.4251085779
 H    1.9195978113    3.6441006843   -1.4221313749
 H    2.0982418886    1.4424714534   -0.1205410766