11

 C    0.0046410637    1.5005644481   -0.0212170337
 C   -0.0266914959   -0.0102423509    0.0618967837
 O   -0.0634783993   -0.6210840829    1.1084881461
 C   -0.0099566428   -0.7069021855   -1.2123424182
 C    0.0035714149   -1.3013489749   -2.2698194188
 C    0.0189144155   -1.9620474385   -3.4557396580
 C    0.0326717113   -2.5501486620   -4.5104552944
 H    0.9040336784    1.8298470853   -0.5527726245
 H   -0.8559383284    1.8639901216   -0.5932611960
 H   -0.0104390854    1.9203113195    0.9855795569
 H    0.0446548979   -3.0673359198   -5.4382900831