21

 C   -0.3187364316    1.4137747867   -1.0960656024
 C   -0.0861359122    0.3055134859   -0.0601737150
 C   -1.3501511737   -0.4708773352    0.2728884737
 C   -2.3643891901    0.3001190487    1.1165125679
 C   -3.6951023625   -0.3975324495    1.3124531692
 O   -4.2644583429   -0.4801713508    2.3715512937
 O   -1.9235928248   -1.2113469261   -0.8210493144
 C   -1.3922396235   -1.9481895877    0.2920338018
 C   -0.2387234379   -2.8798955263    0.0258702409
 H    0.6244965699    1.9058662014   -1.3495817378
 H   -0.7435657156    0.9938511911   -2.0122059754
 H   -1.0019074646    2.1859852351   -0.7288246811
 H    0.6748070795   -0.3797255262   -0.4411952633
 H    0.3142538152    0.7329995782    0.8676830729
 H   -1.9470172622    0.5437405348    2.0984508047
 H   -2.5885543170    1.2510021483    0.6107006172
 H   -4.1339112718   -0.8160038597    0.3826370878
 H   -2.1684079748   -2.3934763340    0.9211931484
 H    0.5040840298   -2.4384061449   -0.6402896525
 H    0.2499407222   -3.1595115390    0.9654034056
 H   -0.6065004215   -3.7977472908   -0.4444850319