19

 C    0.5625142639    1.4528617326   -0.7022949314
 C    0.2502919175    0.0910234380   -0.2930863925
 C   -0.0036164956   -1.0387338984    0.0407549820
 C   -0.3277856493   -2.3857925705    0.4621463590
 C   -0.2287000988   -2.7449942078    1.9796644109
 C   -1.5722815837   -3.5380301094    1.8725556118
 C   -1.8278948000   -2.8210256083    0.5064828682
 C   -1.3630989636   -5.0192155391    1.7219279047
 O   -1.9206282647   -5.8668628599    2.3709608105
 H    1.3610495802    1.4711131461   -1.4522258241
 H   -0.3123275550    1.9476923352   -1.1386450577
 H    0.8937395467    2.0584456676    0.1486552285
 H    0.2487207743   -3.1082347681   -0.1263935579
 H    0.6586773278   -3.2972115024    2.2987214145
 H   -0.3426643485   -1.8624530685    2.6111660859
 H   -2.3064859923   -3.3671563161    2.6607546933
 H   -2.4926349834   -1.9646470768    0.6305663221
 H   -2.1886204851   -3.4325898949   -0.3242080193
 H   -0.6233797303   -5.3027425392    0.9334864614