23

 C    0.1164307160    1.6126637878   -0.2240826567
 C    0.1105449875    0.1070266505   -0.0746301059
 C    1.4069943684   -0.6668030153   -0.0001310685
 C    0.5120013435   -0.5702224666    1.2116667816
 C    0.9568521771    0.2024825520    2.4649334329
 O    0.4730648785   -0.5309479103    3.5820538220
 C    0.3064159545   -1.8913449108    3.1835379510
 C   -0.5926638967   -2.5877282839    4.1885386843
 C   -0.2337987819   -1.7883366069    1.7503875680
 H    0.9685791171    2.0651040017    0.2933648684
 H    0.1845439844    1.8996146913   -1.2791457924
 H   -0.7958296992    2.0624058125    0.1842373351
 H   -0.6950887763   -0.3863047378   -0.6152332008
 H    1.4813081312   -1.6187878234   -0.5168260216
 H    2.3308496854   -0.0936528824    0.0099043336
 H    2.0543344609    0.2892310340    2.5055207202
 H    0.5366139091    1.2121184527    2.5277509457
 H    1.2919629443   -2.3904155328    3.1618013863
 H   -1.5733581315   -2.1029841471    4.2220828479
 H   -0.7303295053   -3.6389127859    3.9166558130
 H   -0.1546573042   -2.5460494805    5.1897452225
 H   -1.3153674212   -1.6058491781    1.7815737551
 H   -0.0582648117   -2.6934259108    1.1621408185