11

 C   -0.0075690904    1.4356989206    0.0098161958
 N   -0.0289111120   -0.0128454978    0.0021173485
 N   -0.0089116116   -0.7112751839   -1.1269952594
 C    0.0331449917   -1.9787264769   -0.7090963741
 C    0.0412420170   -1.9863098676    0.6912735459
 N    0.0041161428   -0.7234567638    1.1233206168
 H    1.0216702975    1.8076694424    0.0015925135
 H   -0.5283106022    1.7919875075   -0.8787608364
 H   -0.5104381241    1.7816955256    0.9125979655
 H    0.0468032464   -2.7951478631   -1.4130636974
 H    0.0629822250   -2.8102969028    1.3861609213