19

 N    0.0108482994    1.4263541061   -0.1788805317
 C   -0.0421640265   -0.0002374547   -0.0015558445
 C   -0.5964688636   -0.7038745898    1.2058447827
 C   -1.3743305916   -0.7378909646   -0.1185557307
 C   -2.6762829209    0.0414016107   -0.2457317018
 C   -3.8886026133   -0.7383176443    0.2563023493
 O   -5.0109987057    0.1219593320    0.1497146227
 C   -1.3398594498   -1.9804081066   -0.8492924701
 N   -1.3125519464   -2.9773572242   -1.4373845824
 H   -0.6097052510    1.9053825803    0.4646502424
 H    0.9484754714    1.7569694042    0.0258471437
 H    0.7842135120   -0.4956278929   -0.5006437655
 H   -0.1313561516   -1.6195036903    1.5529375166
 H   -1.0405834016   -0.0941230550    1.9870953001
 H   -2.6100540932    0.9712023626    0.3271375837
 H   -2.8401046310    0.3273373414   -1.2896460492
 H   -4.0184695050   -1.6500357670   -0.3451439229
 H   -3.7204875709   -1.0537599916    1.2989947322
 H   -5.8000863204   -0.3837224160    0.3641960656