16

 O    0.1283790300   -0.0248680985    0.3089204926
 C    0.0512858358    1.1579236454    0.1434242482
 N   -1.0640188931    1.9024785698   -0.1943788867
 C   -0.8491641590    3.3142922612   -0.0392111482
 C   -1.5945662908    4.3085535237   -0.9583033391
 O   -2.0810983222    5.0525195826    0.1737731764
 C   -1.5720692501    4.0800826990    1.1039567006
 C    0.6916452662    3.3416631750   -0.0772125507
 O    1.1103802641    2.0163118431    0.2571765215
 H   -1.9672555407    1.4743054542   -0.0681244347
 H   -0.9714515649    4.9198999996   -1.6228409808
 H   -2.4045942934    3.8530056964   -1.5432046040
 H   -2.3736521413    3.5035580981    1.5862966782
 H   -0.9379445061    4.5310495290    1.8765531386
 H    1.0524864103    3.5871591829   -1.0832358802
 H    1.1259428952    4.0420938387    0.6392714183