23

 O   -0.0542533197    1.4659161823   -0.0134121942
 C    0.0337877996    0.0495068779    0.0448782884
 C   -1.3785369178   -0.5148735282   -0.0301685659
 C   -1.4131875208   -2.0458210993    0.0165141232
 C   -2.8260332097   -2.6347795337   -0.0282022421
 C   -3.6167757907   -2.3493508464   -1.3373704679
 C   -4.4390558916   -3.6013299128   -1.5306041633
 C   -4.0365736289   -4.5914048530   -0.7362568331
 C   -2.8715478405   -4.1805507797    0.1312773632
 H    0.8366661631    1.8245099020    0.0324267184
 H    0.6370187436   -0.3463788719   -0.7891142989
 H    0.5172948853   -0.2813795047    0.9791457718
 H   -1.9623023767   -0.0995062925    0.8009115678
 H   -1.8459205094   -0.1491848613   -0.9519589583
 H   -0.8310654407   -2.4540302881   -0.8224110731
 H   -0.9112256159   -2.3917607433    0.9308126227
 H   -3.4030249360   -2.2044271806    0.8005335999
 H   -4.2261950760   -1.4411819184   -1.2699954437
 H   -2.9378841521   -2.1978170101   -2.1909724239
 H   -5.2339327261   -3.6708632246   -2.2654703697
 H   -4.4520167019   -5.5933286948   -0.7230817469
 H   -1.9404838806   -4.6478122165   -0.2250361947
 H   -2.9824729666   -4.4858601924    1.1784322702