20

 C   -0.3774963209    1.4300342742    0.0511089730
 C    0.0441483218   -0.0313235769    0.0489551146
 O    0.9146689038   -0.2595154896   -1.1001250832
 C    2.0879556998   -0.6946604865   -0.5899934503
 N    2.2168430515   -0.8807105120    0.6555096101
 C    0.9070475527   -0.5414500713    1.2575560671
 C    1.0634098586    0.4103829765    2.4212234973
 C    0.0252538723    0.4392699074    3.5187362368
 C    1.3923429072   -0.1386787014    3.7829337949
 H    0.4886084146    2.0918079366    0.1385954927
 H   -0.8965457665    1.6699637250   -0.8808254624
 H   -1.0531254240    1.6323150669    0.8865987292
 H   -0.8323161562   -0.6691496010   -0.0979200632
 H    2.8630037781   -0.8571919775   -1.3318016218
 H    0.4710972151   -1.4709208206    1.6473833070
 H    1.5266784133    1.3590064056    2.1681407252
 H   -0.2285713852    1.3956807064    3.9620566532
 H   -0.8104048807   -0.2498728232    3.4462588448
 H    1.4811993636   -1.2152217574    3.8827497727
 H    2.0775227611    0.4222466189    4.4080500924