23

 C    0.1046125737    1.5551846553   -0.0380930631
 C   -0.0308548311    0.0174401598    0.0439164944
 C    0.7310018687   -0.4738739183    1.1933804401
 C    1.3695436612   -0.8437142070    2.1432578214
 C   -1.5025848591   -0.5314603726    0.0514640803
 C   -1.4550748792   -2.0698474409   -0.0148160204
 C   -2.2685566240   -0.0918190659    1.3111167972
 C   -2.2273045168   -0.0038609195   -1.2010113803
 O   -3.5074616278   -0.6167306241   -1.2793366492
 H    1.1614605928    1.8330681587   -0.0159777074
 H   -0.3248885312    1.9460820036   -0.9637189753
 H   -0.3843148295    2.0456314248    0.8073166062
 H    0.4437866827   -0.3963814241   -0.8580973482
 H    1.9352486115   -1.1816731364    2.9758476790
 H   -0.9471963338   -2.4789902406    0.8620367892
 H   -2.4655113147   -2.4796982106   -0.0614117450
 H   -0.9138022093   -2.4083024187   -0.9063135320
 H   -2.3337509221    0.9985200101    1.3876423683
 H   -3.2887262148   -0.4808912114    1.2772639124
 H   -1.7799125476   -0.4656828339    2.2147437954
 H   -2.3328757002    1.0886401758   -1.1442212823
 H   -1.6264029059   -0.2363961102   -2.0968203489
 H   -3.9852559735   -0.2191410339   -2.0122842417