21

 C    0.0418696971    1.5056447922    0.1262493800
 C    0.0492722965    0.0115692118    0.0024034686
 C   -0.9273522757   -0.9098641725    0.7616981445
 O   -1.0618435303   -2.1367772598    0.0423431416
 C    0.3706297653   -2.0409816270   -0.1978912511
 C    0.5381272985   -1.0371667274    1.0017994725
 C    0.5180088813   -0.8449958429   -1.1951963641
 C   -0.3646121209   -0.8742587433   -2.4395734820
 C    1.9849044967   -0.5904121553   -1.5436028145
 H    1.0334653567    1.9309271109   -0.0668994667
 H   -0.6606756810    1.9600202617   -0.5819609703
 H   -0.2580951574    1.8187614593    1.1325745401
 H   -1.7469275357   -0.5683382508    1.3810088524
 H    0.8532120458   -3.0042917312   -0.3575202667
 H    1.1603919209   -0.9957956617    1.8849756784
 H   -1.3903613031   -1.1412335557   -2.1791624843
 H   -0.3718793890    0.1038704911   -2.9343456299
 H    0.0063768368   -1.6051953102   -3.1677529440
 H    2.3577806928   -1.3568474550   -2.2326431884
 H    2.1108595863    0.3798952987   -2.0366433941
 H    2.6210580482   -0.5971669731   -0.6524403921