18

 C    0.3985817304    1.4195416641    0.1993864596
 N    1.0292759054    0.3507575151   -0.5942486578
 C   -0.2881938993    0.1137621164    0.0149769078
 C   -0.4992922496   -0.8641387522    1.1348768701
 C   -0.2422653009   -2.3186695311    1.1470011546
 C    1.0649503225   -2.7108487643    0.4584162172
 C    1.7646999927   -1.7336682640    1.4305944797
 N    0.4660415428   -1.3784751806    2.1268607450
 H    0.8939724661    1.6296635649    1.1428505545
 H    0.0022081222    2.2909029758   -0.3143531034
 H    0.9210213842    0.5374203561   -1.5870067163
 H   -1.1441511558    0.1319349596   -0.6610516324
 H   -1.4173254110   -0.6020012718    1.6643733274
 H   -0.9969505052   -3.0228640074    1.4872466353
 H    1.3379914253   -3.7540886252    0.6270288062
 H    1.1331351357   -2.4932356829   -0.6100241162
 H    2.4034570524   -2.2397259887    2.1576687244
 H    2.2924737523   -0.8894305239    0.9918048944