16

 C    0.1974347929    1.6123028105    0.2830893525
 C   -0.0174567115    0.1426720286   -0.0714327621
 N    0.6116404965   -0.2400700324   -1.3259806967
 C   -0.1015025031   -0.7324295979   -2.3862573580
 O   -1.2991225360   -0.9460427114   -2.3574818880
 C    0.7155705321   -0.9824857839   -3.5651089550
 C    1.3675015268   -1.1966445393   -4.5520908775
 C    0.4467747883   -0.8062451014    1.0337091802
 O    0.7330118499   -0.4631145179    2.1497801364
 H    1.2640604745    1.8441132146    0.3681026775
 H   -0.2425833737    2.2573790589   -0.4806320195
 H   -0.2614154556    1.8323825249    1.2490443064
 H   -1.0858417666   -0.0648958656   -0.2219159203
 H    1.5938770719   -0.0537749078   -1.4591252218
 H    1.9310180318   -1.3908993159   -5.4322804566
 H    0.5017332819   -1.8701839941    0.7113694026