16

 N    0.0458067291    1.3923253187    0.1367940065
 C   -0.0038973399   -0.0044231880    0.0573973374
 C   -1.1020945534   -0.8224724672    0.0343415257
 N   -0.6420414518   -2.1442818635    0.0006017728
 C    0.7136504290   -2.1654497555    0.0184603870
 N    1.4296312877   -3.3629422894    0.0799810648
 C    1.1669928185   -0.8498428746    0.0376553543
 C    2.5119109461   -0.4363800269    0.0083659867
 C    3.6634753329   -0.0723940614   -0.0309469013
 H    0.9187369855    1.7594813293   -0.2210094058
 H   -0.7321742774    1.8491913375   -0.3196937434
 H   -2.1554820438   -0.6010947354    0.0194170584
 H   -1.2158873011   -2.9561694651    0.1449659287
 H    1.2461412638   -3.9783393284   -0.7058720028
 H    2.4241036815   -3.1715702935    0.1184675024
 H    4.6754624733    0.2466698233   -0.0397549015