17

 C    0.1942862002    1.4936459335   -0.1878224447
 C    0.0262165847    0.0116331052    0.0919650503
 O    0.3713094393   -0.6910071378   -1.1344780148
 C    1.0430462045   -1.8555229328   -1.1953341737
 O    1.3499186813   -2.3414681797   -2.2407080440
 O    1.4056890641   -2.4482344148   -0.0252385002
 C    0.8031463710   -2.0229458892    1.2076281870
 C    0.8460491893   -0.5075906166    1.2754922514
 O    2.1766519246   -0.0282282973    1.2964295246
 H    1.2495347396    1.7336184686   -0.3291153153
 H   -0.3639100872    1.7719735399   -1.0844159932
 H   -0.1841639089    2.0779355040    0.6565940366
 H   -1.0294337854   -0.2180445577    0.2879815897
 H   -0.2245849919   -2.4002569683    1.2719896272
 H    1.4023994663   -2.4810109785    1.9964160840
 H    0.3733065322   -0.1582185595    2.1998022404
 H    2.6994409865   -0.5606071791    0.6850621147