19

 C   -0.0157715282    1.5858394481    0.1517577947
 C   -0.0243437684    0.0625655308   -0.0432167754
 O    0.7770487931   -0.5967907618    0.9336534044
 C   -1.3929088202   -0.4667991909   -0.0677698984
 C   -2.5166722393   -0.9026186673   -0.0454302369
 C   -3.8766211203   -1.3910667015   -0.0101162079
 C   -4.8871108837   -0.4947489403    0.6752020215
 C   -4.3152564372   -2.3530083876   -1.0444059133
 O   -4.0188795802   -2.7981426694    0.2738222942
 H    1.0174804840    1.9417923618    0.1710378446
 H   -0.5525765677    2.0869760564   -0.6591311334
 H   -0.4985444332    1.8535785320    1.0971368523
 H    0.4632070715   -0.1714630529   -0.9975576858
 H    0.2930372708   -0.5757277401    1.7667745542
 H   -4.9352555438    0.4795533256    0.1796180208
 H   -5.8768382560   -0.9571394773    0.6513985460
 H   -4.6033706520   -0.3313334681    1.7189837092
 H   -5.3678215238   -2.3766838441   -1.3262248355
 H   -3.6135216854   -2.6647729133   -1.8155989354