13

 N    0.0837488626    1.4237069621    0.1040448242
 C    0.0091687345    0.0220668681    0.0150115691
 C   -1.0616312099   -0.8186349271    0.0263051639
 O   -0.6481716141   -2.1185745048   -0.0071413732
 C    0.7157884578   -2.1015906650   -0.0393050803
 C    1.1765270564   -0.8205514154   -0.0261706781
 N    2.4835128046   -0.3082717307   -0.1136986383
 H    0.7208726329    1.8002767983   -0.5906821202
 H   -0.8186585422    1.8686038006   -0.0083597178
 H   -2.1260094669   -0.6585506140    0.0632678595
 H    1.2029817553   -3.0613429087   -0.0770955891
 H    3.1897202847   -1.0254866267   -0.0050714475
 H    2.6411606743    0.4116133933    0.5843777078