17

 C   -0.1518178127    1.4832062888    0.0932411930
 C   -0.0313874829    0.0021707166   -0.0263277467
 C    0.0257905873   -0.8309920576   -1.1143544403
 N    0.1409412633   -2.1486438574   -0.7326150028
 C    0.1509878099   -2.1209858346    0.5764670019
 N    0.0555776305   -0.8465913552    1.0673659643
 C    0.0133988847   -0.4736435234    2.4727087046
 C   -1.3162127046   -0.0807674675    2.9396755796
 C   -2.4043393489    0.2487034665    3.3262934326
 H    0.7157511098    1.9342907671    0.5920347307
 H   -0.2200325234    1.9230818140   -0.9043305789
 H   -1.0436312560    1.7811872875    0.6562419382
 H   -0.0062952576   -0.5468667480   -2.1559747318
 H    0.2275900036   -2.9750643601    1.2342655116
 H    0.3729162939   -1.3312921203    3.0508605805
 H    0.7235134516    0.3422503021    2.6518711940
 H   -3.3694936785    0.5325958716    3.6674287997