19

 O    0.0383891831    1.4245843110   -0.0569841686
 C    0.0970225667    0.0173874072    0.0262863358
 C   -1.3030451496   -0.5825257263    0.1126703477
 O   -1.9907848677   -0.1308487440   -1.0480430436
 C   -1.3012552213   -2.1035040525    0.1672250253
 O   -2.6593847561   -2.5148011447    0.1726356468
 C   -2.8369485248   -3.9077376475    0.1164976873
 C   -4.3281091276   -4.1999956640    0.1153683874
 O   -4.7873363113   -5.3089955946    0.0718897595
 H   -0.6121127511    1.6198257694   -0.7424774136
 H    0.6183420578   -0.4176160450   -0.8426696372
 H    0.6706194109   -0.2307501046    0.9254448280
 H   -1.7970214427   -0.1983500117    1.0189767442
 H   -2.8533294184   -0.5604190311   -1.0463985690
 H   -0.7854756577   -2.5137652489   -0.7151572618
 H   -0.7842172542   -2.4645960727    1.0703066358
 H   -2.3875763719   -4.3448056581   -0.7907460015
 H   -2.3778734649   -4.4156267110    0.9808223996
 H   -4.9621359494   -3.2867284811    0.1590718582