19

 C   -0.0810450953    1.4667516835   -0.0013517986
 C    0.0648759106   -0.0231543768   -0.0374822531
 O   -0.5574211297   -0.7887556920    1.0151020631
 C    0.8634432887   -0.8971782843    0.8202948104
 C    1.3160342922   -1.9845620882   -0.1819226538
 C    0.0093293433   -2.2688667961   -0.9767847069
 C    0.1867705159   -0.7822080900   -1.3878328895
 O   -0.4948635482   -0.1624084795   -2.4292634802
 C    1.7373869802   -1.0694182251   -1.3819558469
 H    0.6743643698    1.9453603843   -0.6324110830
 H   -1.0630119120    1.7634763392   -0.3829100431
 H    0.0230305461    1.8364499033    1.0216350488
 H    1.4893414673   -0.5685103720    1.6439665592
 H    1.9526901184   -2.7901709024    0.1777993770
 H    0.1954773019   -2.9442304441   -1.8158270093
 H   -0.8849474579   -2.5507980706   -0.4255241350
 H   -0.3610277217   -0.6755858579   -3.2323642049
 H    2.4140851504   -0.2339565161   -1.1790793801
 H    2.0768279000   -1.6315039752   -2.2576055641