21

 O    0.0047377922    1.4546656235    0.2835513076
 C    0.0168679565    0.0357551975    0.3362696212
 C   -1.2765266498   -0.4671357489   -0.2962175097
 C   -1.3839139412   -1.9758917368   -0.2846402524
 C   -1.8675178357   -2.7197895309    0.9609791364
 C   -2.7097238690   -2.6642642524   -0.2713610564
 C   -4.1165569388   -2.1133568972   -0.4845211013
 C   -4.3164046637   -3.3984659820   -1.3169182674
 O   -2.9587040605   -3.8281448271   -1.0636543777
 H    0.8185638780    1.7773557153    0.6809966749
 H    0.8805469613   -0.3773190471   -0.2102903397
 H    0.0851665731   -0.3277520346    1.3738688249
 H   -2.1197235364   -0.0229557674    0.2467834299
 H   -1.3319778863   -0.0869434465   -1.3238679669
 H   -0.6220950240   -2.5015383481   -0.8569997351
 H   -1.3978470817   -3.6680907804    1.1995469877
 H   -2.1773682364   -2.1336553627    1.8220498950
 H   -4.7324135255   -2.0345001995    0.4133002979
 H   -4.1733569638   -1.1786614492   -1.0460215260
 H   -5.0476462218   -4.1119201763   -0.9202076594
 H   -4.5018188564   -3.2503032691   -2.3867928633