17

 C    0.0030413128    1.1666436938   -0.1822941775
 O   -0.1434390315   -0.2321854282   -0.2998457395
 C   -1.3631081916   -0.6929490801    0.1829909403
 C   -1.4332795327   -2.2091809190    0.0843995716
 O   -0.4903386629   -2.9120220824   -0.1638176948
 C   -2.8312067925   -2.8018172915    0.3080725923
 O   -2.7743071608   -4.1510378764    0.7232441411
 C   -2.4338664213   -5.0709519198   -0.2149073698
 O   -2.2838735825   -6.2212229129    0.0554939062
 H    0.9861292194    1.4198311044   -0.5836718346
 H   -0.7673781879    1.7071656452   -0.7538804866
 H   -0.0509722169    1.4939865993    0.8674106448
 H   -1.5185868468   -0.4274351056    1.2472090779
 H   -2.2225222951   -0.2581944193   -0.3633952123
 H   -3.3743059719   -2.2562151282    1.0845559485
 H   -3.3993405629   -2.6886642854   -0.6283292725
 H   -2.3514435950   -4.6421144940   -1.2295736550