15

 C    0.3256939435    1.1463784259   -0.3728137458
 N   -0.3272060498   -0.0331254324    0.2124180819
 C    0.4357410916   -0.6959315223    1.1999919754
 C    0.8553218909   -1.9940193567    1.0856930701
 O    0.6748697030   -2.9149718367    0.1184496229
 N    1.5639697444   -2.2768540837    2.2209319762
 C    1.5458950379   -1.1294962534    2.9850237425
 N    0.8801600885   -0.1679768111    2.3999586490
 H    1.2378095076    0.8317547648   -0.8890014410
 H   -0.3446256205    1.6000436905   -1.1094597740
 H    0.6009586616    1.9049923162    0.3726113066
 H   -1.2293086614    0.2415895245    0.5896689778
 H    0.1332309913   -2.4707237026   -0.5502664065
 H    1.9978036376   -3.1574996904    2.4406699105
 H    2.0366726638   -1.0797425127    3.9448538044