17

 C   -0.0304577239    1.5069558036   -0.0587296308
 C    0.1493421913   -0.0038650984    0.0312921875
 O    0.6763973392   -0.4208907703   -1.2407207200
 C    1.4658081588   -1.5056685329   -1.4290878514
 O    1.8267815388   -1.7753688560   -2.5404647210
 C    1.8412609987   -2.3533006641   -0.2211031129
 C    1.8700042325   -1.5932146232    1.0771614609
 O    2.4296762261   -0.2715199104    1.0210432903
 C    1.0202040577   -0.4131349033    1.1982888887
 H    0.9442627340    1.9934076506   -0.1487619955
 H   -0.6334432850    1.7624462712   -0.9328086871
 H   -0.5334659341    1.8841778259    0.8368148803
 H   -0.8309729647   -0.4857583462    0.1631356146
 H    1.1116902460   -3.1709554560   -0.1439617334
 H    2.8058468568   -2.8140521564   -0.4480942803
 H    2.1380277069   -2.1585037141    1.9686117850
 H    0.6392124207   -0.1104619598    2.1738044351