20

 C   -0.0335704488    1.5980034105    0.0059579800
 C    0.0491949660    0.0740347528   -0.0025734900
 C   -1.3408937427   -0.5478455025    0.1460449841
 O   -1.8710446218   -0.1345076105    1.4009876139
 C    0.8274391337   -0.6373685062   -1.1031032867
 C    2.2679190618   -0.7327905785   -0.7085581498
 C    2.4547573583   -0.1069124354    0.6612176315
 C    1.0477911140   -0.6682569534    0.9308078599
 N    1.2813070725   -1.7425419964   -0.1901211413
 H    0.9473669551    2.0663470784   -0.1010538911
 H   -0.6565742518    1.9456747464   -0.8266473728
 H   -0.4940731174    1.9512240807    0.9322774266
 H   -1.9846888911   -0.2100406847   -0.6829588609
 H   -1.2604942355   -1.6417696405    0.0883391034
 H   -2.7226489799   -0.5631250572    1.5233383343
 H    0.5000139893   -0.8508482799   -2.1163780076
 H    3.0325773099   -1.0181341748   -1.4230260314
 H    3.2068691343   -0.6595074787    1.2306205998
 H    2.6347836503    0.9672632089    0.7619708330
 H    0.7315565737   -0.9825935690    1.9228587248