16

 O   -0.4146008684    0.0950473916   -0.0621287157
 C   -0.0882707389    1.2455922626    0.0431137032
 N    1.2060947937    1.7370561482    0.0741940911
 C    2.3996157095    1.0358791628    0.0265962889
 N    2.5557482273   -0.2255995334   -0.0108502393
 C    4.0040443124   -0.4720360021   -0.0170001196
 C    4.6546866698    0.9127140881   -0.0929262386
 C    4.2963489753    1.7764967784   -1.2392344335
 N    3.5538169232    1.8970510036    0.0492598113
 H   -0.8098406154    2.0835957495    0.1257263863
 H    1.3175535552    2.7349618395    0.1737696465
 H    4.2910952648   -0.9922596153    0.9047080139
 H    4.2768138417   -1.1263543634   -0.8527803986
 H    5.5549502424    1.1196935488    0.4754467145
 H    4.9074323755    2.6398180193   -1.4819310519
 H    3.7646255118    1.3301899516   -2.0755946886