12

 O    0.0743267235    1.3832753020   -0.1153685135
 C    0.0582949463    0.0292177328   -0.0646901347
 C   -0.0294120751   -0.7446606487   -1.2091086313
 N   -0.0468112348   -2.0861011258   -1.1726328685
 C    0.0252350087   -2.6432726307    0.0278438822
 N    0.1131965139   -1.9990945225    1.2004104076
 C    0.1285932024   -0.6830112452    1.1427906704
 O    0.2160295909    0.0386632385    2.2821940601
 H    0.1426709777    1.7167205675    0.7879291325
 H   -0.0871528206   -0.2625310226   -2.1814415114
 H    0.0124183497   -3.7282148149    0.0748174832
 H    0.2563292975   -0.5928622204    3.0139508334