12

 N   -0.0010684814    1.3944800955    0.1571293968
 C   -0.0385482912    0.0118969860    0.0497172968
 C   -1.0961116685   -0.8506185713    0.0033759784
 O   -0.5921466379   -2.1252404192   -0.0288819845
 C    0.7505245078   -1.9638414460    0.0013324332
 N    1.1328018221   -0.7153932088    0.0464206149
 C    1.5592363609   -3.1184388062   -0.0212339724
 C    2.2463693470   -4.1055656505   -0.0411877900
 H    0.8877903418    1.7689758807   -0.1457437808
 H   -0.7726804701    1.8710660171   -0.2872259464
 H   -2.1666345369   -0.7518958006   -0.0075265921
 H    2.8573263864   -4.9743614066   -0.0579326638