17

 N   -0.0954667342   -1.1703479232   -0.1152519483
 C   -0.0553577401   -0.0156687142   -0.0648606904
 C    0.0038349911    1.4392200686    0.0180280933
 C   -0.4362159522    2.0241350862    1.4103386033
 N    0.7525463399    2.7615865825    1.8711291395
 C    1.3637648381    3.4258063080    0.6371325107
 C    2.7538367598    3.2290423600    1.2685668382
 C    1.9700213222    1.9212564580    1.4824857261
 C    1.4319151642    1.9958770079    0.0194633451
 H   -0.5888795526    1.8542650842   -0.8036138069
 H   -1.2863049163    2.7041942031    1.3147964605
 H   -0.6942103544    1.2413353287    2.1268765616
 H    0.9232280243    4.3251395198    0.2016771332
 H    3.6055424112    3.1896448099    0.5884145654
 H    2.9555217862    3.8151724701    2.1652621278
 H    2.2492807786    1.0317749538    2.0490446031
 H    2.0735708643    1.7719553965   -0.8341445222