16

 N   -0.7458968216    0.9675219653   -0.7717384784
 C   -0.8175165377   -0.0554132144   -0.0391551963
 O   -0.3959835133   -1.2491597928   -0.5135533444
 C   -0.5778592050   -2.3680740660    0.3589705800
 C   -1.9664992611   -2.8071342823    0.4535607932
 C   -3.1206983313   -3.1404720265    0.5351380429
 C   -4.4991765870   -3.6003738223    0.5953135463
 C   -4.7201385169   -4.8931711026   -0.1975819059
 O   -5.4442559055   -5.7767958802    0.1685692932
 H   -1.0805208068    1.7839513853   -0.2642960402
 H   -1.1913116064   -0.0995158275    0.9927204217
 H    0.0473225547   -3.1594480706   -0.0635336740
 H   -0.1831621295   -2.1379193700    1.3585012928
 H   -4.8415942963   -3.7632467595    1.6222548580
 H   -5.1623348920   -2.8414881213    0.1524596025
 H   -4.1623393043   -4.9415818545   -1.1572492816