18

 C   -0.1055845481    1.5958665170   -0.0214581136
 C   -0.0510666047    0.0763258552   -0.0122898803
 C    1.1669923373   -0.6287958864   -0.6290014892
 N    2.0717028163   -0.2512006467    0.5768327046
 C    2.5170134200   -1.7082952774    0.6949720466
 C    1.0635298138   -1.9007810989    0.2898530973
 C    0.2817641372   -3.1472418369    0.0676927912
 O    0.7424326902   -4.2561147615    0.1931756054
 C    0.6751136500   -0.6357727501    1.1395647329
 H    0.8637134335    2.0208269764    0.2498753612
 H   -0.3812841103    1.9689046189   -1.0135800839
 H   -0.8547953209    1.9621903914    0.6884441493
 H   -1.0138664370   -0.3702749779   -0.2818271732
 H    1.5626878569   -0.6005322436   -1.6465133961
 H    3.2920452970   -1.9870062700   -0.0244769903
 H    2.8097393743   -1.9938287780    1.7092394446
 H   -0.7824348987   -2.9970546796   -0.2281780763
 H    0.4885728632   -0.6158769020    2.2154414700