20

 C   -0.1018801333    1.5292159493    0.1589812955
 C    0.0022532504   -0.0091024803    0.0814735241
 C    0.7053041437   -0.5879707639    1.3271270405
 C   -1.4219727974   -0.5889584475    0.0050229958
 N    0.6651060619   -0.4397418081   -1.1600360218
 C    1.8716453253   -0.1819976854   -1.4649007962
 N    2.8733573256    0.4813754586   -0.7766438359
 C    2.3411923085   -0.7076217496   -2.7419358089
 N    2.7358676800   -1.1029514318   -3.7538352452
 H    0.8650375059    2.0253032154    0.2914816907
 H   -0.5563619059    1.9245519811   -0.7538444310
 H   -0.7301152694    1.8188233140    1.0069310901
 H    0.1302181484   -0.3467086101    2.2266243204
 H    0.7738205032   -1.6767844639    1.2489364690
 H    1.7185276918   -0.2016483144    1.4640049748
 H   -1.9403981182   -0.2053170291   -0.8779823518
 H   -1.3814647692   -1.6782950461   -0.0788454415
 H   -2.0031170794   -0.3269911543    0.8951130889
 H    2.6030128746    1.0995518414   -0.0310254978
 H    3.6756674336    0.7791849948   -1.3093439498