19

 O   -0.3686460533    1.3737795742   -0.8105427689
 C   -0.1207269633    0.1673028130   -0.0941426361
 C   -1.4316202490   -0.5669238311    0.0525703774
 C   -1.9630959709   -1.3369611643   -1.1407717636
 C   -1.4211555361   -2.0735185066    0.0564697135
 O   -0.1777263255   -2.7137879234   -0.0080472319
 C   -2.4175941859    0.1195075343    0.9543424997
 C   -3.4540031604    1.0196926761    0.4416483007
 O   -3.7803142153   -0.3052008002    0.8818349347
 H    0.4598893099    1.8591697051   -0.8654470892
 H    0.6011106151   -0.4750033738   -0.6123090825
 H    0.2906273305    0.3843361357    0.9056975470
 H   -3.0356920354   -1.3496757003   -1.2960665441
 H   -1.3529839445   -1.3208949019   -2.0372724385
 H   -2.1495772430   -2.5546505451    0.7085316929
 H   -0.2756750395   -3.4897052539   -0.5695283339
 H   -2.0610287537    0.2847852080    1.9737377464
 H   -3.8352500950    1.8229682756    1.0695312403
 H   -3.5227710448    1.1848737385   -0.6311121139