16

 O   -0.3332335949    0.5402698326    0.8385977897
 C    0.2257063757    0.9456107080   -0.1528039762
 C    1.2747482724    1.9953321860   -0.1077175436
 C    1.7425286399    2.5702726497    1.2449118076
 C    2.7605439579    3.5804157949    0.7473075084
 C    2.5945626814    3.7782312757   -0.5796588986
 C    3.3919195731    2.8068349240   -1.4614644458
 N    2.1338478514    1.9260527082   -1.4334561090
 C    1.3174275608    3.1019756983   -1.0920099404
 H   -0.0179704099    0.5655235733   -1.1654925486
 H    0.8623704473    2.9234028239    1.7972884223
 H    2.2446832367    1.8439275347    1.8923058827
 H    3.7489958081    3.6086014708    1.1977343362
 H    3.5317707717    3.0713092962   -2.5137808689
 H    4.3032353834    2.3715628042   -1.0443588466
 H    0.5210326351    3.4868197196   -1.7199823292