21

 C    0.0491521862    1.5235884250   -0.1398959657
 C   -0.0383950101   -0.0044390910   -0.1749379441
 C   -1.4391640928   -0.5346045727    0.1499423684
 C   -1.5332654413   -2.0631655326    0.1146940071
 C   -2.9410197306   -2.5735410819    0.4426211202
 N   -3.0414781640   -4.0250395443    0.4261114206
 C   -3.7089912612   -4.7161759106   -0.5360466683
 O   -4.3246349291   -4.2236703231   -1.4578673207
 H    1.0596632229    1.8715036556   -0.3756402587
 H   -0.6362914311    1.9758851713   -0.8651665186
 H   -0.2146114052    1.9130553641    0.8497931186
 H    0.2633076655   -0.3669992923   -1.1663080585
 H    0.6829889420   -0.4300611313    0.5353261497
 H   -1.7428666731   -0.1717660502    1.1421751498
 H   -2.1618152979   -0.1104023150   -0.5606571719
 H   -1.2464248864   -2.4345705911   -0.8767587844
 H   -0.8141416564   -2.4919007203    0.8270035394
 H   -3.2572475859   -2.2001050107    1.4251742663
 H   -3.6605333896   -2.2131125567   -0.2964571610
 H   -2.5387026406   -4.5537278146    1.1213382738
 H   -3.6337594913   -5.8109863178   -0.3777032717