18

 O    0.0229886456    1.4880213365    0.1121061024
 C    0.0034636859    0.0977466494   -0.0693159803
 C    0.6583554459   -0.3727401808   -1.3766446361
 C   -0.0618477384   -1.6815342740   -1.7533187978
 C   -1.5194888137   -1.4567532097   -1.2937745795
 C   -1.3846596066   -0.6505489747   -0.0032353926
 N   -0.8280966388   -1.3888394323    1.1469906298
 C    0.3590012180   -0.7134953761    1.2038987085
 O    1.2842856012   -0.7046993851    1.9759198194
 H    0.6302841659    1.6765620836    0.8370099489
 H    0.4654248415    0.4064895829   -2.1233422618
 H    1.7425042200   -0.4817326231   -1.2837206397
 H    0.0131467480   -1.9121425077   -2.8187073559
 H    0.3757101698   -2.5247242515   -1.2087791637
 H   -2.0602109951   -0.8490209246   -2.0292044520
 H   -2.0809963622   -2.3869259141   -1.1628025510
 H   -2.2419921375   -0.0263554579    0.2565006146
 H   -1.2256940995   -2.0895676907    1.7561842168