21

 O   -0.1669620538    1.4526261701    0.0145771007
 C    0.0518928117    0.0524240885    0.0665784819
 C    0.4415035965   -0.4957330641    1.4487748056
 C    0.0837225626   -1.9854411452    1.3370265980
 O   -0.0625330181   -2.6666598110    2.5715042701
 C   -1.2370212840   -1.9726396667    0.5586640083
 C   -1.8486736068   -3.2579051715    0.0720589365
 C   -2.4948469464   -2.4986425181    1.2038140061
 C   -1.2644467519   -0.6790149058   -0.2666328118
 H    0.6724206769    1.8927062527    0.1814194219
 H    0.8262023675   -0.2338698917   -0.6635977809
 H    1.4903150402   -0.3162952834    1.7110949701
 H   -0.1940037471   -0.0319637874    2.2118618061
 H    0.8497015547   -2.4932204756    0.7260955076
 H    0.8129138300   -2.7909673179    2.9493884574
 H   -2.3342767717   -3.2560050413   -0.8988304731
 H   -1.3383737559   -4.1839968562    0.3190224007
 H   -2.4134643133   -2.9132033440    2.2006817634
 H   -3.4169965996   -1.9633512008    1.0009301165
 H   -2.0913797410   -0.0293889167    0.0388268656
 H   -1.3685602304   -0.8569550640   -1.3408596708