15

 O   -0.3348108329    0.0233705424    0.1950052341
 C   -0.0624020485    1.1434988357   -0.1415377885
 C    1.3416068554    1.7526821077   -0.0440361732
 N    1.5374870481    2.7517685399   -1.0999670014
 C    2.0853253226    3.9932958652   -0.5309446144
 C    1.8677567552    3.8065224015    0.9577398667
 C    1.4757323777    2.5659778923    1.2217087786
 C    3.5159067799    4.2008489842   -0.8436645356
 N    4.6305943384    4.3452226410   -1.1139907992
 H   -0.8148395400    1.8564532309   -0.5456592901
 H    2.0617328346    0.9210276319   -0.0582086666
 H    2.0687141282    2.4083621619   -1.8879174516
 H    1.5444924527    4.8694035319   -0.9159967958
 H    2.0584084820    4.5986528477    1.6689564511
 H    1.2625184966    2.1495284660    2.1974659959