16

 O    0.0325849030    1.3157115400    0.0736099438
 C   -0.0451984121   -0.0939409467   -0.0486492578
 C    0.5075143159   -0.8422523221    1.1805141754
 O   -0.5173698457   -0.7746056090    2.1703290796
 C   -1.7478575736   -0.8735320282    1.4978577871
 C   -1.5333886487   -0.4235747864    0.0303677253
 O   -1.8469498331   -1.7697246299   -0.4388267498
 C   -2.0707303983   -2.2270629818    0.8527949282
 N   -2.4111683199   -3.3558226900    1.2702390402
 H    0.9460818747    1.5584883644    0.2526084061
 H    0.4029580587   -0.4548048115   -0.9841501839
 H    0.7328589366   -1.8861355602    0.9174705587
 H    1.4090660865   -0.3849516253    1.5976859222
 H   -2.5319198374   -0.4296108065    2.1096695825
 H   -2.1746530641    0.3297450380   -0.4244951661
 H   -2.5261818326   -4.0230104448    0.5044558384