17

 C    0.0688616712   -1.2113148196    0.0684239508
 C    0.0307833253   -0.0098556346    0.0426340732
 C   -0.0186267056    1.4468984043    0.0066742303
 C   -0.5508590682    2.0849987920    1.2891174968
 C    0.5743333892    2.3479407373    2.2675292283
 C   -0.0043749162    3.4878873706    1.4513154601
 C    1.2750072261    3.5096574140    0.5762781251
 C    1.8522729799    2.3696589460    1.3934442649
 C    1.3543506341    2.1174286585   -0.0140146766
 H    0.1031538327   -2.2721326961    0.0920994348
 H   -0.6146399332    1.7703885026   -0.8566576942
 H   -1.5385105693    1.8432657009    1.6616056633
 H    0.5179367170    2.1558634714    3.3295445118
 H   -0.5909671901    4.3404083494    1.7640812566
 H    1.7592036753    4.3804000468    0.1566755960
 H    2.8667108702    2.1957527015    1.7230257766
 H    2.0648437716    1.9045905351   -0.8030250378