16

 C    0.0926309820    1.5855956848    0.0047595488
 C    0.0238275499    0.0546142500   -0.0027181152
 O    0.7067501226   -0.3696118942    1.1733503797
 C   -1.4550644441   -0.4514647866    0.0109478352
 C   -2.2145256568   -0.0045345902    1.1696685997
 C   -2.8509865393    0.3638539176    2.1200758123
 C    0.6789490589   -0.4934455011   -1.2015261578
 C    1.2028698247   -0.9802758762   -2.1679393564
 H    1.1365089099    1.9048441650    0.0048389035
 H   -0.4050625750    1.9983508535   -0.8760460658
 H   -0.3974679382    1.9622115848    0.9051463372
 H    0.8001077345   -1.3279774789    1.1358881684
 H   -1.9446679228   -0.1242766148   -0.9139319722
 H   -1.4382249502   -1.5479343651   -0.0244076147
 H   -3.4111528527    0.6863101531    2.9624693948
 H    1.6784905064   -1.3959881317   -3.0220565874