20

 C    0.7511295916    1.3429710728   -0.1729181726
 C   -0.0516343694    0.0322921946   -0.0041308755
 O   -1.4170209458    0.3518201099    0.1590294765
 C    0.1073435796   -0.8859780341   -1.2508874859
 C    0.9996778074   -2.1065090703   -0.9818924001
 C    2.1380164840   -1.7320664113   -0.0462614800
 O    1.6238165253   -1.3206724093    1.2346160132
 C    0.4486764133   -0.6522711028    1.2703849243
 N   -0.2207367721   -0.5107050036    2.3376526028
 H    1.8210876798    1.1658560670   -0.3227664752
 H    0.3622373040    1.8799633520   -1.0425854105
 H    0.6229330844    1.9712717466    0.7123815985
 H   -1.5732658472    0.3133791649    1.1178386466
 H   -0.8948879883   -1.1979779940   -1.5500864782
 H    0.5242004761   -0.2978946070   -2.0750999072
 H    0.4218616400   -2.9088898713   -0.5080701233
 H    1.4063811203   -2.5107584381   -1.9143294438
 H    2.7911308678   -2.5803975078    0.1719582239
 H    2.7555346681   -0.9284240492   -0.4683338163
 H    0.2194195014   -0.9819017291    3.1273871028