18

 C    0.0101214864    1.5656037345    0.0828917362
 C   -0.0247025945    0.0355553073    0.0872633177
 C   -1.4271439174   -0.5507167531   -0.0277670171
 C   -1.4582132673   -2.0719557874   -0.0906624121
 O   -2.1500164875   -0.1083892640    1.1723414913
 C   -3.4704673839   -0.0059677875    1.0803466290
 O   -4.1630611451   -0.2383976321    0.1260350933
 C   -4.0241921198    0.4598377271    2.3613319019
 N   -4.5111810758    0.8222920114    3.3436773815
 H    1.0383619756    1.9302262357    0.1569378157
 H   -0.4214111652    1.9695943277   -0.8394398778
 H   -0.5528835218    1.9748009409    0.9260554067
 H    0.5585444091   -0.3559979507   -0.7544905756
 H    0.4431939993   -0.3537417357    0.9994617336
 H   -1.9545445227   -0.1273861748   -0.8878276396
 H   -0.9840575162   -2.5058899638    0.7946934022
 H   -2.4849034500   -2.4378952145   -0.1606751362
 H   -0.9144142831   -2.4136875910   -0.9762563509