20

 C    0.0084102973    1.5736091202   -0.0185717929
 C    0.0646087919    0.0446489212    0.0059356780
 C    0.8189434902   -0.5862300147   -1.1828309180
 C    1.3430274566   -1.9377885049   -0.6174528479
 C    2.5620272407   -2.4101636312   -1.2613515589
 C    3.5679993341   -2.7763077888   -1.8076494440
 N    1.5014635448   -1.7804244867    0.8551527022
 C    2.2583849053   -0.5757480398    1.2318189011
 C    0.7728884774   -0.5491108191    1.2190063322
 H    1.0160455965    2.0028024062   -0.0181539443
 H   -0.5123718028    1.9358059072   -0.9109359824
 H   -0.5219050217    1.9640424275    0.8562386562
 H   -0.9641328828   -0.3402493855    0.0137445499
 H    0.1851133441   -0.7348259402   -2.0598512944
 H    1.6544448603    0.0461775101   -1.4958737143
 H    0.5632152879   -2.6994974872   -0.7435128468
 H    4.4557347173   -3.1125770825   -2.2834268039
 H    2.7883397494   -0.6614102058    2.1754985770
 H    2.8051084079   -0.0382245716    0.4619540252
 H    0.2292091356   -0.5779578544    2.1599466860