15

 O    0.0576687707    1.3333823533   -0.2902181538
 C    0.0647189440   -0.0678967180   -0.0680080023
 C    0.2524926795   -0.4950539038    1.4064689208
 C   -1.3055245150   -0.5409165780    1.5796687042
 C   -1.8404510006    0.7008954416    2.1074671872
 N   -2.2220888100    1.7241156705    2.4912847118
 C   -1.3915885123   -0.6194370286   -0.0084004140
 O   -2.3621801570    0.0885226011   -0.6906545628
 H   -0.1709884388    1.7929021429    0.5268768065
 H    0.7330740732   -0.4973382274   -0.8167381146
 H    0.6862258465   -1.4932283136    1.4931608486
 H    0.8041551224    0.1911835328    2.0515337694
 H   -1.7197365220   -1.3891008891    2.1274762074
 H   -1.4465069343   -1.6734707378   -0.2963506761
 H   -2.0079471965    0.9830626939   -0.8084342822