20

 C    0.1825539378    1.5444752695    0.1865710634
 C    0.2826096229    0.0191769739    0.0718431216
 C    0.6954662291   -0.4666746775   -1.3200530024
 O   -0.2271190029   -0.0886869045   -2.3168262848
 C    2.2090943881   -0.2495180683   -1.6529209905
 C    2.4861132878   -1.7271827787   -1.2778648553
 C    0.9578513937   -2.0090733807   -1.4083249533
 C    0.3220945546   -2.8954228555   -0.4502146592
 N   -0.1713994283   -3.5869206040    0.3347568457
 H    1.1229890204    2.0377598381   -0.0815024177
 H   -0.6088689159    1.9531433347   -0.4529375613
 H   -0.0633786990    1.8360110099    1.2111727078
 H    1.0051135820   -0.3547248962    0.8065463254
 H   -0.6807998390   -0.4373439923    0.3240345008
 H   -0.3970141359    0.8559413782   -2.2384538141
 H    2.3340136246   -0.0654333103   -2.7223684457
 H    2.7439046801    0.5178675226   -1.0894794302
 H    3.1353774521   -2.3050344088   -1.9360361916
 H    2.8315302812   -1.8450818222   -0.2491855491
 H    0.7079486465   -2.3297014979   -2.4229720795