16

 O   -0.1162510852   -0.0065510604   -0.0162609420
 C   -0.0637091982    1.1864085554   -0.0227118309
 O    1.0771643703    1.8666001940    0.1899746018
 C    1.0394517316    3.2873623334    0.1623042549
 C    1.8262312587    4.0303267179    1.2699667614
 C    3.1346472497    3.5493096282    0.5662710161
 C    2.1880343550    4.0038417678   -0.5894997212
 C    1.8381750622    5.2401188792    0.2899558827
 H   -0.9332118319    1.8486775647   -0.2011918481
 H    0.0206441834    3.6351391234   -0.0408538686
 H    1.6047777167    4.0409340417    2.3370681016
 H    4.0199459282    4.1682185791    0.7297229014
 H    3.3638598469    2.4862518614    0.6260050536
 H    2.3829000995    3.9842276538   -1.6616525350
 H    0.8845243172    5.7403913442    0.0972665159
 H    2.6456419160    5.9590540363    0.4368439465