15

 N    0.0340965489    1.3442690669   -0.1000741878
 C   -0.0347899350   -0.0119740530   -0.0151428338
 N   -1.1530397854   -0.6317389340    0.0150305058
 C   -1.1827823716   -2.0643750044    0.1685084723
 C    0.1251510363   -2.8271103655    0.3050912963
 O    0.1977787105   -4.0241623963    0.4601817141
 N    1.2707271719   -2.0451283651    0.2315987027
 C    1.3161979692   -0.6718775085    0.0564944229
 N    2.3677862145    0.0397023779   -0.0547775568
 H    0.9318669934    1.7434381870   -0.3219096444
 H   -0.8077514801    1.8359113781   -0.3470965451
 H   -1.7882744554   -2.3280015315    1.0464112285
 H   -1.7167597615   -2.5151891088   -0.6795942025
 H    2.1422887799   -2.5562022250    0.3033302872
 H    3.2251479243   -0.5122470275   -0.0034465596