19

 C   -0.1027014937    1.6060053878    0.0367264849
 C   -0.0988123454    0.0770055036    0.0933660116
 C    0.8325440496   -0.4735058087    1.1858531019
 C    0.8598683205   -1.9754149724    1.2138288372
 C   -0.1397531299   -2.8675037763    1.9786655944
 C    1.3183063234   -3.0182513854    2.2046720078
 O    1.8737688733   -3.8492860366    1.1455098112
 C    1.5471125951   -2.8724956101    0.2102309116
 O    1.8333760492   -2.8503762987   -0.9427386307
 H    0.8992065789    1.9971993235   -0.1715725818
 H   -0.7714657392    1.9711041299   -0.7483668387
 H   -0.4360740857    2.0391659542    0.9866838935
 H   -1.1164509467   -0.2926697751    0.2706831366
 H    0.2143234802   -0.3335673856   -0.8733215253
 H    1.8495287531   -0.0952685562    1.0207287185
 H    0.5176155370   -0.0988742273    2.1682655120
 H   -0.6972965445   -2.3317509477    2.7423119260
 H   -0.6847626281   -3.6598302980    1.4754068455
 H    1.8828346433   -2.9444075507    3.1230621338