19

 C    0.1204254313    1.5613479826    0.0310988450
 C    0.0189879446    0.0311938132    0.0116597951
 C    0.5834248749   -0.5489587642   -1.3061377588
 C    0.7758634858   -2.0428723860   -1.2709736803
 C    1.0764572707   -2.6935763869   -0.1463843085
 C    1.2134550920   -1.9716225245    1.1422314096
 N    2.1369010707   -0.7968393142    1.1613274462
 C    0.6851428122   -0.5831390776    1.2295046150
 H    1.1702876409    1.8732101387    0.0237397552
 H   -0.3706782260    2.0027751931   -0.8424907876
 H   -0.3498300939    1.9820164018    0.9266514991
 H   -1.0423338999   -0.2504937058    0.0710210223
 H   -0.0798696291   -0.2695109789   -2.1326963323
 H    1.5490989014   -0.0696480751   -1.5143481728
 H    0.6920239805   -2.5854901353   -2.2087529965
 H    1.2262758992   -3.7692702140   -0.1448284416
 H    1.1840179524   -2.5787500059    2.0430131459
 H    2.5455291685   -0.7051534715    2.0882439079
 H    0.2655851439   -0.2707798695    2.1851801273