19

 C   -0.0400562233    1.5093349764    0.0327918396
 C    0.0688924289    0.0070292412   -0.0541523458
 C    0.5538650359   -0.6839633591   -1.3472383828
 C   -0.5515288576   -1.6916397879   -0.9745711648
 C   -0.0620469356   -2.7720832697    0.0035703865
 C    0.6397859613   -2.1178613973    1.1848255571
 O    1.8896137359   -1.4559126622    0.9380189462
 C    0.7253027956   -0.6512964193    1.1686869306
 O   -1.2350779273   -0.6524375125   -0.2159531294
 H    0.9574390539    1.9596632105    0.0785936052
 H   -0.5676418373    1.9072823453   -0.8375697247
 H   -0.5889371487    1.8053082282    0.9334621504
 H    0.2863102819   -0.0971717943   -2.2278862755
 H    1.5863139661   -1.0247953080   -1.3939143803
 H   -1.1837339502   -2.1031319957   -1.7655396582
 H   -0.9281758724   -3.3271295909    0.3811331162
 H    0.5972676253   -3.4899722912   -0.4987074898
 H    0.6045259544   -2.6465366678    2.1357691698
 H    0.7394403933   -0.0819054556    2.0968170295