21

 C   -0.1697619346    1.3500470920   -0.9696733873
 C   -0.0261900172    0.1289869809   -0.0541719393
 C   -1.3577375735   -0.5249783413    0.2529811827
 O   -2.2996167826    0.2667135762    0.9329227456
 C   -1.9877327325    0.5081378710    2.2934134083
 C   -2.0339121549   -1.4119732040   -0.7580182582
 O   -1.3183596295   -1.6785467817   -1.9403995418
 C   -1.4634375112   -2.0251847480    0.5080865279
 O   -0.3470827893   -2.8500193733    0.3763353156
 H    0.7944704151    1.8462759514   -1.1164670497
 H   -0.5533907337    1.0517919676   -1.9497207263
 H   -0.8666668528    2.0769486543   -0.5423907149
 H    0.6369575753   -0.6115473575   -0.5071427516
 H    0.4513347569    0.4160995908    0.8908446119
 H   -2.8573223445    1.0032025630    2.7322691100
 H   -1.7929059247   -0.4263517034    2.8374948703
 H   -1.1154368427    1.1651040509    2.4096831984
 H   -3.1094195261   -1.2974155646   -0.8669754485
 H   -1.7504605772   -2.4166104513   -2.3838680908
 H   -2.1499088030   -2.3584289093    1.2811923492
 H   -0.1432896670   -2.8715822838   -0.5693177216