15

 N    0.0621235468    1.4233420587    0.1447260037
 C    0.0252726457    0.0224799396    0.0211214549
 C   -1.0531536202   -0.8101873399   -0.0075406315
 O   -0.6444637861   -2.1149639288   -0.0357754907
 C    0.7102193478   -2.1026995717   -0.0370806945
 C    1.1862468094   -0.8305591067    0.0015583344
 C    2.6136483344   -0.3950224437    0.0449565881
 O    3.4396795291   -1.5459143765   -0.0163753740
 H    0.7151851364    1.8506095141   -0.5021515174
 H   -0.8476239313    1.8454751100    0.0056297502
 H   -2.1171904026   -0.6438889337    0.0021304027
 H    1.2018780126   -3.0593598782   -0.0639698385
 H    2.8279252012    0.2888885497   -0.7968939938
 H    2.7953464753    0.1833676495    0.9665848470
 H    4.3532036117   -1.2637471624    0.0811995795