15

 C   -0.0295105201    1.5055756399    0.0483091075
 C    0.0001308057    0.0161849614   -0.0446015371
 C   -0.0361146258   -0.8307110524   -1.1231056728
 C    0.0203391685   -2.1756282510   -0.6340999189
 C    0.0084313136   -3.4051658023   -1.4141420292
 O    0.0584274428   -4.5272891758   -0.9529947633
 C    0.0900530642   -2.0983431665    0.7472615020
 N    0.0770801382   -0.7819604555    1.0856182239
 H    0.8713865508    1.9083215139    0.5276439431
 H   -0.0911767597    1.9370837347   -0.9529140320
 H   -0.8938902823    1.8675096212    0.6187778684
 H   -0.0966811732   -0.5290902905   -2.1584204726
 H   -0.0522562077   -3.2460024203   -2.5152591456
 H    0.1463032806   -2.8835730246    1.4828754568
 H    0.1177021444   -0.4312867224    2.0282721597