17

 C   -0.2734701925    1.3130573374   -0.8044085870
 C   -0.0356626256    0.0178730422   -0.0553275799
 C    1.0625175586   -0.8854702152   -0.5135236002
 N    1.1890440671   -0.1448729979    0.7530471596
 C   -1.2380585508   -0.5777708641    0.5786816800
 C   -1.3404453335   -1.2644431178    1.7668048908
 N   -2.6536069179   -1.5812351034    1.8428803690
 N   -3.3394672531   -1.1215999451    0.7806858631
 N   -2.4801653495   -0.5136460457    0.0137589671
 H    0.6437502612    1.6495485432   -1.2981850858
 H   -1.0506914363    1.1794330672   -1.5612203461
 H   -0.6104178869    2.1007910010   -0.1220398180
 H    0.9565376709   -1.9609029735   -0.4049902318
 H    1.6546301918   -0.5684905003   -1.3683773693
 H    1.7919886123    0.6641490100    0.6238362655
 H   -0.6153449843   -1.5240077410    2.5175076543
 H   -3.1446915614   -2.0807626271    2.5669212590