23

 C   -0.0597658033    1.4454729655   -0.2211722794
 O    0.0371727652    0.0786259445    0.0990382618
 C   -1.2029409212   -0.6030605884    0.0708000781
 C   -1.6861425390   -0.9159639692   -1.3703943790
 C   -1.7677004872   -2.4573742578   -1.4167015730
 C   -1.3808827357   -3.0931089783   -2.7402101412
 O   -0.8690278473   -2.8957710573   -0.4065500305
 C   -1.0377664180   -2.0128318332    0.6953776416
 C    0.1126302843   -2.1857250383    1.6694650316
 H    0.9391622253    1.8756218099   -0.1139191679
 H   -0.4039387570    1.6123850514   -1.2533013757
 H   -0.7494734517    1.9725267649    0.4577731478
 H   -1.9445423828   -0.0180317873    0.6356331784
 H   -2.6374466942   -0.4420210673   -1.6243085116
 H   -0.9268857867   -0.5602769401   -2.0736462545
 H   -2.7921658214   -2.7710031465   -1.1451981403
 H   -0.3632372301   -2.8011832187   -3.0176106856
 H   -1.4194334776   -4.1837520882   -2.6695672083
 H   -2.0646670625   -2.7752088162   -3.5335266309
 H   -1.9910636953   -2.2544390291    1.1998888360
 H    1.0594282229   -1.9377029585    1.1880116012
 H   -0.0169605958   -1.5287199487    2.5342349890
 H    0.1482076192   -3.2206442930    2.0201336125