15

 O    0.0788309702    1.3737731965    0.0404834187
 C    0.0601825405    0.0243519542   -0.0471086716
 C   -0.0012206958   -0.7285778353   -1.1895619210
 N    0.0050962650   -2.0453902227   -0.7338061837
 C    0.0687659837   -1.9915696412    0.6107074454
 N    0.0943145688   -3.1161354959    1.4228792878
 C    0.0648623301   -4.4160407276    1.0059573380
 N    0.0054345146   -4.7461559155   -0.2303793604
 N    0.1040248758   -0.7561802812    1.0775706668
 H    0.1250921126    1.5808606864    0.9811604175
 H   -0.0475532914   -0.4742181354   -2.2323992471
 H   -0.0250970530   -2.9235353362   -1.2370496700
 H    0.1434246347   -2.9164714778    2.4082453734
 H    0.0973589407   -5.1171706266    1.8454300799
 H   -0.0076495765   -5.7564060717   -0.3323424736