20

 O    0.3541413237    0.7751536887    0.7779988529
 C    0.1694184821   -0.3624004069   -0.0514090661
 C   -1.3197538466   -0.6735143303   -0.2145589663
 C   -2.1716230394   -1.0863362584    0.9503499643
 C   -2.3631534019    0.2731063957    0.3271451272
 C   -1.4464039889   -1.3110986185   -1.5952726595
 N   -0.3239551168   -0.8164818586   -2.4236267429
 C   -0.1723409759    0.6452090635   -2.3856512847
 C    0.6489024425   -0.2081187904   -1.4913414412
 H    1.2950437982    0.8667861154    0.9547061825
 H    0.6790826692   -1.2314987974    0.3957084902
 H   -2.9292748841   -1.8463162611    0.7859472955
 H   -1.7008149988   -1.1259578024    1.9276780987
 H   -2.0163156658    1.1352849921    0.8830133757
 H   -3.2504282470    0.4404300722   -0.2755814379
 H   -1.3437298822   -2.4018050823   -1.5359306459
 H   -2.4031151217   -1.0938745431   -2.0820438583
 H    0.2756084522    1.0709945476   -3.2785330956
 H   -0.9569534024    1.2453847423   -1.9341193135
 H    1.7003563036   -0.3805322681   -1.7081541552