18

 C    0.0046923807    1.6316639709   -0.0820016533
 C   -0.1721003075    0.1450641535    0.2218278387
 N    0.3872263891   -0.1718430999    1.5295882381
 C   -0.1256534072   -1.0867222527    2.2094122206
 O   -1.1980370545   -1.8916100092    1.8924050454
 C   -1.3912966034   -2.7341146455    2.9751869616
 C   -0.4807646043   -2.4734094619    3.9089126258
 C   -0.1853156723   -3.0305237056    5.2476912158
 O    0.3290967735   -1.4450600751    3.4507551486
 H    1.0613439670    1.9095338129   -0.0318167525
 H   -0.3728951791    1.8699210655   -1.0816855303
 H   -0.5375118928    2.2429214545    0.6459328643
 H   -1.2337541305   -0.1300965846    0.1493249988
 H    0.3559062179   -0.4452575054   -0.5407004291
 H   -2.1994100188   -3.4407726762    2.9120015914
 H    0.8303472767   -3.4390214489    5.2869077434
 H   -0.2592531307   -2.2569684623    6.0197496153
 H   -0.8914564039   -3.8289940298    5.4855787474