22

 C   -0.4381204673    1.4798422374    0.5393359244
 O    0.0400116563    0.2315073473    0.0841760227
 C    0.6661633914   -0.5140664509    1.0806100994
 C   -0.1649815373   -1.4244224017    2.0450258355
 C   -0.5302724203   -2.2975640382    0.8160875269
 C    1.0006488916   -1.9862234118    0.7249891938
 C    2.0194580948   -2.4898103910   -0.2549288843
 N    1.1440936011   -2.1617603273    2.2366532811
 C    1.1046775327   -3.5106444145    2.7886764115
 H    0.3703996133    2.0874619290    0.9732715546
 H   -0.8502853294    2.0046249171   -0.3256527357
 H   -1.2278042575    1.3657652481    1.2964044444
 H    1.4770428782    0.0352492046    1.5747349621
 H   -0.7851957809   -1.1382847258    2.8961567176
 H   -0.8178517261   -3.3320113632    1.0028012897
 H   -1.1659953703   -1.8411789025    0.0563617229
 H    1.7783132531   -2.1386255552   -1.2630940268
 H    3.0174617459   -2.1247046660    0.0084154772
 H    2.0472234856   -3.5844531963   -0.2750259728
 H    2.0738356523   -3.9884381129    2.6096293850
 H    0.9725845754   -3.4351911222    3.8732909078
 H    0.3223858272   -4.1817638840    2.4021779429