21

 C    0.1326286942    1.5198958652    0.1087330324
 C   -0.0099437509    0.0267284205    0.0722032187
 C   -0.8328754694   -0.7668952035   -0.9530486584
 C   -1.2499963493   -1.7826953132    0.1605321161
 C   -0.4179105764   -0.9992185333    1.1765353443
 C    0.9928505888   -0.8873006352    0.7020732816
 C    1.9956177864   -1.8978618197    0.1416601421
 C    2.9794315594   -1.2103998140    1.1112106726
 O    1.9544357488   -0.3113601557    1.5953115149
 H    0.7562065246    1.8259611741    0.9527061145
 H    0.6108545894    1.8866326349   -0.8086100322
 H   -0.8401899353    2.0172599505    0.1941335885
 H   -1.6853365223   -0.1991737299   -1.3348079646
 H   -0.2785649773   -1.1690309714   -1.8089852227
 H   -2.3215011460   -1.7497097662    0.3685902325
 H   -0.9620796550   -2.8288053043    0.0064484728
 H   -0.6537551537   -0.8332061098    2.2220764516
 H    1.7776812017   -2.9445282228    0.3637208860
 H    2.2292597121   -1.7940325514   -0.9198715396
 H    3.3754580185   -1.8392244407    1.9162846429
 H    3.8053975517   -0.6646686641    0.6409332459