18

 C   -0.1108569711    1.5407496487    0.0554670923
 C    0.1124373313    0.0620298380    0.0336244652
 N   -0.7835241863   -0.8958574475    0.7229191830
 C    0.6748784076   -0.9050466613    1.0149155201
 C    1.3013903705   -1.7698787830   -0.0728547361
 C    0.6771272641   -0.7686787260   -1.1566619458
 N   -0.3402874505   -1.1979814882   -2.0919311489
 C    1.7415559486   -0.0552036456   -1.8653538559
 N    2.5998468878    0.5024805717   -2.4025268840
 H    0.7746367608    2.0744276407   -0.3021850115
 H   -0.9533182877    1.8162378432   -0.5881130322
 H   -0.3297412352    1.8847076692    1.0718480881
 H   -1.2509046790   -0.3790575443    1.4670303883
 H    1.0409089342   -0.7299250515    2.0186402799
 H    2.3922902451   -1.7625619051   -0.0754205337
 H    0.9267702346   -2.7942294436   -0.1378835877
 H    0.0305266909   -1.8745350916   -2.7515217592
 H   -1.0786454555   -1.6445538535   -1.5550737818