15

 N   -0.0910483937   -1.0810432597   -0.1190502959
 C   -0.0373676042    0.0738170697   -0.0691410356
 C   -0.0527654764    1.5003460112    0.0213968947
 C   -1.3881560456    2.3331011221    0.3062543841
 C   -0.5270859468    3.4945569310   -0.2057274515
 C    0.1888396066    4.1186571618    0.7503067075
 C    1.5360934746    3.4209206637    0.8613946652
 N    1.3396096844    2.1646369930    0.0775350129
 C    0.4080143914    2.5188946920   -0.9602172136
 H   -2.1620131152    1.9440840987   -0.3628881774
 H   -1.7621089718    2.4016590607    1.3292510947
 H   -0.2679168448    4.5730194596    1.6242189143
 H    2.4185337391    3.9156429662    0.4364879943
 H    1.7457370745    3.2128581876    1.9159899686
 H    0.6133182579    2.4233487924   -2.0195573723