17

 C   -0.0227955078    1.5811193225    0.0040228044
 C    0.0139636891    0.0868394439   -0.0250444175
 C   -0.0907861339   -0.8197137718   -1.0591100181
 C    0.1238958078   -1.3257144781   -2.4794114167
 C    0.3895477217   -2.7225745143   -1.7916282425
 N   -0.0288373797   -2.0644556669   -0.5404048406
 N    0.2028949480   -2.0954870762    0.7972060413
 C    0.1635661157   -0.7955123731    1.0943223811
 O    0.2445505573   -0.3623684212    2.3707765324
 H    0.7851650180    1.9852062634    0.6226952236
 H    0.0833496214    1.9959966809   -1.0022814714
 H   -0.9629947313    1.9621008703    0.4207996605
 H   -0.7425251101   -1.2930342214   -3.1437946890
 H    0.9918707459   -0.9116874042   -2.9966350077
 H   -0.2364479683   -3.5674827728   -2.0897854086
 H    1.4437676506   -3.0139277245   -1.7981816755
 H    0.3528227155   -1.1442424165    2.9268243043