21

 C    0.0426614136    1.2824234964   -0.2664075636
 O   -0.0281090664   -0.1266077943   -0.1567666202
 C   -1.3149475095   -0.6023766859    0.1584625011
 O   -2.2418960993   -0.3991810118   -0.8908144139
 C   -2.5482690745   -1.6470739998   -1.5022146778
 C   -1.9279637550   -2.6971028964   -0.6172645748
 C   -2.1137143516   -4.1525992385   -0.9004795762
 C   -1.2348266969   -2.0973493846    0.3528526133
 C   -0.4107669529   -2.6718117664    1.4575812393
 H    1.0875472883    1.5384496686   -0.4563632020
 H   -0.5775924835    1.6528613195   -1.0914692505
 H   -0.2815426184    1.7741761336    0.6641030727
 H   -1.6869641608   -0.0471121884    1.0380598611
 H   -3.6412714452   -1.7457668637   -1.5737556641
 H   -2.1499379288   -1.6904424748   -2.5288802291
 H   -3.1758878852   -4.4275670096   -0.8828085578
 H   -1.7407219402   -4.4097489452   -1.9000420092
 H   -1.5915410816   -4.7819514263   -0.1762177742
 H   -0.3936651636   -3.7641258991    1.4365018755
 H    0.6201345668   -2.3076767679    1.3879884037
 H   -0.7910742653   -2.3599124556    2.4388671965