18

 C    0.1392764802    1.5712454782   -0.0681710901
 C   -0.0361245442    0.0597405709    0.1015675288
 N    0.7012564918   -0.4806462257    1.2256125804
 C    2.0931359167   -0.6645230649    1.3118214721
 C    2.3687891112   -1.1213246656    2.5527160222
 N    3.5669266278   -1.3990912257    3.2230128799
 N    1.1554843034   -1.2432084734    3.2248452389
 C    0.0955445093   -0.8175249726    2.4240751722
 O   -1.0862747483   -0.7569346571    2.7150754437
 H    1.1904950522    1.8347976838   -0.2226573110
 H   -0.4295307069    1.9239764679   -0.9342823989
 H   -0.2190464863    2.1007416486    0.8190104366
 H   -1.0849593676   -0.1825633915    0.2906752123
 H    0.2716823706   -0.4656344103   -0.8107834699
 H    2.7449946342   -0.4879120860    0.4739174219
 H    4.3686521633   -1.1549245152    2.6551339435
 H    3.6467605403   -2.3771062864    3.4876572739
 H    1.0500123722   -1.3898502150    4.2136943636