20

 C   -0.2104209630    1.4944733416   -0.1661430003
 C    0.0154849437    0.0066377436    0.0134023817
 C    1.3882439086   -0.6455146780   -0.1685282170
 C    2.7054187838    0.1563866572   -0.5152160492
 O    2.8177670806    1.2670207617    0.0537734822
 O    3.4376229986   -0.4473618875   -1.3015441347
 C    0.7606902077   -0.5445792174    1.1968642569
 C    1.3171843154    0.2499423028    2.3445375333
 N    0.1984705753   -1.8710408442    1.6899240524
 H    0.9420845917   -2.4207535731    2.1309766615
 H   -0.5496615497   -1.7377331937    2.3777982162
 H   -0.1682777787   -2.4116061352    0.9031134935
 H    0.7276924648    2.0294907835   -0.0089190298
 H   -0.5430801871    1.6879191442   -1.1906747350
 H   -0.9839916709    1.8695525897    0.5137167016
 H   -0.8268672560   -0.6064234057   -0.3153080206
 H    1.3808065535   -1.6324191403   -0.6293847289
 H    1.9050906607    1.0576049572    1.8922925992
 H    0.5320283498    0.6483943419    2.9988018446
 H    2.0097271011   -0.3533148584    2.9466468122