16

 C   -0.0860018543    1.6878278319    0.1608344640
 C   -0.0781928625    0.1777061196    0.0828179046
 C   -1.3697732108   -0.4586555245   -0.4360893783
 C   -1.6378136150   -0.1136194056   -1.8335122536
 N   -1.8369350896    0.1600402902   -2.9379494001
 N    1.1979177889   -0.4293141799   -0.2900034578
 C    0.6873242357   -0.6449628997    1.0805580396
 C    1.4290388976   -0.0401007821    2.1608015533
 N    1.9938901216    0.4418891023    3.0465909564
 H    0.8714535612    2.0560390581    0.5316799337
 H   -0.2581487773    2.1138996670   -0.8322396013
 H   -0.8790689083    2.0387356004    0.8290578479
 H   -1.3240680103   -1.5503590237   -0.3513755080
 H   -2.2189048966   -0.1283845991    0.1735048253
 H    1.0766248879   -1.2754061938   -0.8423160115
 H    0.2796362217   -1.6210481412    1.3318071958