19

 O   -0.0535152064    1.3462417691   -0.0660118129
 C    0.0230485452   -0.0369008524   -0.0114916286
 C   -1.1927723376   -0.9110541614    0.0076494538
 C   -1.0701271783   -2.0134210758   -1.0446431689
 C    0.2362438143   -1.6718293290   -1.8077625763
 C    1.0688527143   -0.8452551476   -0.8121517571
 O    1.7386099977   -1.6890259540    0.1304343049
 C    0.8885100955   -1.9320007752    1.2547876185
 C   -0.2177133054   -0.8967599457    1.1952958722
 H    0.6981023162    1.7096735419    0.4157912743
 H   -2.1615549433   -0.4667890213    0.2072381672
 H   -1.0214304075   -3.0080014432   -0.5872587280
 H   -1.9383400745   -2.0170373840   -1.7091198793
 H    0.7840906616   -2.5478049988   -2.1639962976
 H    0.0007281061   -1.0424047611   -2.6736907472
 H    1.8238138227   -0.2184270378   -1.2937011176
 H    0.5087328399   -2.9643913164    1.2237065095
 H    1.4845156504   -1.8257066378    2.1694967894
 H   -0.5862828009   -0.4591348596    2.1160736637