18

 C   -0.5682867018    0.7790694609    0.7983260891
 O   -0.0105312886   -0.4709035419    0.4237695512
 C    0.5550014453   -0.4696917902   -0.8792438285
 C    1.4068956127   -1.7372245302   -1.0564705790
 C    2.6994056712   -1.7903593479   -0.2283601741
 N    2.5415514096   -1.5334266712    1.0981530273
 O    3.7658631441   -2.0786328912   -0.7334410336
 C   -0.5594447353   -0.4888192002   -1.9262332768
 O   -0.4617595935   -0.0311535718   -3.0325882526
 H    0.1965931287    1.5681309929    0.8166746495
 H   -1.3711037917    1.0890020201    0.1151381549
 H   -0.9859034925    0.6566418906    1.7996089330
 H    1.1723552385    0.4259519863   -1.0419150889
 H    0.7891089470   -2.6090589360   -0.8074296916
 H    1.7083606123   -1.8203535906   -2.1016980704
 H    1.6530746953   -1.2190260782    1.4541467362
 H    3.3613554338   -1.5295411621    1.6822561995
 H   -1.4803717650   -1.0079800293   -1.5712196550