18

 C    0.1707700749    1.4603211654   -0.0065211701
 O   -0.3054697750    0.1554609469    0.2933138741
 C    0.4910149202   -0.5216339657    1.2159137876
 C    0.0954840220   -1.9940032191    1.4747824065
 C   -0.4505631257   -2.8368483072    0.2922079992
 C    0.9889073665   -3.4087709256    0.1147353939
 N    1.5034433534   -2.4346980894    1.1398157167
 C    1.8070605995   -1.1421744030    0.6421181993
 O    2.6746540375   -0.7680032825   -0.0949019712
 H    1.1760979389    1.4278760167   -0.4407095566
 H   -0.5267592197    1.8914473140   -0.7274260818
 H    0.1901091365    2.0898005149    0.8960022422
 H    0.6315323178    0.0603397777    2.1406353806
 H   -0.2707271486   -2.2403413588    2.4725008109
 H   -1.2236794186   -3.5617211938    0.5508294017
 H   -0.7946600385   -2.2235719074   -0.5425859991
 H    1.1123388439   -4.4395171506    0.4542119214
 H    1.4656354048   -3.2892934026   -0.8608656554