23

 C   -0.6450930391    1.3899507199    0.2401626797
 C   -0.0091867483    0.0280869600   -0.0224137857
 C   -1.0323017296   -0.9090328136   -0.6706231018
 C    1.3387449468    0.0169019688   -0.8058025793
 C    1.8940744675   -1.0419136840    0.1767080811
 C    0.7619942786   -0.6704514334    1.1948891484
 C    1.2758355815    0.3147690883    2.2593874256
 C    0.0851638567   -1.7793703342    1.8472121761
 C   -0.4688444642   -2.6926516237    2.4020759682
 H    0.0608081066    2.1054323832    0.6698469699
 H   -1.0167047530    1.8178503390   -0.6983364473
 H   -1.4990999492    1.3053341555    0.9222039983
 H   -1.3867181235   -0.4779052521   -1.6137267634
 H   -0.6079583848   -1.8931853002   -0.8889757389
 H   -1.8969007276   -1.0633152913   -0.0179652865
 H    1.2817043497   -0.2662184940   -1.8598924888
 H    1.8681167882    0.9712091309   -0.7350331739
 H    1.7889431682   -2.0617112997   -0.1972589145
 H    2.9153975783   -0.9075229101    0.5414200825
 H    1.8443510822    1.1307958830    1.8036055321
 H    0.4528527571    0.7467070018    2.8353421701
 H    1.9372654435   -0.2080072663    2.9566759608
 H   -0.9572540057   -3.5020248579    2.8854766372