20

 C   -0.9503845161    1.0802382210   -0.0590034583
 C    0.1175078712    0.0076376388    0.0839170673
 C    1.3213776130    0.0156795822   -0.9037933692
 C    2.2462874405   -0.3453783998    0.2801867162
 C    1.1403305873    0.1227539157    1.2524718914
 C    2.7402585184   -1.8125842453    0.3945294995
 N    4.2051197255   -1.7298707348    0.5134528981
 C    4.4742847274   -0.4930183072    0.4744645629
 O    3.4786723098    0.4146429524    0.3459122828
 H   -0.5013316898    2.0798432658   -0.0709647532
 H   -1.5161936013    0.9571739237   -0.9891706709
 H   -1.6639915674    1.0446408530    0.7716554908
 H   -0.3491888280   -0.9834966880    0.0939477442
 H    1.3035627377   -0.6698400914   -1.7555291789
 H    1.5376440446    1.0268506708   -1.2615457525
 H    1.3024209971    1.1659668425    1.5399747043
 H    0.9754196053   -0.4757698320    2.1526291341
 H    2.3263388839   -2.3220980841    1.2720243624
 H    2.4738990105   -2.4093897375   -0.4851328873
 H    5.4683289904   -0.0634577960    0.5367099762