17

 O   -0.9346989331    1.5000465737    0.2184430466
 C    0.0845874442    1.0145455040   -0.1953526643
 C    1.4009132550    1.7941203317   -0.3396605873
 O    2.3639031864    1.2013578865   -0.7680559740
 C    1.3859729513    3.2477502421    0.0678407881
 C    2.7340998538    3.9425486682   -0.1091443356
 C    2.6808576666    5.4234655154    0.3143417983
 C    3.9598121287    6.1038077125    0.1525190557
 C    5.0246422915    6.6424492491    0.0101962390
 H    0.1773317948   -0.0451334489   -0.5145641320
 H    0.5907979738    3.7435465652   -0.5067464333
 H    1.0338378757    3.2954341335    1.1080198222
 H    3.4986175056    3.4220163504    0.4754371154
 H    3.0530484136    3.8717069521   -1.1533745677
 H    1.9129838175    5.9464890862   -0.2714660759
 H    2.3596364829    5.4954619009    1.3621940141
 H    5.9612596818    7.1273084974   -0.1118441492