17

 C   -0.2149046369    1.5916618739   -0.1602835258
 C    0.0452500031    0.1023850418   -0.0053071017
 O   -1.1011308960   -0.5584747466    0.6477831797
 C   -0.3709138912   -0.6851648468    1.9065052096
 C    0.8923309900   -0.4114959934    1.1264879917
 C    2.0106866684   -1.0273707304    0.7408255904
 C    2.0429506600   -1.0113674144   -0.7607537129
 O    0.9917414631   -1.8716811631   -1.2641595036
 C    0.7367784189   -0.4789180339   -1.2384142837
 H    0.6676833288    2.1041891070   -0.5566816030
 H   -1.0467489242    1.7496830290   -0.8551953728
 H   -0.4770851937    2.0474128715    0.7978149550
 H   -0.6858694086    0.0791644644    2.6277777393
 H   -0.4711930654   -1.6802898289    2.3499281459
 H    2.6449188461   -1.6734899528    1.3354534364
 H    2.9485592370   -0.9992080705   -1.3590576248
 H    0.6216277607   -0.0030700267   -2.2094575998