19

 O    0.0695453332    1.2741621679    0.4422489553
 C    0.0070169704   -0.0436219661   -0.1000446388
 C   -1.4056267033   -0.4932824690   -0.1127778199
 C   -2.3738503167   -0.8259164890    1.0152862384
 C   -3.4372107324    0.1108247302    0.4512658534
 C   -2.7072344341   -0.0604096612   -0.9101769993
 C   -2.9280716200   -1.5574481977   -1.2839209092
 C   -2.0395949425   -1.8570376582   -0.0803378910
 O   -1.3771209413   -3.0343084352    0.2087241704
 H    0.9811453235    1.5753981656    0.3777796317
 H    0.4198343582   -0.0635377257   -1.1220010760
 H    0.5957930988   -0.7545344261    0.5014664551
 H   -2.1136872630   -1.0296741577    2.0470468334
 H   -4.4904766805   -0.1916538420    0.4971870989
 H   -3.3239449252    1.1236086530    0.8465425851
 H   -2.7526643963    0.7102655933   -1.6760673793
 H   -3.9599496395   -1.9295375094   -1.2985213353
 H   -2.4225257915   -1.8232850165   -2.2166927694
 H   -1.9563805477   -3.5853353962    0.7465488265