25

 C   -0.1012639995    1.5913297333   -0.0129952984
 C   -0.1081359342    0.0631037194   -0.1294203655
 C    0.7587656606   -0.5160842894   -1.2626589279
 C    0.3199772518   -0.0155102835   -2.6367191030
 C    2.2922387760   -0.4156701273   -0.9620438863
 C    2.2724396205   -1.8666978976   -0.4501690220
 C    0.8877769769   -2.0700712209   -1.1293837823
 O    3.3573755970   -2.6366584393   -0.9001152750
 C    3.3147921332   -3.9713653690   -0.4513175942
 H    0.9162269106    1.9817758701    0.0977808870
 H   -0.5458242570    2.0691708262   -0.8909813026
 H   -0.6747994281    1.9144436009    0.8613869371
 H    0.2228204012   -0.3667938599    0.8247336161
 H   -1.1405271684   -0.2849742300   -0.2722529377
 H    0.4532865644    1.0667917446   -2.7383880961
 H    0.9046587534   -0.4935886221   -3.4292907904
 H   -0.7379904460   -0.2397963462   -2.8203336263
 H    2.8841803527   -0.3543796426   -1.8793007568
 H    2.6299546336    0.3594655391   -0.2697099779
 H    2.1996319092   -1.9275847816    0.6468518564
 H    0.1067481767   -2.5878758860   -0.5652086985
 H    1.0091149874   -2.5539232808   -2.1033055699
 H    3.3244179962   -4.0316495299    0.6489529610
 H    2.4212942944   -4.5014101472   -0.8148574581
 H    4.2034196373   -4.4754745203   -0.8392533487