21

 C   -0.1468488024    1.4427695828    0.0235009888
 C   -0.1024021208   -0.0097863390    0.1012371617
 C   -0.0731440297   -1.2111109143    0.1619144424
 C   -0.0149737043   -2.6638753297    0.2448586073
 O   -1.1924659783   -3.2238980124   -0.3278301999
 C   -1.3369466340   -4.6049399732   -0.1147643729
 C   -0.3803330627   -5.4824241299   -0.8937553869
 C   -1.8222440042   -5.0314662113    1.2513543822
 C   -2.7628920699   -5.0272690330    0.0604479718
 H    0.7211885345    1.8417812263   -0.5127382993
 H   -1.0453372724    1.7782161031   -0.5061017941
 H   -0.1613071846    1.8973745512    1.0201980498
 H    0.8835671550   -3.0275636471   -0.2775539954
 H    0.0794233518   -2.9797187608    1.2959898027
 H    0.6587877394   -5.3388002961   -0.5781618979
 H   -0.6233118063   -6.5388195637   -0.7486413197
 H   -0.4456398742   -5.2584042475   -1.9635942326
 H   -1.4901144085   -5.9836945898    1.6511093782
 H   -1.9669852937   -4.2535021012    1.9926063226
 H   -3.5067488546   -4.2403441890    0.0215121718
 H   -3.0750335901   -5.9763237753   -0.3614716603