15

 C    0.0603056140    1.5748624827   -0.0219354712
 C    0.0159424685    0.0580519057    0.0797232206
 N    0.9407555652   -0.6720875100   -0.8492000361
 C    1.4806000226   -1.5135706035    0.2590823622
 C    0.7425638849   -0.6176302951    1.2272224289
 N    0.7182956870   -0.3987159536    2.4707358464
 O    1.5957172305   -1.2628717363    3.1528792608
 H    1.0919091759    1.9302393975    0.0416373059
 H   -0.3610503317    1.9070599337   -0.9762022409
 H   -0.5191960863    2.0276766855    0.7886147962
 H   -1.0257018481   -0.2921671693    0.0126589228
 H    0.4611994464   -1.2028766068   -1.5673486136
 H    1.1282636233   -2.5541349537    0.2839094476
 H    2.5733821524   -1.5174954593    0.3334449178
 H    1.4891049854   -0.9799292175    4.0673661526