20

 C    0.1905053252    1.5981963956    0.2073433907
 C    0.1382984772    0.0849973651    0.1010594878
 C   -0.9439465183   -0.6341495706    0.8717138100
 C    0.4966221964   -0.7385925615    1.3244958267
 C    1.2846401840   -2.0262461914    1.1758117444
 C    2.5124463508   -1.8407617120    0.2914485273
 O    2.2141774277   -1.9085380850   -1.1092648906
 C    1.2474477370   -1.1494678216   -1.6796781761
 N    0.3802814637   -0.3416299934   -1.2474643322
 H    1.2023372973    1.9699288615    0.0107110236
 H   -0.4811551164    2.0499734285   -0.5288977966
 H   -0.1082542529    1.9330052762    1.2051400320
 H   -1.6409349955   -0.0433918459    1.4570454695
 H   -1.3778957972   -1.5127911409    0.4049835273
 H    0.7635227803   -0.1556482999    2.2028072570
 H    1.6121249362   -2.3769807706    2.1609976812
 H    0.6735331282   -2.8303104131    0.7501876116
 H    3.0071417374   -0.8854715908    0.5112897266
 H    3.2394670794   -2.6434164242    0.4433662747
 H    1.2785998694   -1.3476495961   -2.7518905649