17

 O   -0.0311708916    1.3659778359    0.0255916567
 C    0.0156626802   -0.0335090605    0.0305323880
 C   -0.2751867070   -0.6951842681    1.3444253924
 C    1.1258686304   -0.7317850939    0.7781747453
 O    1.5860975531   -1.9604096429    0.2952326593
 C    1.7554233820   -2.0385460808   -1.1093837769
 C    0.4975546017   -1.6657107615   -1.8715812924
 O   -0.7369202872   -2.0578346260   -1.2675682090
 C   -0.4004317271   -0.6691280212   -1.2718897701
 H    0.6819719492    1.6915163584   -0.5355904107
 H   -0.4596709988   -0.0362015915    2.1846715202
 H   -0.8292401664   -1.6256132889    1.3203749326
 H    1.8891932294   -0.1127280353    1.2474643482
 H    2.5808355953   -1.3946412512   -1.4595591711
 H    2.0342239614   -3.0773301910   -1.3121582864
 H    0.5477787052   -1.7828840802   -2.9542808157
 H   -1.0314337998   -0.0382195214   -1.8970478704