21

 C    0.1886700639    1.5628542050   -0.0386912639
 C    0.0512348069    0.0334461114    0.0261591065
 C    0.6545396338   -0.6049943229   -1.2324797720
 C    0.6909610076   -0.5043788573    1.3272039200
 C    0.9036866425   -2.0450162336    1.4745187632
 C    2.4012454736   -1.6977106261    1.5223970086
 O    2.1362669743   -0.2923910951    1.3293196434
 C    0.0644948443    0.0860117665    2.5107173336
 C   -0.4619940871    0.5348960769    3.4943724244
 H    1.2456558140    1.8471909478   -0.0424617197
 H   -0.2715148091    1.9495189932   -0.9529189025
 H   -0.2897405112    2.0451986466    0.8168454078
 H   -1.0155906517   -0.2233257302    0.0805971668
 H    1.7346439658   -0.4346441320   -1.2673280021
 H    0.4723329930   -1.6817051457   -1.2925465263
 H    0.2138019888   -0.1527823317   -2.1259728372
 H    0.4864573727   -2.4696937988    2.3865112911
 H    0.5839005560   -2.6367338861    0.6177776776
 H    2.8951256065   -1.8887804980    2.4823384807
 H    3.0183821484   -2.1072999029    0.7146983004
 H   -0.9193110228    0.9421242429    4.3623041197