17

 C   -0.0529806189    1.7185195163    0.2315780673
 C   -0.0861518304    0.2128583243    0.0794280696
 C   -1.3857508062   -0.3693268084   -0.4897938822
 C   -1.3940450639   -0.2485876061   -2.0066035844
 O   -0.7570658177   -0.9911537605   -2.7112363487
 N    1.1700611520   -0.4054797671   -0.3390092192
 C    0.6797199110   -0.6710008278    1.0279071587
 C    1.4577231669   -0.1312584583    2.1169667905
 N    2.0491775737    0.3031472899    3.0104343184
 H    0.9130974581    2.0449523972    0.6199212601
 H   -0.2082229670    2.2038396101   -0.7380288708
 H   -0.8382491975    2.0586623151    0.9142835851
 H   -1.4522120435   -1.4361495621   -0.2543570789
 H   -2.2504054430    0.1404008963   -0.0538756362
 H   -1.9993434072    0.5743791656   -2.4429627453
 H    0.9986708247   -1.2064017879   -0.9445162431
 H    0.2472153290   -1.6438531767    1.2464715391