22

 C   -0.7489507261    1.4280139084   -0.4661270910
 C    0.0170361344    0.1265286600   -0.2469963056
 C   -0.9140290984   -1.0833142595   -0.3675931636
 C    1.3176032065   -0.0367358512   -1.0962175575
 C    2.1296359531   -0.3978943182    0.1973392147
 C    3.4410828872    0.3638588129    0.4164028385
 C    0.8952998617    0.0749708696    1.0434693185
 C    2.3619104614   -1.8350489282    0.3182147602
 N    2.5495228634   -2.9726882641    0.4146293638
 H   -0.0918946646    2.3004502009   -0.3819817061
 H   -1.2091429728    1.4508072609   -1.4607760459
 H   -1.5512060013    1.5412773056    0.2722364209
 H   -1.3757332021   -1.1201706035   -1.3608020378
 H   -0.3783927327   -2.0248329862   -0.2127273022
 H   -1.7182900192   -1.0295595280    0.3748809676
 H    1.3001086476   -0.7923277082   -1.8842993886
 H    1.6706488967    0.9073834037   -1.5201244047
 H    3.2629724130    1.4393527416    0.3251119259
 H    3.8500464863    0.1652212101    1.4116159677
 H    4.1926431210    0.0746087219   -0.3243057101
 H    1.0799829669    1.0636231993    1.4726054647
 H    0.5655301080   -0.5980217179    1.8375921006