19

 C    0.0265681615    1.5772911688   -0.1285734835
 C    0.0674914134    0.0624449142    0.0998791528
 C   -1.3184759050   -0.5709560464    0.0551641538
 C   -2.1022181998   -0.6937627556   -1.2830713723
 N   -2.3336980704   -2.1747035018   -1.0983226863
 C   -1.0018070358   -2.7818960345   -1.0907004302
 C   -1.4468298069   -2.0999157179    0.1515921224
 C   -1.7336216107   -2.8115213861    1.3607301330
 N   -1.9381793091   -3.3560239082    2.3611511085
 H    1.0312915114    2.0078127077   -0.0932510087
 H   -0.4054923146    1.8221217992   -1.1051207599
 H   -0.5782294062    2.0767516293    0.6359428381
 H    0.7157133918   -0.4051523435   -0.6511758973
 H    0.5218161860   -0.1533762101    1.0751014352
 H   -1.9575744998   -0.1085303518    0.8128243241
 H   -3.0550277393   -0.1642108919   -1.2986194455
 H   -1.5458935093   -0.4640101050   -2.1981419543
 H   -1.0267084339   -3.8667345739   -1.0861027312
 H   -0.2072255831   -2.3413800425   -1.6887628685