21

 C    0.3269215196    1.4455278688   -0.3693698018
 C    0.0364271510    0.0274019803    0.0511691987
 O    1.1537217748   -0.8396404518    0.2803604681
 C    0.2952959737   -0.5350119882    1.3881719003
 C    0.9064150872    0.2110563751    2.5498127712
 C    1.8328049123   -0.6891975262    3.3782624137
 C    2.4660352003    0.0585010393    4.5683279083
 C    3.3431813533   -0.7851405659    5.3707146799
 C    4.0605532218   -1.5016589420    6.0163240852
 H    1.1270123371    1.8934572679    0.2227110947
 H    0.6328329057    1.4688282073   -1.4205689454
 H   -0.5718902501    2.0639428423   -0.2698398009
 H   -0.7646428739   -0.4474576809   -0.5207627140
 H   -0.3317863025   -1.3790206316    1.6892534840
 H    1.4678531431    1.0780241066    2.1875380677
 H    0.0963804138    0.5962578206    3.1847972294
 H    1.2757028694   -1.5545597457    3.7558443877
 H    2.6247101097   -1.0841135050    2.7337151645
 H    3.0318867938    0.9230219204    4.1962319944
 H    1.6721675268    0.4700080934    5.2062118316
 H    4.6974068231   -2.1260018145    6.5921774327