14

 C   -0.0359519859    1.3179498910    0.3300435097
 O   -0.2025696393   -0.1058901807    0.4529387274
 C   -1.1761260803   -0.6373218433   -0.2862536132
 O   -1.9043667672   -0.0386609696   -1.0308603652
 C   -1.2783250006   -2.1371263420   -0.0680356174
 C   -2.6129372553   -2.7543379857   -0.2777783446
 O   -1.5935058641   -2.8720490680   -1.2517402989
 C   -0.3358139097   -2.7708367202    0.8314317210
 N    0.4011535332   -3.2888122697    1.5543036236
 H    0.7823852847    1.5746763079    1.0008066377
 H    0.2099881842    1.5806488292   -0.7010556834
 H   -0.9540860143    1.8325259498    0.6220065741
 H   -2.8538136256   -3.6613316036    0.2721276903
 H   -3.4311837900   -2.0878390349   -0.5385134911