22

 C   -0.2399604835    1.5795415810    0.0855952314
 C   -0.1412493908    0.0540360147   -0.0001212447
 C    0.7366443276   -0.5443983652    1.0997587569
 O    0.2110927374   -0.1460203185    2.3690740554
 C    0.2283892688   -1.2548269498    3.2642762109
 C   -0.0107987007   -2.4757543544    2.3754103873
 C    0.7888502843   -2.0824985478    1.1441869418
 C    0.9636947493   -2.9347769449   -0.0507122359
 N    2.0591294858   -2.7996559624    0.9321221505
 H    0.7463878075    2.0453691118   -0.0210050749
 H   -0.8839906353    1.9766016090   -0.7047669547
 H   -0.6502398994    1.8832295788    1.0515284583
 H   -1.1400869039   -0.3933479466    0.0705410418
 H    0.2698018572   -0.2379004842   -0.9742776228
 H    1.7623027492   -0.1475521538    0.9955927345
 H    1.2021573728   -1.3315001672    3.7732529928
 H   -0.5441970863   -1.0843948948    4.0187267457
 H    0.3446615514   -3.4144515439    2.8036659131
 H   -1.0760949620   -2.5683093719    2.1364345122
 H    0.5012310235   -3.9179850157   -0.0889941975
 H    1.0724174685   -2.4559366548   -1.0204696283
 H    2.7610163887   -2.1577662194    0.5679970763