20

 C    0.1300817101    1.6109622007   -0.0841839136
 C   -0.0555890088    0.1060230960    0.0571536162
 O    0.3134303669   -0.4566588871   -1.2114616070
 C    0.5857743213   -1.8483535517   -1.2457636383
 C   -0.4050610619   -2.7074480958   -0.4802862867
 N    0.2134857777   -3.8023304992    0.2951119148
 C   -0.3858838221   -2.6529055569    1.0066746728
 C    0.5491839063   -1.7063261078    1.6814623434
 C    0.7163294993   -0.4599860218    1.2393087586
 H    1.1880035465    1.8520739580   -0.2286273205
 H   -0.4273716334    1.9804678399   -0.9483539611
 H   -0.2277833812    2.1276091964    0.8118671015
 H   -1.1236707799   -0.1018361838    0.2225175115
 H    0.5866723728   -2.1139086045   -2.3081414145
 H    1.5833679442   -2.0671020055   -0.8460554703
 H   -1.3613067330   -2.8983289984   -0.9620545882
 H   -0.4218337437   -4.5952032673    0.3402884867
 H   -1.3246201790   -2.8442194995    1.5267683690
 H    1.1080553159   -2.0753733945    2.5383861978
 H    1.4278196419    0.2012086529    1.7286449679