18

 C   -0.0340106781    1.5390899586    0.0391047699
 C    0.1107770777    0.0338071025    0.1196891641
 C    1.3703117431   -0.7507551420   -0.1534563826
 C    2.6164745960   -0.0128450753    0.3742756000
 C    1.9719641188   -0.0480256240    1.7564698270
 N    2.3336850669    0.2061563840    2.9430886157
 O    3.6144160169    0.7959413246    2.9635494356
 C    0.7468011942   -0.7459567158    1.2595020362
 O    0.1012528504   -1.7800858403    1.9030204106
 H    0.8318548245    2.0610752791    0.4537055251
 H   -0.1571822095    1.8643118096   -0.9998398365
 H   -0.9150078002    1.8732038033    0.5976691966
 H   -0.7639911659   -0.5120057607   -0.2314139628
 H    1.3936273120   -1.5714514974   -0.8584814974
 H    3.5243007772   -0.6226279191    0.3548796705
 H    2.8421618796    0.9675543294   -0.0531561553
 H    3.7735937017    0.8968071720    3.9079448922
 H   -0.5546931454   -1.4046614084    2.5007323911