20

 C   -0.0680108510    1.5054707224    0.0431005162
 C   -0.0726820173   -0.0117464895   -0.0898176865
 C    0.8414689058   -0.5090098248   -1.2145736281
 C    0.4362630414   -1.9060734954   -1.7076964705
 O   -0.0985591094   -2.7152852607   -0.6759755826
 C    0.7449180610   -2.8490595322    0.4477624910
 C    0.5282342201   -1.8003929306    1.5302692461
 N    0.6013133377   -2.1711771535    2.7406787976
 O    0.3489231594   -0.4918793313    1.2087560914
 H    0.9512230754    1.8771154944    0.1883445614
 H   -0.4814687713    1.9656073179   -0.8590063084
 H   -0.6711769077    1.8140867512    0.9003268900
 H   -1.0960343692   -0.3655461465   -0.2636263340
 H    0.8059327697    0.1897331432   -2.0576604351
 H    1.8726117077   -0.4956490007   -0.8439557448
 H   -0.3649331846   -1.8299024618   -2.4494117184
 H    1.2912329287   -2.4071270227   -2.1884475385
 H    0.5391443323   -3.8147468782    0.9115260346
 H    1.8051298209   -2.8425068577    0.1490964647
 H    0.4885639405   -1.3650955735    3.3595900340