19

 O   -0.0049943457    1.2104371423    0.6320645707
 C   -0.0502343506    0.1220812799   -0.2799527831
 C   -1.3634893830   -0.5124961625   -0.3725682576
 C   -2.4480900968   -1.0354967932   -0.3910655328
 C   -3.7675942546   -1.6457174455   -0.4518388253
 O   -3.8370996036   -2.7509728110    0.4399373223
 C   -5.0824032895   -3.3777375831    0.4093946430
 C   -5.3651219593   -4.4007579016   -0.6630902908
 C   -5.1014934017   -4.8255020466    0.7692621943
 H   -0.3661040881    0.8985555226    1.4684901021
 H    0.2364630421    0.5365891877   -1.2529223480
 H    0.7010983059   -0.6440860242   -0.0295213503
 H   -4.5354041715   -0.8977926732   -0.1915972159
 H   -3.9830541334   -1.9727943142   -1.4816197473
 H   -5.9091944054   -2.7482053342    0.7426725795
 H   -6.3715438522   -4.4810756513   -1.0588053472
 H   -4.5746481192   -4.5884584540   -1.3812976177
 H   -4.1403808166   -5.2804490704    0.9788639069
 H   -5.9247631968   -5.1986508977    1.3675187873