22

 C   -2.7592434851    1.1389619667    0.5182130703
 O   -2.3814903133   -0.2113674077    0.4028541102
 C   -1.1455145070   -0.4939667674    1.0242461051
 C   -0.8635229971   -1.9708534940    0.8196365174
 C   -0.4485013029   -2.5084618534   -0.5744874432
 C    0.8018398115   -3.0634391351    0.1175599509
 C    1.3472764667   -4.4475785134   -0.0683844733
 C    1.5431228746   -1.9615353685    0.7572388328
 N    0.3751912738   -2.5208712013    1.4813957592
 H   -3.7209158686    1.2549676356    0.0122534902
 H   -2.8720388697    1.4435372209    1.5708665685
 H   -2.0256438939    1.8116099956    0.0453804599
 H   -0.3516548404    0.1386975633    0.5943988650
 H   -1.1863660109   -0.2753051840    2.1053442192
 H   -1.7178378659   -2.5264306703    1.2149167621
 H   -1.1234686001   -3.2779748179   -0.9534651700
 H   -0.2747985478   -1.7748213422   -1.3675221708
 H    1.8497673920   -4.5401282743   -1.0388010612
 H    2.0735874590   -4.6867058818    0.7138360242
 H    0.5487524958   -5.1966575841   -0.0317277916
 H    2.4789833869   -2.2047628963    1.2517383987
 H    1.5065659525   -0.9561302702    0.3454201465