17

 C    0.2565224032    1.5339936639   -0.0094367901
 C    0.1233480649    0.0849880323    0.0030600572
 C    0.0052051631   -1.1118350412    0.0138055571
 C   -0.1465639152   -2.5555475260    0.0251262186
 C   -1.6049186862   -3.0477830886    0.0356090457
 O   -2.5460098751   -2.3289115547    0.2234588943
 C   -1.7378813793   -4.5618362687   -0.2225528050
 C   -3.0559790291   -5.1063107026    0.0482829194
 C   -4.1430310189   -5.5628343641    0.2738488193
 H    0.8588405365    1.8864298188    0.8350730367
 H    0.7381843354    1.8827171392   -0.9295451862
 H   -0.7237913942    2.0182387631    0.0567391755
 H    0.3666424753   -3.0171292666   -0.8303012317
 H    0.3356982617   -2.9926683121    0.9129178310
 H   -1.4621279602   -4.7275054798   -1.2745364719
 H   -0.9694354467   -5.0864971001    0.3609517005
 H   -5.1073399153   -5.9583435328    0.4764329596