12

 N    0.1481357973    0.7722886080    1.1451987908
 C    0.0297807350    0.0719317645    0.1136174496
 O    1.0734269103   -0.0349701739   -0.8135217591
 N    1.2298845346   -1.0065234520   -1.7815742285
 C    0.6250729544   -2.1379967473   -1.7157737288
 C   -0.3525915701   -2.6729330226   -0.7556460097
 N   -1.2203664232   -2.0124174982   -0.0964425557
 C   -1.2715637700   -0.6196195642   -0.2597337939
 O   -2.2519322193   -0.0247270964   -0.6090194295
 H    1.0906502326    1.1574666687    1.2370499119
 H    0.9429906037   -2.8133675098   -2.5082511877
 H   -0.3384300953   -3.7578751866   -0.6349615793