21

 C   -0.0205867854    1.3613406395   -0.3007089187
 C    1.4417635707    1.5549527822    0.1389783034
 C    1.3052275807    0.1394583424    0.7430731362
 C    2.2576470992   -1.0150119899    0.3118911932
 C    2.6238974198   -1.5643622211    1.7033870731
 C    1.2401119194   -1.5684613945    2.4180400311
 C    1.3839048007   -0.0263744665    2.2662022173
 C    2.9099979975   -0.2482591316    2.4854634142
 O   -0.0447262973    0.0179822866    0.2200730362
 H   -0.7530168732    2.0080821474    0.1987940464
 H   -0.2082125757    1.3850761552   -1.3807779494
 H    2.1604850898    1.6359276988   -0.6787768186
 H    1.6267322773    2.3553491503    0.8588428422
 H    1.7181131909   -1.7334725000   -0.3112726896
 H    3.1282456499   -0.6544889560   -0.2453231365
 H    3.2986863123   -2.4194789612    1.7466391467
 H    0.3970239973   -2.0512953260    1.9180268863
 H    1.3046210379   -1.8909840795    3.4597869432
 H    0.8012376978    0.6779428449    2.8611704618
 H    3.1560060085   -0.4202160923    3.5359593730
 H    3.6104372218    0.4715639113    2.0493919886