20

 C   -0.0543821078    1.5698185442    0.0251665122
 C    0.0198285656    0.0387788016   -0.0244206191
 C    0.7628946637   -0.4656209446   -1.2633960649
 O    2.1422404473   -0.1867535093   -1.1513828839
 C    2.7616015788   -0.9618302599   -0.1310297952
 C    4.1892130741   -0.4664619834    0.0433315886
 C    1.9984638267   -0.9330561369    1.2031040474
 O    2.5172610530   -1.3107871192    2.2383136949
 N    0.7029518816   -0.5090041864    1.1453417550
 H    0.9485176322    1.9959845197   -0.0634606132
 H   -0.6720611416    1.9535229146   -0.7935063441
 H   -0.4936825437    1.9092500465    0.9681542098
 H   -0.9983934013   -0.3722232273   -0.0459136111
 H    0.5944877166   -1.5472125346   -1.3903092275
 H    0.4024041632    0.0479836839   -2.1587466698
 H    2.7768300807   -2.0217807854   -0.4425491491
 H    4.1923086361    0.5944699837    0.3092959537
 H    4.6727095784   -1.0288968544    0.8428497083
 H    4.7460591759   -0.5938260438   -0.8880341319
 H    0.2456699906   -0.4559264589    2.0452707700