16

 C   -0.0311988527    1.3842408317    0.0931233583
 O   -0.0453312176   -0.0471401320    0.0641511447
 C   -1.2538426079   -0.6026896689    0.0030039479
 N   -2.4251502008    0.0092259324   -0.0334119461
 C   -3.2799654694   -1.0537385174   -0.0900334547
 O   -4.6093865042   -0.8894719091   -0.1418789277
 N   -2.7366885023   -2.2503951535   -0.0912318679
 N   -1.3912955949   -1.9380198986   -0.0291529390
 C   -0.3855128011   -2.9719139665   -0.0086360753
 H    1.0204260781    1.6670294930    0.1412057141
 H   -0.4961403295    1.7919623307   -0.8085059365
 H   -0.5679114203    1.7566682837    0.9698260969
 H   -4.7691729487    0.0613253852   -0.1292831601
 H   -0.4504935167   -3.5815566952   -0.9143280919
 H    0.5947547159   -2.4970761991    0.0420624545
 H   -0.5246467279   -3.6182806463    0.8625608727