21

 C   -0.2763391896    1.4490960721   -0.0467955996
 C    0.0608013084   -0.0342664275   -0.0095353146
 O    0.8650201527   -0.4252088861   -1.1209604274
 C    2.2037801977   -0.3827950611   -0.6872590788
 C    2.1582318121   -0.3555299830    0.8094217722
 O    0.7955342016   -0.3836762624    1.1621799056
 C    2.7241950069   -1.5788500914    0.0996370776
 C    1.9643432086   -2.8854392879    0.1002768869
 C    4.2355653498   -1.7042878302    0.1477982638
 H    0.6392464964    2.0476219219   -0.0297906224
 H   -0.8331296038    1.6836711072   -0.9583721352
 H   -0.8873213763    1.7160449111    0.8200684930
 H   -0.8456262182   -0.6495769114   -0.0259308776
 H    2.8634157711    0.2239859692   -1.3000489001
 H    2.7800176272    0.2738839277    1.4387341587
 H    0.8863036955   -2.7284695091    0.0647955625
 H    2.2470678630   -3.4937869202   -0.7660785882
 H    2.1935057433   -3.4617033039    1.0035970464
 H    4.5548524620   -2.2328861519    1.0531276982
 H    4.6088338029   -2.2626645620   -0.7181574179
 H    4.7252188685   -0.7244592411    0.1462495570