14

 N    0.1352463151    1.3714176924    0.1062295713
 C   -0.0210438465   -0.0244720638    0.0161278218
 C   -1.1334710324   -0.8391138211    0.0262245926
 C   -0.6297368642   -2.1809120793    0.0402527145
 C    0.7331818124   -2.0952624230    0.0380540453
 N    1.1510637208   -0.8011163277   -0.0125474616
 O    1.2966247758   -3.3185728579   -0.0500100289
 C    0.1699540187   -4.1357595850   -0.0722478794
 N   -0.9717215653   -3.5309076898   -0.0288090570
 H    0.3242005082    1.8033428033   -0.7941558312
 H   -0.6953464420    1.8029529063    0.4916371138
 H   -2.1570615567   -0.5001547479    0.0046979151
 H    2.0567598607   -0.4294095314    0.2178461195
 H    0.3741097854   -5.1934619550   -0.1024911956