16

 C   -0.0612497217    1.5581744197    0.0324259051
 C    0.0100252876    0.0437129227    0.0567979090
 C   -1.1582945151   -0.6486569085   -0.4218950292
 N   -2.0893288258   -1.2208983494   -0.8033533639
 C    1.3325898130   -0.7048154529   -0.2098120945
 O    2.4915817364    0.0809090659   -0.1621600770
 C    2.8422154659    0.1612475894    1.2124388610
 O    1.6303355983    0.0742793410    1.9491330340
 C    0.7704639087   -0.7091737933    1.1682973918
 H    0.8647865243    1.9892292718    0.4105255965
 H   -0.2192893242    1.9157400818   -0.9884435071
 H   -0.8879680373    1.9107649822    0.6546913269
 H    1.3604767877   -1.5542483030   -0.8822749774
 H    3.5159627756   -0.6667912732    1.4846741659
 H    3.3128452561    1.1276972174    1.4074440628
 H    0.3219478204   -1.5622975317    1.6638095761