19

 C   -0.0266678765    1.5060031095    0.0513941892
 C   -0.0002681392    0.0031174330   -0.0122460334
 C    0.0404489091   -0.6877484587   -1.2227857516
 C    0.0622959572   -2.0783258738   -1.1766552619
 C    0.1063490467   -2.9232533029   -2.4201751060
 N    0.0447424913   -2.7314435062   -0.0060065089
 C    0.0056099263   -1.9879735329    1.1037489143
 C   -0.0141842660   -2.7129020818    2.4222728737
 N   -0.0177129591   -0.6502100482    1.1540812893
 H   -0.0097462444    1.9560646961   -0.9438678614
 H   -0.9244239051    1.8442901283    0.5783366939
 H    0.8325559568    1.8733555764    0.6213560125
 H    0.0545884925   -0.1584488219   -2.1687526932
 H    0.9959448711   -3.5609853202   -2.4101139208
 H   -0.7609777823   -3.5902477007   -2.4524845942
 H    0.1180538958   -2.3134215201   -3.3264702566
 H    0.8463429431   -2.4157940935    3.0301388459
 H   -0.9104104539   -2.4420413127    2.9894046919
 H    0.0057464365   -3.7912231697    2.2637784075