17

 O    0.1033223896    1.4225525443   -0.1063824260
 C    0.0808609385    0.0309756179   -0.0822508034
 C   -1.2931323481   -0.6431499963    0.0502422167
 N   -2.0580231824   -0.0774984506   -1.0817953193
 C   -1.1791775193   -1.2494024328   -1.3116741388
 C    0.2278961548   -0.7113708931   -1.4868495500
 O    0.4013595600    0.0890602571   -2.6358933315
 C    1.5880650255    0.7261802910   -2.7451777715
 N    1.8246308365    1.4361585696   -3.7609034648
 H   -0.6368948536    1.6835990612   -0.6743118897
 H    0.8203382236   -0.3075698747    0.6458497475
 H   -1.7860360089   -1.0171640352    0.9383913660
 H   -3.0158711043   -0.4171616322   -1.0216756823
 H   -1.5821918530   -2.1790841401   -1.6914336426
 H    0.9807887471   -1.5072015793   -1.4418985093
 H    2.2634994131    0.5504829211   -1.8987519518
 H    2.7547508910    1.8431608425   -3.6870363993