21

 C   -0.1755862410    1.4894748369    0.0342086787
 C    0.0041267644   -0.0023521044    0.0305825718
 C   -0.8706313458   -0.9475128987    0.8326997978
 C    0.6174043543   -0.8394374708    1.1052270850
 O    1.4255236462   -1.7996141922    0.4758194870
 C    1.6204851175   -1.3586727581   -0.8764938506
 C    2.9048930766   -0.5327777110   -0.9766476174
 C    1.6166302731   -2.5725593424   -1.7891491780
 O    0.4810890228   -0.5457128278   -1.1851419896
 H    0.7599652521    2.0000948368   -0.2151677658
 H   -0.9310493308    1.7869979440   -0.7006791002
 H   -0.5085569520    1.8346709478    1.0173873739
 H   -1.5472659337   -0.5120756207    1.5617857993
 H   -1.2196072012   -1.8491335276    0.3430002887
 H    1.0019006970   -0.4524320665    2.0434567954
 H    3.7718237795   -1.1465450799   -0.7171381541
 H    3.0326196605   -0.1489217432   -1.9924420302
 H    2.8621606069    0.3145469508   -0.2869813433
 H    0.6778138066   -3.1169588517   -1.6709634357
 H    1.7194716294   -2.2611595126   -2.8317873490
 H    2.4475977676   -3.2359541086   -1.5363233637