21

 C   -0.1806522061    1.3684948435    0.0080082784
 O    0.1101034530   -0.0142935662   -0.0946359304
 C    0.6299377809   -0.5979432208    1.0673501372
 C   -0.4091135797   -0.7684948260    2.1763456813
 O   -1.5618261399   -0.4323086933    2.0772275806
 C    1.2636047009   -1.9613962689    0.6770424973
 C    0.2007938148   -2.9159238682    0.1195959559
 C    2.3947978443   -1.7419622741   -0.3327396548
 O    1.7930754880   -2.4536420444    1.9136123058
 H    0.7098688483    1.9386541091    0.3146903212
 H   -0.4830363606    1.6994885920   -0.9881364106
 H   -0.9942952387    1.5605797149    0.7142259816
 H    1.4416558594    0.0174546650    1.5003171967
 H   -0.0072131427   -1.2241095640    3.1039565500
 H   -0.2873130958   -2.4786558050   -0.7543215018
 H    0.6619981941   -3.8634535148   -0.1812798361
 H   -0.5643983398   -3.1316599416    0.8705311728
 H    3.1731214760   -1.1086779160    0.1027653239
 H    2.8474988576   -2.7021244709   -0.6058194474
 H    2.0197186700   -1.2668998672   -1.2413583180
 H    2.1668697458   -3.3249650930    1.7467580665