19

 O   -0.1523634956    0.0359638969   -0.0352699539
 C   -0.0049617487    1.2303070630    0.0108667347
 C    1.3268314106    1.9410291509   -0.0776868920
 C    1.3678947142    2.9114581116   -1.2637633511
 C    0.5093634929    4.2226708671   -1.2061281920
 C    1.7827646845    5.0530381846   -1.4824551363
 O    2.4155193478    5.5147818710   -0.2720620936
 C    3.3195705781    4.3847495660   -0.2598339108
 C    2.6537535128    3.7632973995   -1.4984115845
 H   -0.8835255041    1.9087325174    0.1155945503
 H    1.4682224898    2.4983101826    0.8589005860
 H    2.1155400916    1.1856645679   -0.1533266663
 H    1.1424586874    2.3540840235   -2.1783487616
 H   -0.2631568720    4.2859057096   -1.9765052132
 H    0.0646476994    4.4596565106   -0.2360824674
 H    1.7591843927    5.8188354587   -2.2618254361
 H    4.3558462867    4.7044293050   -0.4279235167
 H    3.2765738110    3.8224586646    0.6809430541
 H    3.3069094608    3.4583046793   -2.3149521696