18

 O    0.0820677828    1.0765655018    0.8571123145
 C    0.1052607127   -0.1939191691    0.2156026706
 C   -1.2675226036   -0.9101758779    0.1504402178
 C   -1.3332079455   -1.5788005333   -1.2450041005
 C   -0.2505027544   -0.8711391690   -2.0222870861
 C    0.5345605612   -0.1329595453   -1.2395068741
 C    1.7457181134    0.6818771446   -1.6100578285
 C    1.9837562395    0.7672063556   -3.0484380591
 N    2.1600934546    0.8244675927   -4.1888078175
 H   -0.6005208441    1.6051416221    0.4271761233
 H    0.8327741243   -0.7678839312    0.8052581782
 H   -1.4145830775   -1.6112513740    0.9746540779
 H   -2.0501474342   -0.1474028116    0.2375164755
 H   -1.1218871315   -2.6548747926   -1.1870383966
 H   -2.3187621523   -1.4887203786   -1.7150515298
 H   -0.1197783334   -0.9929956379   -3.0921122396
 H    1.6465010952    1.6936837098   -1.1982237021
 H    2.6422766130    0.2631892939   -1.1310672040