19

 C   -0.1258289541    1.4252371134    0.1472933960
 C   -0.0034855826   -0.0242034511    0.0863597424
 C    0.1063681858   -1.2221465943    0.0179311340
 C    0.2032721305   -2.6764282752   -0.0368063080
 C    0.7390468727   -3.2902928667    1.2779010951
 C   -0.5026277662   -3.3622769952    2.1922768361
 C   -1.6373731059   -3.7888968823    1.2489564447
 C   -1.2363156471   -3.2703371915   -0.1367083777
 O   -1.8949583536   -3.3291444793   -1.1376352216
 H    0.4642643444    1.9058780578   -0.6407648763
 H   -1.1670488097    1.7415661389    0.0200040314
 H    0.2248039813    1.8161946067    1.1088439545
 H    0.7731525803   -2.9832002377   -0.9195295174
 H    1.1136599784   -4.3001797138    1.0728610431
 H    1.5561206743   -2.7089046413    1.7085727926
 H   -0.3639672974   -4.0465159602    3.0324492352
 H   -0.7093023606   -2.3693965980    2.6044788361
 H   -1.7109722256   -4.8814570800    1.1735155109
 H   -2.6308623550   -3.4244813801    1.5216321588