19

 O    0.1798289888   -0.1864817675    0.1014957207
 C    0.0208311381    0.9890127211   -0.0992022713
 C    1.1132225598    2.0297739678    0.0223617800
 C    1.2566130064    2.9805454810   -1.1638733620
 C    0.6355826083    2.6306416981   -2.4747322216
 N    0.0773464252    3.7178578242   -1.6537402935
 C    2.5098525263    3.8181647802   -1.2045274698
 C    3.3809067378    4.0509664928   -0.0253310304
 N    3.8514273636    3.2176480553   -1.1471263704
 H   -0.9880696471    1.3827642027   -0.3652891255
 H    0.8925911444    2.6236830498    0.9225474687
 H    2.0463073219    1.4892352904    0.2102140940
 H    1.1092097083    2.9512748981   -3.3983167267
 H    0.0865255739    1.6955763675   -2.5565948339
 H   -0.7710345919    3.4153574724   -1.1814454079
 H    2.4261200064    4.6163300679   -1.9384077755
 H    3.8937985994    5.0020491008    0.0852076945
 H    3.1312577490    3.5672195504    0.9147720523
 H    3.7899016115    2.2323895671   -0.8990762517