16

 O    0.0510555892    1.3515963375   -0.1065732170
 C    0.0100847814   -0.0282159625   -0.0505710780
 C   -0.5155333433   -0.7800757937   -1.2540764430
 C   -1.3353207304   -0.7369446057    0.0180663847
 N   -1.4149255898   -1.9004043947    0.8477397059
 C   -0.2986298127   -2.4973001592    1.3280634595
 C    0.9454656612   -1.9427662005    1.2861883108
 C    1.1357212046   -0.6122351278    0.7646636927
 O    2.1048393510    0.1116277951    0.9823862898
 H    0.9376396484    1.5593350045    0.2419289766
 H   -0.8623814019   -0.1541248173   -2.0678854073
 H   -0.0478567587   -1.7166082395   -1.5365732609
 H   -2.2247094182   -0.1174372799    0.0334467563
 H   -2.2765603134   -2.4206169365    0.8452831299
 H   -0.4649520174   -3.4609709362    1.7996910534
 H    1.7783201302   -2.4383595934    1.7663520667