22

 C    1.2574486188    0.9898877500    0.7521273992
 C    0.5073689193   -0.3077446763    0.4235476950
 C    0.7967383816   -0.7317872382   -1.0146377860
 C    1.5989099490   -2.0024379608   -1.0137952645
 C    1.8281115092   -2.4328436200    0.4251253363
 C    0.9499441982   -1.5187328206    1.3225544527
 O    1.5736628500   -1.1604892055    2.5446908038
 N    0.2590529731   -1.9597454430   -1.5747517027
 C   -0.8781145330   -2.6761359626   -1.0279670367
 H    2.3345674730    0.8932541984    0.5650980133
 H    0.8961856536    1.8106963561    0.1252249793
 H    1.1161472931    1.2696922462    1.7985408790
 H   -0.5638569297   -0.1241713317    0.5711470511
 H    0.9632839374    0.0645442932   -1.7380129996
 H    2.3914635593   -2.1975016136   -1.7329203940
 H    1.6219120826   -3.4938375953    0.6013135398
 H    2.8857429993   -2.2785332454    0.6755360012
 H    0.0601489116   -2.0634707037    1.6475205410
 H    2.4080533046   -0.7256203115    2.3402579622
 H   -0.9453845504   -2.7223494539    0.0685167111
 H   -1.7960355743   -2.2076271857   -1.3976939311
 H   -0.8563534063   -3.7042801062   -1.4036851505