22

 C   -0.3215909755    1.4547472348   -0.1667124082
 C    0.1936931985    0.0257813665    0.0476874038
 C    0.9367199081   -0.5286040346   -1.1374927189
 C    2.0793888904    0.1530089976   -1.8824883795
 C    1.6731281750   -0.7702848217   -3.0410988134
 C    2.0148714836   -2.1945925317   -2.5806792427
 C    0.8995784038   -1.9723349977   -1.5676505616
 C    0.1243446965   -3.0566794653   -0.8816629459
 N    0.2428547867   -0.9150596049   -2.4278128670
 H    0.5000898916    2.1642024917   -0.3072435343
 H   -0.9624394365    1.5007587961   -1.0521488440
 H   -0.9033284641    1.7909831089    0.6967502022
 H    0.8570275581   -0.0048929342    0.9231664630
 H   -0.6527241704   -0.6274974494    0.2830670492
 H    1.8357023743    1.1968681423   -2.0965502337
 H    3.1008231723    0.0844784079   -1.4910017937
 H    1.7784027054   -0.4631867673   -4.0798331642
 H    1.7122134666   -2.9435487863   -3.3186484338
 H    3.0336465896   -2.4049215723   -2.2358737997
 H    0.7238203739   -3.5276295269   -0.0937168393
 H   -0.7938232080   -2.6762281423   -0.4274794392
 H   -0.1593386998   -3.8337986611   -1.5994179290