17

 C   -0.0738625463    1.5798818379    0.1317882710
 C    0.0363367102    0.0462897808    0.0154984543
 C    0.7424979901   -0.4326707676   -1.2755298289
 C   -0.0460824846   -0.0924482110   -2.5566544397
 C    0.5987269634   -0.6175687641   -3.7535089212
 C    1.1519943181   -1.0581897662   -4.7248724952
 C    0.7371142857   -0.4954315198    1.1852888136
 N    1.2993222701   -0.9168142399    2.1030272304
 H    0.9164029072    2.0422364407    0.0873099917
 H   -0.6825865814    1.9838378441   -0.6804011362
 H   -0.5405826744    1.8641488025    1.0778192215
 H   -0.9764887788   -0.3789051482    0.0315915119
 H    1.7415549095    0.0120973455   -1.3295997046
 H    0.8834645279   -1.5160746511   -1.2252210818
 H   -1.0629876248   -0.5005843108   -2.4791676662
 H   -0.1590516472    0.9933697874   -2.6575971178
 H    1.6315853653   -1.4440966902   -5.5900997629