18

 C    0.0114051799    1.5476271575   -0.0413541888
 C   -0.0044396523    0.0410903449   -0.0511644263
 C   -1.1552835035   -0.6840231027   -0.0090119346
 N   -2.3951058650   -0.1267813626    0.1398441539
 C   -1.1327866222   -2.1966302405   -0.0284090400
 O    0.0231062780   -2.7124856338   -0.6301130632
 C    1.2060048683   -2.1970277589   -0.0448576927
 C    1.2692470393   -0.6683123197   -0.0327471541
 O    2.3564701320   -0.1144811691    0.0274495465
 H    1.0413965812    1.8891396275   -0.1579101237
 H   -0.5871770034    1.9727577914   -0.8578382631
 H   -0.3725414441    1.9623108045    0.9000313075
 H   -2.4816538722    0.8728789008    0.0509746100
 H   -3.2008969405   -0.6522496511   -0.1587549458
 H   -1.2495989131   -2.5705527912    1.0062943186
 H   -1.9837092282   -2.5770642518   -0.6071584759
 H    1.3202120448   -2.5585721298    0.9930128945
 H    2.0469462912   -2.5771933554   -0.6276791327