18

 N    0.6961154439    0.0759387170    1.2223080719
 C    0.1264967519   -0.0343729666   -0.0169317636
 O    0.6125809301    0.4979930104   -0.9982757791
 C   -1.1598783198   -0.8489530518   -0.0254227166
 C   -1.9216443173   -0.9634161215   -1.3926903179
 C   -0.8691481090   -2.0601067359   -1.7808867045
 C   -1.0247622052   -2.4120948200   -0.2625259615
 C   -2.5103503362   -2.8001012522   -0.2193190188
 C   -3.0956911337   -1.8537289134   -0.9597676061
 H    1.5903004423    0.5334027008    1.2940857340
 H    0.3506826982   -0.4343347293    2.0160936667
 H   -1.7762174974   -0.5798922201    0.8379364845
 H   -2.1057353167   -0.0887031365   -2.0127946477
 H   -1.1886652768   -2.8222565470   -2.4945176044
 H    0.1018327375   -1.6401844432   -2.0452007598
 H   -0.3022072182   -3.0201216095    0.2823621069
 H   -2.9355604769   -3.6477143681    0.2992148910
 H   -4.1361715065   -1.7114393633   -1.2145534750