14

 C    0.0329195924    1.4860649864   -0.1899944625
 N    0.2055058008    0.0534078161    0.0153647124
 C    0.6325121742   -0.7584211392   -0.9889573251
 C    0.6202647394   -2.1192191312   -1.1986238118
 N    1.2653877615   -2.3886386291   -2.3794603032
 C    1.6358860848   -1.2343786953   -2.8418746807
 O    1.2726960458   -0.1778652073   -2.0282478785
 C    2.3310739366   -0.9304854920   -4.0306220802
 N    2.9014978906   -0.6705985413   -5.0052259778
 H    0.9701143616    1.9223362315   -0.5409856719
 H   -0.7536675128    1.7236038232   -0.9187877353
 H   -0.2213041031    1.9426935699    0.7679547717
 H   -0.4425768745   -0.3852686219    0.6500874051
 H    0.1969650727   -2.8946999498   -0.5821019421