17

 O    0.0947128819    1.4492456458   -0.1765943098
 C   -0.0020714353    0.0812612929    0.0933304307
 C   -0.0093600824   -0.4386752150    1.5759085564
 C   -1.3090193144   -1.1940481625    1.2850434472
 C   -2.3670617704   -0.2479712898    0.8216252404
 O   -2.4152089880    1.1097694482    1.2623030131
 C   -3.0467452384    1.3451211855    2.4358410123
 O   -3.1335567654    2.4375843577    2.9063278675
 C   -1.3342475734   -0.6414714485   -0.1698318765
 H   -0.6468998660    1.8843684953    0.2611879577
 H    0.8048075184   -0.3966959947   -0.4670866011
 H    0.8340564753   -1.0955610146    1.7951821535
 H   -0.0662154862    0.3328793598    2.3484613240
 H   -1.5567963377   -2.1873951692    1.6387033815
 H   -3.3564182526   -0.6661096264    0.6594622772
 H   -3.4638784463    0.4255814151    2.8864368037
 H   -1.6124282391   -1.1259333796   -1.0984867278