18

 O   -0.0623481033    0.0304057346    0.2247664960
 C   -0.0672735738    1.2137324814    0.0609828899
 C   -1.1376154182    2.2668746904   -0.2772569228
 N   -0.0757873231    3.3189619215   -0.3210361403
 C    0.0059873226    4.2119075864    0.8620737933
 C    1.5407402074    4.4289243962    0.9412355561
 C    1.5079849369    2.9220223972    1.3733428529
 C    0.1840411897    3.2841784695    2.1069601466
 C    1.0080566171    2.3147645206    0.0494194734
 H   -1.6190886631    2.1142816019   -1.2491898095
 H   -1.9168584364    2.4016026608    0.4818478232
 H   -0.7092668741    5.0332602353    0.8335287516
 H    2.0519360776    4.6920896920    0.0124941896
 H    1.8409443267    5.0894777566    1.7562556519
 H    2.3416339002    2.4292252978    1.8705603471
 H    0.3673081182    3.8560870230    3.0180488825
 H   -0.5452044096    2.4973790529    2.3116996472
 H    1.7981656852    2.1821496120   -0.6964221586