15

 O    0.0040742673    0.0246892221   -0.0003242873
 C   -0.0151104886    1.2173321212    0.0089594032
 C   -1.1479550539    2.2627478736    0.0479097421
 O   -0.7847000032    2.7458593679    1.3633665199
 C    0.4707852518    3.3666556581    0.9853359888
 C   -0.0670618373    4.4461220235    0.0341364147
 C   -0.5701289206    3.3648679462   -0.9339108492
 O    0.7045894782    2.7907562245   -1.3212480869
 C    1.0835156413    2.2991230050   -0.0133923871
 H   -2.1876672490    1.9564064003   -0.0026308953
 H    1.0458611087    3.6351264287    1.8672320832
 H   -0.8348295026    5.0429438464    0.5275776017
 H    0.6809785417    5.0749588301   -0.4497514263
 H   -1.1537618539    3.6284117412   -1.8116620676
 H    2.1325551402    2.0256297013    0.0326325262