20

 C   -0.0494521149    1.4928162158    0.0077358316
 C    0.0218406804   -0.0148399461    0.0109321071
 C   -0.7630562226   -0.8013946595    1.0205618925
 C    0.7603655194   -0.7922962866    1.0951817819
 C    1.4355222349   -1.9334104329    0.4380650907
 C    0.8918847054   -2.1069200251   -0.9666754207
 C    0.2882914218   -0.7256234399   -1.3189401050
 N    2.3722059867   -2.5783183216    1.0133140514
 O    2.8868961836   -3.5890819044    0.1728028578
 H    0.8610880249    1.9321660747   -0.4158264300
 H   -0.8977602233    1.8459301092   -0.5908978109
 H   -0.1740181705    1.8886540255    1.0205962344
 H   -1.2778512047   -0.2418335950    1.7946007771
 H   -1.2671731923   -1.7168822454    0.7272330375
 H    1.2394101458   -0.3130512141    1.9397658000
 H    1.6787079289   -2.4252924473   -1.6526971408
 H    0.1349714742   -2.8999207575   -0.9771614463
 H   -0.6129183053   -0.8066465537   -1.9362476877
 H    1.0158542421   -0.1376817038   -1.8906669419
 H    3.5994630255   -3.9495064326    0.7104174813