19

 C   -0.0906242136    1.3840883505   -0.1661500252
 N   -0.0109461000   -0.0648396252   -0.1084093198
 C   -1.2448221499   -0.7579609350    0.2355612991
 C   -1.1914735469   -2.2383477819   -0.0693946924
 C   -0.5934276722   -2.7480233775   -1.3631317520
 C    0.1615921481   -2.8715104799   -0.0529671605
 N    1.2609176070   -2.0024595089    0.2499288033
 C    1.2413942939   -0.6322063654    0.0462481879
 O    2.2778924731    0.0115506473   -0.0027224707
 H    0.8879975267    1.7708097178   -0.4439285593
 H   -0.8366376121    1.6847907027   -0.9103896670
 H   -0.3784163376    1.8169170461    0.8030411182
 H   -1.4810015820   -0.6237456744    1.3049629106
 H   -2.0594818451   -0.2813088996   -0.3251054709
 H   -2.0161920988   -2.8018053219    0.3547531812
 H   -1.0183753252   -3.6444301646   -1.8011759607
 H   -0.2306447852   -2.0155705517   -2.0758507804
 H    0.2747959310   -3.8569634777    0.3860911948
 H    2.1902059889   -2.3696400707    0.1051540239