21

 C   -0.1102009923    1.5496611342    0.0283257253
 C   -0.0391421227    0.0158324518   -0.0144783131
 C   -1.4615644312   -0.5689145191    0.0523883675
 C    0.7091916969   -0.4446476193   -1.2792105923
 C    0.9483255179   -1.9578792157   -1.2740420335
 C    1.3478272106   -2.5681411957    0.0639495885
 O    1.8228930974   -3.6670977008    0.1571548584
 O    1.0637395692   -1.8758438193    1.1955785214
 C    0.7959473261   -0.4631409925    1.1774710267
 H    0.8871097218    1.9991957623   -0.0271345523
 H   -0.6955814553    1.9305625306   -0.8149111473
 H   -0.5886362682    1.9004759853    0.9492777530
 H   -2.0355974564   -0.2957983639   -0.8393974910
 H   -1.4599125708   -1.6590562325    0.1327034662
 H   -1.9960784050   -0.1794999280    0.9253088249
 H    0.1574272404   -0.1552175035   -2.1807462559
 H    1.6725769773    0.0792007597   -1.3232212660
 H    0.0356031377   -2.4914819288   -1.5665001575
 H    1.7093952130   -2.2549357400   -1.9995191863
 H    1.7585867591    0.0650688449    1.1965355866
 H    0.2862669043   -0.2638799497    2.1247468569