15

 C   -0.0254581454    1.4830745032    0.0298730513
 C   -0.0124151878   -0.0006925281   -0.0361583495
 C   -0.0970654509   -1.0051662355   -1.1460908470
 C    0.7999514947   -1.9371183355   -0.3003761844
 C   -0.1844987575   -1.9461912624    0.8094584536
 N    0.9018896178   -0.9085050336    0.7953515508
 C   -1.1429570709   -1.0308858267    0.0066726709
 C   -2.5436863300   -0.8717514464   -0.0586120856
 N   -3.6939823858   -0.7344448203   -0.1035323090
 H    0.9409340831    1.8899220770   -0.2853824872
 H   -0.8027661782    1.8856989059   -0.6270006106
 H   -0.2261913258    1.8226885923    1.0508223782
 H   -0.2978130082   -0.8961522753   -2.2024384348
 H    1.6136682567   -2.6057526326   -0.5496280945
 H   -0.3472110318   -2.6176005619    1.6426646377