20

 O    0.0838158568    1.3766718465    0.0347477288
 C    0.0544546979   -0.0420119913    0.0461141811
 C   -1.3739314252   -0.5995575404    0.0759347890
 C   -1.4116031498   -2.1013860086    0.1219985750
 C   -0.7806347876   -3.0599063290    1.1467481380
 C   -1.3485127383   -3.9470073981    0.0409402912
 C   -2.6091806567   -3.0636326530   -0.1862355159
 C   -2.2702951261   -3.0015281051   -1.6698603084
 N   -0.8684560135   -2.9720671372   -1.0672539171
 H   -0.2833528571    1.6713429613   -0.8046431665
 H    0.5982672021   -0.4702001485   -0.8078765950
 H    0.5904084735   -0.3402266774    0.9531339610
 H   -1.8992616878   -0.1925951822    0.9486825256
 H   -1.9182893334   -0.2477169687   -0.8117140403
 H    0.3093299281   -3.0345665893    1.2324436793
 H   -1.2630611235   -3.1186655422    2.1260577732
 H   -1.2606912878   -5.0243624842   -0.1084918004
 H   -3.5742602104   -3.1194942231    0.3296746574
 H   -2.4592553180   -3.8931654491   -2.2768282379
 H   -2.5306512033   -2.0995643104   -2.2331359580