16

 C   -0.2372837282    1.4963645659    0.0112491556
 C    0.0408466225   -0.0078703676    0.0021151708
 C    0.8407648758   -0.4334708528   -1.2180011434
 O    1.1795790458   -1.8264328415   -1.1748566579
 C    1.3940758298   -2.4887361044   -0.0167185437
 O    1.7317328073   -3.6338785399   -0.0242128391
 O    1.1891160182   -1.8388317064    1.1501404405
 C    0.8510403859   -0.4463505942    1.2108358865
 H    0.6942913488    2.0729489080    0.0103470088
 H   -0.8162557496    1.7932099998   -0.8683681732
 H   -0.8087605487    1.7838624419    0.8988367520
 H   -0.9087737929   -0.5577922756    0.0032327954
 H    0.2810509575   -0.2990484377   -2.1472504664
 H    1.7676602717    0.1523074388   -1.2914528506
 H    1.7786575897    0.1385040411    1.2825386949
 H    0.2992965465   -0.3216374055    2.1461837698