14

 N   -0.0045846631    1.3364500136    0.0098690338
 C   -0.0334266456    0.0716718958    0.0034465795
 O    1.1811512623   -0.6557521799   -0.0076454577
 C    1.1918834987   -1.9898804884   -0.0146420232
 C    0.0735611409   -2.7520498608   -0.0118753906
 C    0.1809285515   -4.2136656279   -0.0201338034
 O   -0.7688552124   -4.9644954936   -0.0179983333
 C   -1.2026795574   -2.0728829077   -0.0006518706
 C   -1.2450570671   -0.7280678189    0.0065979786
 H    0.9527600220    1.6877960448    0.0059305771
 H    2.2009055079   -2.3904029151   -0.0228050587
 H    1.2241696117   -4.6007910357   -0.0281328380
 H   -2.1006114070   -2.6800045748    0.0015976958
 H   -2.1709677224   -0.1677247214    0.0150923006