23

 C    0.0051026130    1.5656053221   -0.2123931705
 C    0.0349317264    0.0622446589    0.0856499534
 C   -1.3467636574   -0.5845073077    0.0227592297
 C   -2.1395849112   -0.6967993181   -1.3183708873
 C   -1.2234541718   -1.5137246486   -2.2702029215
 C   -1.4347583695   -2.6731109531   -1.3003530344
 C   -2.7237331715   -2.0680704523   -0.7860353116
 C   -1.5248329439   -2.1039753447    0.1312371597
 C   -1.2970561846   -2.9610947116    1.3416223825
 H    1.0026716323    2.0092233260   -0.1358246244
 H   -0.3689668749    1.7622583690   -1.2230827446
 H   -0.6495682063    2.0948143132    0.4893211444
 H    0.7200445815   -0.4390027725   -0.6074708955
 H    0.4515712627   -0.1025625076    1.0884438726
 H   -2.0023058798   -0.1097909500    0.7660775545
 H   -2.7198549731    0.1447156311   -1.6919692408
 H   -1.7240072634   -1.7076442867   -3.2236015093
 H   -0.2099073245   -1.1450921871   -2.4650232834
 H   -1.2165352471   -3.7227827339   -1.4558501941
 H   -3.7240291507   -2.4651922264   -0.6875812683
 H   -1.6693114632   -3.9791332706    1.1820089839
 H   -0.2312700269   -3.0365440953    1.5880745406
 H   -1.8131651861   -2.5542443342    2.2191727746