16

 C    0.0527838501    1.5619484153    0.0178617538
 C   -0.0145941473    0.0695408124    0.0087974127
 C   -1.1238650571   -0.7248631641    0.0272332086
 N   -2.4359128658   -0.4242804710    0.0786225297
 C   -0.7432492194   -2.1703266424   -0.0019108629
 O   -1.5519416679   -3.0711677147   -0.0210888241
 C    0.7692039362   -2.2439164092   -0.0147974040
 C    1.1919903182   -0.7695291188   -0.0198546936
 O    2.3373488619   -0.3679237226   -0.0440279883
 H    1.0991490880    1.8742693058   -0.0138889965
 H   -0.4634730856    2.0000436487   -0.8458130105
 H   -0.4068692925    1.9848224070    0.9198363151
 H   -2.7737891234    0.5123772067   -0.0524787681
 H   -3.0819900586   -1.1922626034   -0.0224745604
 H    1.1556659643   -2.7693649587    0.8647067339
 H    1.1421534691   -2.7753908807   -0.8961231555