25

 C   -0.0465597403    1.5765339909    0.1973981575
 C   -0.0150146514    0.0437600295    0.0523729923
 C    0.6826369157   -0.5586407001    1.2880864746
 C   -1.4559144601   -0.4978795888   -0.0031207946
 C    0.7517650490   -0.4006247320   -1.2305472600
 C    0.0997702024   -0.0088514565   -2.5888984123
 C    1.2726735408    0.2621698779   -3.5650149051
 C    2.4375151476    0.5010652174   -2.6358167262
 C    2.1594663145    0.1429647653   -1.3839709731
 H    0.9640957975    1.9949200855    0.2368182755
 H   -0.5723812448    2.0583789154   -0.6327721031
 H   -0.5641704148    1.8611790353    1.1198913891
 H    0.1354928401   -0.3049397529    2.2026893229
 H    0.7312206842   -1.6514103032    1.2217922443
 H    1.7044142849   -0.1841550311    1.4044207054
 H   -2.0161260535   -0.0762117119   -0.8431127633
 H   -1.4644328510   -1.5888208132   -0.1086297598
 H   -1.9988329167   -0.2484799007    0.9152671156
 H    0.8129802483   -1.4999974427   -1.1717982292
 H   -0.5861142645   -0.7750283873   -2.9582232546
 H   -0.4825706871    0.9096133040   -2.4676722079
 H    1.4703240211   -0.6036814228   -4.2133777743
 H    1.0764339142    1.1058263947   -4.2367889965
 H    3.3954481364    0.8758306348   -2.9806424583
 H    2.8649052776    0.1805958524   -0.5613752889