17

 C   -0.5055518855    1.4747089892    0.0554259201
 C    0.0168753428    0.0477972008   -0.0027288386
 C    1.3257148933   -0.2492677442   -0.8108886756
 C    1.9482586267   -0.8912982134    0.4437466027
 O    2.7099343111    0.0786653827    1.2312227115
 C    1.6060775619    0.3611392648    2.0206819391
 N    1.4895021144    1.1319926534    3.0033598587
 C    0.6793120281   -0.5722158301    1.2789238045
 H    0.2647424577    2.1702744436    0.4015233266
 H   -0.8385375337    1.8020782678   -0.9354928695
 H   -1.3550800399    1.5568927949    0.7411572852
 H   -0.7807875800   -0.6230415445   -0.3348029352
 H    1.1861183519   -0.9378880457   -1.6474906593
 H    1.8785728279    0.6260867946   -1.1600580528
 H    2.4600769094   -1.8513915199    0.3925616975
 H    2.3720318432    1.6032508990    3.2111674644
 H    0.1047662306   -1.2817749229    1.8706464807