25

 C   -0.5844447151    1.4822082861    2.6279941262
 C   -0.3765466130   -0.0313762724    2.5165855585
 C    0.6134871656   -0.4107102482    1.4079048969
 C    0.9847050135   -1.8953124025    1.3363378980
 C   -0.2260347076   -2.7873711952    1.0724270001
 O   -0.8282990644   -2.3818311344   -0.1499747767
 C    2.1605058496   -2.2451950913    0.3682785222
 C    2.8051143956   -3.1142832673    1.4817407918
 C    1.8397925385   -2.4685714768    2.5130302922
 H   -0.9666322718    1.8979326966    1.6890006531
 H   -1.2997254826    1.7319145554    3.4182533857
 H    0.3565111886    1.9956784510    2.8557852965
 H   -0.0202349354   -0.4216999321    3.4794054342
 H   -1.3442035345   -0.5116996323    2.3290525849
 H    0.2049078730   -0.1046348395    0.4372980573
 H    1.5395683963    0.1632182695    1.5502651809
 H    0.0989293429   -3.8390233988    1.0199959653
 H   -0.9369977987   -2.7112226843    1.9103384996
 H   -1.5765470194   -2.9594863700   -0.3246320721
 H    1.8814937727   -2.7391056568   -0.5651860111
 H    2.7623426048   -1.3647563051    0.1252990899
 H    2.6210461011   -4.1832910108    1.3454313862
 H    3.8745934904   -2.9776436532    1.6576583492
 H    2.3158544637   -1.6720918676    3.0924380938
 H    1.3332655165   -3.1410797499    3.2126696072