17

 C   -0.4881596001    1.8965914621   -0.9174788143
 N   -0.0075704041    0.5316198596   -0.8263704999
 C   -0.6598222261   -0.3613417436   -0.2059881014
 N   -0.1057642938   -1.6500465909   -0.1969332615
 C   -0.6628486514   -2.7847621918    0.3265442947
 O   -1.7076577933   -2.8312006620    0.9368858796
 C   -1.9994796376   -0.1477682534    0.5182258474
 C   -1.9372849943    0.0224695388    2.0179044203
 O   -2.9996295510    0.0065861016   -0.1383108317
 H    0.2733048073    2.5683198030   -0.5050408918
 H   -0.5963856586    2.1566236699   -1.9763368244
 H   -1.4461403784    2.0944358258   -0.4226652548
 H    0.7638262421   -1.7219710289   -0.7101359764
 H   -0.0338170331   -3.6729137732    0.1329148890
 H   -1.4711636631   -0.8466353343    2.4863676182
 H   -1.3285384212    0.9037814921    2.2555424107
 H   -2.9471262532    0.1593905052    2.4074404661