13

 N   -0.0596239348    1.3215341119    0.0067142840
 C    0.0263079995   -0.0290967468    0.0014025917
 O    1.0618649832   -0.6720607763   -0.0091682900
 C   -1.2834012573   -0.7305596066    0.0097191946
 N   -2.4613326378   -0.1777425440    0.0210571787
 N   -3.3232004031   -1.2373731542    0.0245826364
 C   -2.6986639109   -2.4817681835    0.0153632060
 O   -3.1895349597   -3.5852496809    0.0157809884
 N   -1.3558041365   -2.0959828063    0.0058758001
 H    0.7880860325    1.8626767349    0.0012119171
 H   -0.9558004465    1.7795168449    0.0151040100
 H   -4.3174608966   -1.0875863151    0.0331120818
 H   -0.5608025120   -2.7133127681   -0.0025282088