20

 C   -0.0299619599    1.4541813287    0.0405188322
 C    0.0003983495   -0.0545873600   -0.0218441232
 C    1.0272813661   -0.7333685722   -0.9377591228
 C    0.3491924827   -2.0637567331   -1.3619314196
 C   -0.7420518887   -2.2659115479   -0.3025923776
 C   -0.1235042811   -2.2954154352    1.1347012114
 C   -0.4092333840   -0.7984263437    1.2447972054
 C   -1.2844954720   -0.8399404656   -0.0006595894
 H    0.9123228232    1.8559761634    0.4317495666
 H   -0.1862726530    1.8888515187   -0.9537813660
 H   -0.8354408995    1.8112492732    0.6908148117
 H    1.2514543096   -0.0999500563   -1.8026467817
 H    1.9780422631   -0.9050556895   -0.4201435360
 H   -0.1064037084   -1.9602641058   -2.3535956880
 H    1.0501331958   -2.9040615395   -1.4074532345
 H   -1.4588921884   -3.0555679177   -0.5285161862
 H   -0.7438255586   -2.8694676522    1.8283105282
 H    0.9151062990   -2.6365931403    1.2254664953
 H   -0.5738758587   -0.2508058206    2.1669469476
 H   -2.2741278667   -0.4406172444   -0.1833265233