20

 C   -0.0608638100    1.5857469303   -0.0713271321
 C    0.0316870456    0.0619456557    0.0074132409
 C    0.7624481453   -0.5795929825   -1.2020603897
 O    1.3681432201   -1.7945565675   -0.7453106402
 C    1.6220592878   -1.6960731081    0.6316185758
 C    2.9116534695   -1.0067713322    1.1351677310
 N    2.9649151250    0.3440261510    0.5266857336
 C    2.1090459641    0.1125810181    1.7133943851
 C    0.7891780514   -0.5124727805    1.2191425276
 H    0.9364469377    2.0328571537   -0.0941791788
 H   -0.5938636679    1.8994250411   -0.9756099467
 H   -0.6034102184    1.9956631067    0.7871020129
 H   -0.9838732389   -0.3511760347    0.0438071314
 H    0.0747106219   -0.8463578802   -2.0121425650
 H    1.5258559448    0.1015325639   -1.5907158533
 H    1.4692575900   -2.6748143735    1.0948377315
 H    3.8160149188   -1.4790890365    1.4994932985
 H    3.8258473607    0.7793594421    0.8559320498
 H    2.2675991569    0.6718921948    2.6269297816
 H    0.1329672654   -0.7908676318    2.0453145762