21

 C   -0.3244197753    1.5750546525   -0.3938887539
 C   -0.0046823861    0.1836856142    0.1476242413
 N   -1.2244103368   -0.6177708179    0.2148455014
 C   -1.5699073700   -1.4518263904   -0.9346730388
 C   -1.1634276915   -2.0712883215    0.3605500702
 C    0.1497821713   -2.8210897062    0.4698996917
 C   -2.2634999258   -2.5920676467    1.2916849581
 C   -2.6645759027   -3.9657538184    0.9889594708
 N   -2.9660489387   -5.0519874261    0.7341630281
 H    0.5759455578    2.1965393785   -0.4144991065
 H   -0.7178957065    1.5149580965   -1.4138592566
 H   -1.0760652150    2.0671949073    0.2292117339
 H    0.7771834088   -0.2799207292   -0.4752685989
 H    0.3995768882    0.2621359671    1.1638379490
 H   -2.6106724135   -1.4365072663   -1.2493645913
 H   -0.8520674487   -1.5134899793   -1.7522390876
 H    0.8855141107   -2.4731345377   -0.2568274458
 H    0.5814202373   -2.7139553246    1.4721269525
 H   -0.0132829970   -3.8886122273    0.2922143217
 H   -1.9211391375   -2.5498019987    2.3331427611
 H   -3.1348002690   -1.9354673258    1.2166807797