18

 C   -0.0922056731    1.5273596175   -0.0655549745
 N    0.0401414987    0.0682398272   -0.0556557258
 C    0.9244784558   -0.6933707493   -0.9731869387
 C    2.3734134850   -0.3614462716   -0.5393344251
 O    2.5041735119    0.8471059147    0.2185773357
 C    2.2122286419   -0.3661221749    0.9221295167
 C    0.7038011146   -0.6997906375    1.0276926360
 C    0.6373334025   -1.9022142875    0.0038859019
 O   -0.5896962653   -2.5352992500   -0.1334729021
 H    0.4735309182    1.9768065188   -0.8855189867
 H   -1.1491865919    1.7981818962   -0.1808533729
 H    0.2817065096    1.9713428495    0.8604387018
 H    0.6695078457   -0.7217250987   -2.0328014544
 H    3.2513471654   -0.7017360561   -1.0775489520
 H    2.9520114137   -0.7104131684    1.6365691065
 H    0.2240708334   -0.7346872351    2.0060777601
 H    1.4107173774   -2.6685020815    0.0867226135
 H   -1.2332502737   -1.8149423133   -0.2021408999