18

 O   -0.0173306542    1.2935366851   -0.2364596250
 C    0.0457663377   -0.1097229490   -0.0462614708
 C    0.1057253550   -0.4327701339    1.4790712109
 O   -1.3660785510   -0.5247971169    1.4921713346
 C   -1.3053532538   -0.7959569607    0.0723677408
 C   -1.9310441043   -0.4737098934   -1.3056136086
 N   -0.8218443398   -1.4230762190   -1.7968040866
 C   -1.0653099531   -2.1956215178   -0.5187473514
 C    0.4751661621   -0.7420656377   -1.3909059594
 H   -0.5928430842    1.6576580553    0.4484698492
 H    0.5654260010   -1.3838495806    1.7653647682
 H    0.4650277496    0.3755748324    2.1206530878
 H   -2.8970397604   -0.9289907823   -1.5251154771
 H   -1.8669393572    0.5522201829   -1.6668805482
 H   -0.2236600052   -2.8024228657   -0.1752668558
 H   -1.9688108809   -2.8036199346   -0.5972936988
 H    0.7495603237    0.0340843027   -2.1055006983
 H    1.2627819749   -1.4957313367   -1.3489067718