16

 C    0.0840880554    1.4982994248   -0.0269540806
 C   -0.0607396501    0.0176545443   -0.0547215975
 C   -1.1327180419   -0.8173818735    0.0327032830
 C   -2.5853484373   -0.5114026923    0.2054002245
 C   -0.5322744814   -2.1156490370   -0.0591521898
 N   -1.1948395850   -3.3289148680    0.0581991975
 N    0.7722180957   -2.0586506148   -0.1986524482
 O    1.0767313729   -0.6897560863   -0.1850801935
 H    0.7675070047    1.8073733954    0.7705750813
 H    0.4919649071    1.8718818232   -0.9723446900
 H   -0.8831382024    1.9758729131    0.1419543218
 H   -3.1774356262   -0.8164456366   -0.6672619558
 H   -3.0010719118   -1.0330742324    1.0752110810
 H   -2.7535220027    0.5590898510    0.3493890372
 H   -2.0875989512   -3.3559007418   -0.4148952579
 H   -0.6143361357   -4.1135774691   -0.2088738228