18

 C    0.6060038248   -0.6444921041    1.3624769518
 C    0.1338882560    0.0265761196    0.0675259208
 C    0.8177412919   -0.4630290197   -1.2244221070
 O    2.2330541460   -0.2415148886   -1.2153089370
 C    0.5460746561   -1.9424761255   -1.5512353388
 O    1.2610052646   -2.3288106459   -2.7065720503
 C    0.3007442986    0.3897275436   -2.3890309845
 O   -0.8582246016    0.4379734121   -2.7033763335
 H    0.4004862075   -1.7182257359    1.3774424478
 H    1.6802630540   -0.5032198686    1.5348221836
 H    0.0939704736   -0.1995828269    2.2204265700
 H   -0.9439789982   -0.1132312184   -0.0632354442
 H    0.2986234023    1.1079507926    0.1450043165
 H    2.5871238603   -0.5792412245   -0.3859001110
 H    0.8111083464   -2.5719039723   -0.6865061744
 H   -0.5191427959   -2.0775576484   -1.7601501193
 H    2.1510310504   -1.9708445648   -2.5927591312
 H    1.0883034331    0.9801993156   -2.9043742392