21

 C   -0.0489117455    1.5267063603   -0.1148440249
 C   -0.1525154703    0.0129823531   -0.1603114077
 O    0.8902601843   -0.4788551884   -1.0024013667
 C    0.8842015314   -1.8410042568   -1.1687239308
 C   -0.1255645095   -2.5839163323   -2.0286279970
 C    1.3515841015   -2.6690779527   -2.3372553281
 C    2.0160396174   -2.3824444519   -3.6417445817
 O    1.9563986266   -3.6457687438   -1.4704002413
 C    1.6366159759   -2.8468352159   -0.2988484709
 H    0.9219380159    1.8344885567    0.2835831055
 H   -0.1564984869    1.9490115602   -1.1180184144
 H   -0.8340975602    1.9422614204    0.5237278132
 H   -0.0530482053   -0.4137962224    0.8492616730
 H   -1.1277726079   -0.3053302299   -0.5567295452
 H   -0.6592961800   -3.4566571246   -1.6606440229
 H   -0.6873939449   -1.9340252009   -2.6933103509
 H    1.5279950618   -1.5392061368   -4.1381460916
 H    3.0722503113   -2.1379254744   -3.4938867766
 H    1.9549109436   -3.2515748150   -4.3061971071
 H    2.5457705206   -2.4252306473    0.1454737381
 H    1.0762291902   -3.4148328875    0.4530275982