16

 C   -0.1583731142    1.4790105785    0.0396213326
 C    0.1393224199    0.0220724932    0.0284801395
 C    0.6479921805   -0.9875012643   -0.9027871267
 C    1.4614449808   -1.7284453587    0.1627841086
 C    0.5113902949   -1.0691702208    1.1820661694
 O    0.8758455545   -0.9048362906    2.4881151020
 C   -0.8541868301   -1.5858306652    0.7896815786
 O   -1.7783931816   -2.0097304516    1.4194866233
 N   -0.8245380468   -1.0342018866   -0.5506976812
 H    0.7333552451    2.0513198451    0.3145715098
 H   -0.4947563935    1.8080153393   -0.9474899822
 H   -0.9466126271    1.7106445212    0.7633575419
 H    0.8514542237   -0.9027512223   -1.9621849470
 H    1.4944312849   -2.8224495697    0.1459632499
 H    2.4719960467   -1.3183907480    0.2319976837
 H    0.0789913023   -0.9885358896    3.0292272278