16

 C    0.0655189441    1.5617458213    0.0546011574
 C    0.1074195555    0.0515410405    0.0696487665
 C    1.3198351492   -0.7858586771   -0.1845426250
 N    2.5422815222   -0.2004944128    0.3627972314
 C    2.0120521154   -0.1046288778    1.6600336329
 O    2.4474106116    0.3573517495    2.6723139264
 C    0.7057525420   -0.7925961315    1.2263086061
 C   -0.0188582540   -1.7926250400    1.9223666652
 C   -0.6320456735   -2.6307563713    2.5299899554
 H    1.0011972976    2.0053706053    0.4035551970
 H   -0.1246540642    1.9256514081   -0.9608906528
 H   -0.7375955615    1.9297045074    0.6998460584
 H   -0.8051100196   -0.4210227134   -0.2903793859
 H    1.3722557289   -1.6194267860   -0.8725234961
 H    3.0654878790    0.5471051158   -0.0784934054
 H   -1.1646755026   -3.3737335381    3.0699660087