19

 C   -0.3498980639    0.9945366103    0.0729129829
 O    0.5909448986   -0.0699167618    0.1532580176
 C    0.9335228350   -0.5807973160   -1.0902980920
 C    1.5118475340   -1.9569178550   -1.1030383591
 C    0.1258307359   -1.7198085581   -1.6831725664
 C   -1.0964357234   -2.2285441554   -0.9425080207
 O   -2.2430798122   -1.4835611901   -1.2664694932
 C   -1.3269752808   -3.6934664886   -1.2554213825
 O   -2.3727896109   -4.0904942272   -1.7118876623
 H    0.0579345301    1.8375531187   -0.5041216966
 H   -1.2879533020    0.6640704753   -0.3877768454
 H   -0.5379969202    1.3259858850    1.0964106583
 H    1.3280249895    0.1568635933   -1.7904964190
 H    2.3304576145   -2.1820685487   -1.7764240523
 H    1.5698682686   -2.4515811229   -0.1387896851
 H    0.0268664261   -1.7368887379   -2.7649900290
 H   -0.8843730833   -2.1590542251    0.1388283540
 H   -2.8942357057   -2.1300020168   -1.5837767132
 H   -0.4803032999   -4.3777077289   -1.0497258562