21

 C    0.1108936310    1.3817822840   -0.3371460309
 C    0.0663187161   -0.0630155097    0.1761841699
 O    0.5187974364   -0.1441874377    1.5211466013
 C   -1.3291466613   -0.6620814623    0.0795926086
 O   -2.2134137850   -0.0471308513    1.0020070167
 C   -2.0049776822   -1.1520601336   -1.1716508594
 C   -1.0291976671   -1.8770399151   -2.1079611939
 C   -0.6621121858   -2.8606206970   -0.9458082369
 C   -1.6408850106   -2.1240946624   -0.0276341300
 H    1.1166185178    1.7899846511   -0.2103568449
 H   -0.1593088771    1.4361318384   -1.3974007414
 H   -0.5769361164    2.0210020993    0.2286820960
 H    0.7676857397   -0.6625785090   -0.4118390337
 H   -0.2463828806    0.0835840129    2.0650756596
 H   -2.4958869033    0.7945468197    0.6271791574
 H   -2.9801923487   -0.7662588467   -1.4478553060
 H   -1.5427838853   -2.3877365225   -2.9252734684
 H   -0.2189519441   -1.2785244958   -2.5361969435
 H   -0.9844645997   -3.8811419794   -1.1618938364
 H    0.3821457240   -2.8922161091   -0.6212724002
 H   -2.2941783678   -2.5771032540    0.7076081158