16

 O    0.4754338002    0.7219956023    0.7703772676
 C    0.2193478834   -0.3827012709   -0.0438099601
 C   -1.2800537520   -0.7198331744   -0.2163868721
 C   -1.2452248807   -1.4535906285   -1.5766114570
 O   -0.1905048494   -0.8174886022   -2.3282395871
 C    0.6353696805   -0.1513434466   -1.4845820582
 N    1.5948715880    0.6045333783   -1.7975773878
 C   -1.8842796245   -1.4971028925    0.8492638637
 C   -2.3813110755   -2.1610360864    1.7185744685
 H    1.1611539275    1.2298834705    0.3102956058
 H    0.7363155725   -1.2820978958    0.3312097490
 H   -1.8089645469    0.2339852234   -0.3341911409
 H   -1.0093877350   -2.5151592217   -1.4481835341
 H   -2.1701054452   -1.3568571753   -2.1466337027
 H    1.7204482007    0.6814933647   -2.8064053744
 H   -2.8214966936   -2.7358191346    2.4955754199