18

 C   -0.0237345577    1.5762184746   -0.1692849909
 N    0.0021965762    0.1204418293   -0.0628074724
 C   -1.0899448875   -0.5014242882    0.7406917034
 C   -0.1963787240   -1.7229268887    1.1036276832
 C   -0.5710553557   -1.6372810072    2.6072154268
 C    0.4435234716   -2.1070391562    3.6033794301
 O    0.1932827027   -2.7731401680    4.5770900371
 C   -0.4843646924   -0.1526461091    2.1520731265
 C    0.6904096159   -0.4395968402    1.1385900830
 H    0.9504858023    1.9260263297   -0.5257918627
 H   -0.7735881288    1.8675463053   -0.9118221115
 H   -0.2527051666    2.1000113121    0.7737197752
 H   -2.1391638413   -0.5034261792    0.4411076286
 H   -0.0296086084   -2.6027749542    0.4839776024
 H   -1.5661642112   -2.0000736677    2.8791872333
 H    1.4905345351   -1.7887443495    3.3855288540
 H   -0.6532357191    0.7313831327    2.7655850325
 H    1.7664504288   -0.3559653656    1.2935661313