21

 C    0.2604781712    1.5577851831    0.3070236406
 C   -0.0053580301    0.0852330696    0.0685544502
 C   -1.4662472625   -0.2632046970   -0.2209989736
 C   -1.9871351692    0.3427868877   -1.4442063721
 C   -2.4000458490    0.8424349643   -2.4589043041
 C   -2.9177894922    1.4593348936   -3.6728997751
 O   -2.6473315478    0.6219398539   -4.7922748870
 C    1.0520295204   -0.7360168343   -0.6235096946
 C    0.7923628854   -0.9266054060    0.8542908296
 H    1.3224949123    1.7403229494    0.4969009341
 H   -0.0359294821    2.1539709463   -0.5623411242
 H   -0.3018519655    1.9264256263    1.1736804862
 H   -1.5733314037   -1.3532532086   -0.2891563110
 H   -2.0893322793    0.0478269609    0.6297064708
 H   -4.0011572645    1.6287965233   -3.5575567137
 H   -2.4544224564    2.4517254222   -3.7996402236
 H   -3.0042052982    1.0621517308   -5.5705051826
 H    0.7311575552   -1.5173100916   -1.3043800923
 H    1.9693981830   -0.2400712726   -0.9221967112
 H    1.5321947184   -0.5568301062    1.5565314334
 H    0.3001342448   -1.8401138251    1.1724831102