19

 C   -0.0660443627    1.5650118375   -0.0018072650
 C   -0.0014272883    0.0565878728    0.0149520822
 C    0.8942797514   -0.6822665208   -1.0233433293
 C    1.6567153689   -1.4260488420    0.1127419069
 C    0.7290650799   -0.8056884439    1.1695616661
 O    1.3730644791   -0.2816807586    2.2838450777
 C   -0.5870777587   -1.5497293697    1.3682227912
 O   -1.5610438283   -0.5507862747    1.7233041792
 C   -1.2590557076   -0.7445503333    0.3331621113
 H    0.9368182962    1.9998766750    0.0682471037
 H   -0.5251053423    1.9344674117   -0.9269267467
 H   -0.6561007255    1.9370942195    0.8413754997
 H    0.3515129946   -1.3249413569   -1.7222640117
 H    1.5250593902   -0.0070844841   -1.6057753204
 H    1.6851556859   -2.5182499578    0.0702856051
 H    2.6761217577   -1.0568390759    0.2429782554
 H    0.6885449506    0.0865033471    2.8563127039
 H   -0.7716875909   -2.5633839982    1.7091323602
 H   -2.0828775800   -1.0224004977   -0.3158631596