19

 C    0.3972648110    1.3648934686    0.1046641455
 C   -0.2886936764    0.0202928828   -0.0547333977
 O   -0.9866209771   -0.4410156222    0.8252341448
 C   -0.0738525605   -0.7209083744   -1.3339680456
 C   -1.1469549726   -1.7134536677   -1.7590513756
 C    0.1645747878   -2.2346467796   -1.2853630382
 C    1.2127286300   -2.4988709722   -2.3492058599
 O    1.1553803295   -1.3787889566   -3.2286520030
 C    0.8207910841   -0.2256550551   -2.4628035135
 H    1.4864548117    1.2417303378    0.0987741348
 H    0.1482401354    2.0319367188   -0.7282246554
 H    0.0900233569    1.8173985939    1.0478661180
 H   -1.9845135476   -1.7972433636   -1.0774223902
 H   -1.3737279996   -1.7648744438   -2.8190034512
 H    0.2287811069   -2.7252568356   -0.3218729866
 H    2.2081978208   -2.5966810023   -1.8867529711
 H    1.0226758881   -3.3922551837   -2.9528685241
 H    0.3354893638    0.4806301574   -3.1449280133
 H    1.7257752476    0.2540528173   -2.0571758880