21

 C   -0.2238760982    1.5483818858    0.0015658901
 C    0.0310439885    0.0432693055   -0.0085660846
 C    0.9547143760   -0.4808594504   -1.1523708878
 C    2.0016026737   -1.3046522097   -0.3323263334
 O    1.1931968147   -1.8154245920    0.7333362910
 C    0.7902426118   -0.5341752169    1.2393081728
 C    2.1250137717    0.1862657258    1.3718123271
 C    2.8924810547   -0.2887922057    0.3866985343
 C    4.2582401373    0.1003730339   -0.0657065541
 H    0.7144103461    2.1109539766    0.0387593026
 H   -0.7639000694    1.8602748308   -0.8985223302
 H   -0.8293099044    1.8443344952    0.8662122285
 H   -0.9279841197   -0.4814966274   -0.0611633876
 H    0.4100236033   -1.1282750370   -1.8435670541
 H    1.4183974411    0.3233970155   -1.7310323105
 H    2.4987100605   -2.1154732102   -0.8658288025
 H    0.1860880805   -0.6472022307    2.1397022670
 H    2.3480338876    0.9859225472    2.0657305230
 H    4.6884912704    0.8785033706    0.5706373405
 H    4.9392648761   -0.7600710368   -0.0627057003
 H    4.2417944177    0.4790104099   -1.0963103117