19

 O   -0.1035213041   -0.0389369624   -0.0598207439
 C   -0.0192040680    1.1674217722   -0.0113171878
 C    1.2456918886    1.9176774306    0.0803637401
 C    1.2119366461    3.2603455615    0.0604422628
 C    2.4532256052    4.1063186743    0.0934324713
 C    3.6054569122    3.4250559516    0.8596470014
 C    3.7682444866    1.9452889319    0.5075071423
 C    3.2205149507    0.8952097121    1.4445795045
 C    2.5275332634    1.1702258028    0.1277052266
 H   -0.9286859993    1.8107841754   -0.0490099707
 H    0.2487094676    3.7638432433   -0.0034426497
 H    2.7582207605    4.3097360143   -0.9444997054
 H    2.2337777972    5.0856392234    0.5325474753
 H    4.5401119915    3.9599632087    0.6649494051
 H    3.4113151946    3.5297846988    1.9330095231
 H    4.6769258889    1.6878784847   -0.0266259015
 H    3.7503550807   -0.0453340688    1.5463486388
 H    2.7358672212    1.2405536466    2.3524272044
 H    2.6171856364    0.3886141987   -0.6197743767