21

 O    0.1292318166    1.4308120715   -0.0830943303
 C    0.0650107946    0.0089567732   -0.0495061692
 C    0.7550088044   -0.5881322365    1.1973256060
 C   -0.3808692416   -0.7493942249    2.2174116516
 C   -1.5407189274   -1.2882146402    1.3552681673
 C   -2.9317577079   -1.1679043629    1.9963123270
 C   -3.0741179297   -2.0364668302    3.2251546620
 O   -3.4000388447   -1.6483904203    4.3171557008
 C   -1.3990261750   -0.5196649521    0.0164277901
 H   -0.2756943503    1.7690215578    0.7228328045
 H    0.5655905931   -0.3000248015   -0.9704350138
 H    1.1690852126   -1.5745127883    0.9545905865
 H    1.5808908552    0.0447415786    1.5312481637
 H   -0.1264805673   -1.4026936039    3.0569863090
 H   -0.6575353313    0.2235410784    2.6485673737
 H   -1.3445958747   -2.3529218418    1.1649111051
 H   -3.1577809804   -0.1319816414    2.2695951166
 H   -3.6903072952   -1.5017098795    1.2728044011
 H   -2.8430760281   -3.1147106644    3.0478286709
 H   -2.0736280445    0.3431448390   -0.0170783572
 H   -1.6531365183   -1.1486121207   -0.8415053152