15

 N    0.0009124489    1.4264969192   -0.0996532655
 C   -0.0356449884    0.0496518477   -0.0690196272
 C   -1.2171431080   -0.6848442499   -0.0366510547
 C   -1.1387821256   -2.0785693960   -0.0609407748
 O   -2.2951882635   -2.7853275586   -0.0311251401
 N   -0.0074615392   -2.7655303803   -0.1092239003
 C    1.1313116732   -2.0522621413   -0.1362391073
 C    1.1772346195   -0.6749415169   -0.1185792735
 O    2.3332551117    0.0688500999   -0.1373823534
 H    0.8839169156    1.8402626516    0.1563833423
 H   -0.8067466886    1.9093534989    0.2602350934
 H   -2.1833844752   -0.1958660788    0.0024513148
 H   -2.0286927392   -3.7143220911   -0.0550367667
 H    2.0590602492   -2.6233062986   -0.1706138367
 H    3.0899444197   -0.5255903659   -0.1319037702