16

 O    0.2804444530    1.2170298535   -0.3460714889
 C    0.0121687332   -0.1391054124   -0.0099913427
 C    0.6027459758   -0.5455166997    1.3201844416
 C   -0.3262113813   -0.8681668046    2.2238067835
 C   -1.7207934905   -0.8236799737    1.6552377579
 C   -1.4883818789   -0.4287561837    0.1737868751
 O   -1.8664929225   -1.7840018841   -0.2423008727
 C   -2.1808283178   -2.1449763793    1.0527972606
 N   -2.6752722410   -3.1975420563    1.5158423999
 H    0.1782207066    1.7406407844    0.4564960538
 H    0.3972221533   -0.7315547661   -0.8472627992
 H    1.6729789560   -0.5385937837    1.4929787483
 H   -0.1331401998   -1.1784953581    3.2440009870
 H   -2.4608135180   -0.3022440807    2.2641712398
 H   -2.1308136644    0.3164596082   -0.2969746662
 H   -2.8571162838   -3.8817174138    0.7793847621