22

 C    0.0861029504    1.5652277235   -0.0329322426
 C    0.0196890069    0.0387866776    0.0116368992
 O    0.6873138312   -0.4722102110    1.1661490616
 C   -1.4173116436   -0.4910717841   -0.0914042609
 C   -1.5013214515   -2.0151059234   -0.1111558294
 C   -1.2954819597   -2.8578171810    1.1796553700
 N   -2.5837455916   -3.6147897892    0.9695423968
 C   -3.6414229981   -2.5939210471    1.0465182228
 C   -2.8686424602   -2.6925611585   -0.2079401117
 H    1.1219367271    1.9031677855    0.0584067880
 H   -0.3264453635    1.9549881076   -0.9690703248
 H   -0.4909395671    2.0034738017    0.7915601496
 H    0.5991410836   -0.3660266557   -0.8283529125
 H    0.2724935754   -0.0766750880    1.9409743263
 H   -2.0070975534   -0.0865941405    0.7435050531
 H   -1.8734377800   -0.0925933446   -1.0080527928
 H   -0.8450528421   -2.3966495997   -0.9003789856
 H   -0.4395052561   -3.5322875707    1.1433215819
 H   -1.2699371174   -2.3075187765    2.1255396077
 H   -4.6416536134   -3.0169088393    1.0478690482
 H   -3.5109019928   -1.7466430954    1.7173082234
 H   -3.3148335740   -3.0677348912   -1.1246001783