25

 C   -0.0752946416    1.6911312462    0.2134382496
 C    0.0420462282    0.1674891646    0.0950603287
 C   -1.3124730280   -0.5298758535   -0.1049294703
 C   -1.9824796993   -0.2975622032   -1.4455509557
 C   -2.6809167415   -1.3619292620   -1.8337226499
 C   -2.5959664339   -2.4871874375   -0.8222400609
 C   -2.6291571603   -3.8965100072   -1.4218467790
 C   -1.3253489480   -2.0914674386    0.0008888302
 C   -0.0429592126   -2.7408286017   -0.5359872533
 H    0.9049650549    2.1514855624    0.3721255334
 H   -0.5048681541    2.1370728207   -0.6897362572
 H   -0.7163840961    1.9735121385    1.0561720505
 H    0.7173653420   -0.0829558889   -0.7312879885
 H    0.5123575338   -0.2232274647    1.0066835854
 H   -1.9846453988   -0.1408258189    0.6796051406
 H   -1.9262240794    0.6452133276   -1.9789123119
 H   -3.2841784233   -1.4303294144   -2.7334608520
 H   -3.4659697209   -2.4031524077   -0.1499592663
 H   -1.8279304125   -4.0508390235   -2.1505001386
 H   -2.5334498189   -4.6640079876   -0.6462328149
 H   -3.5807501066   -4.0671474329   -1.9368841369
 H   -1.4451816652   -2.3944558187    1.0475686621
 H    0.1326310205   -2.4840026789   -1.5858775783
 H    0.8309722744   -2.4204802639    0.0376703991
 H   -0.0967168329   -3.8306787662   -0.4627056957