11

 O   -0.0069633719   -0.0169279547    0.0034893966
 C   -0.0290133205    1.1742458541    0.0093014763
 N   -1.1527682809    2.0238777170    0.0298515196
 C   -0.6879362145    3.3121768200    0.0303227231
 C    0.6608706709    3.2865454218    0.0116127825
 O    1.1084091854    1.9849526499   -0.0014963114
 C    1.0312306371    4.6413994444    0.0138080013
 N   -0.0427633946    5.4160455736    0.0326361524
 O   -1.1824415209    4.5330073221    0.0437812031
 H   -2.0940264193    1.6705243057    0.0414626516
 H    2.0025343194    5.1124965661    0.0029975548