18

 C   -0.1447085053    1.5245240849   -0.0015900688
 C    0.1112690618    0.0280063169    0.0076846922
 N    1.2626947870   -0.4431719040   -0.8463256234
 C    1.7728072018   -1.2596879542    0.2803644357
 C    2.1930641344   -0.3101459043    1.3722916978
 C    0.7322809019   -0.6420628299    1.2512392499
 N    0.0587647120   -1.2346661713    2.3409853972
 C    2.2336293371   -2.5944533380    0.1285979039
 N    2.5816412400   -3.6897325141   -0.0185777153
 H    0.7608303535    2.0800038855    0.2567339369
 H   -0.4714623466    1.8567357879   -0.9920321821
 H   -0.9309400178    1.7825692985    0.7166416184
 H   -0.8081999043   -0.5145954735   -0.2520024242
 H    0.9354341009   -1.0359778713   -1.6032427151
 H    2.6674378410   -0.7759620548    2.2289582024
 H    2.5906161900    0.6541066113    1.0702597697
 H   -0.0753740650   -0.5872755149    3.1102729946
 H   -0.8399795523   -1.6230136045    2.0781845204