21

 C   -0.3943496805    1.4364465167    0.1896530354
 O   -0.3265999236    0.0090632330    0.2952443769
 C    0.8429770674   -0.4793203997    0.7604363391
 O    1.7772094358    0.2204736580    1.0707235073
 C    0.8318431939   -1.9820527843    0.8407198820
 C    2.0333158957   -2.7218187024    0.1775910648
 C    2.0975064363   -3.6673071288    1.4085129461
 C    3.4553575456   -4.0961592451    1.9402175196
 C    1.2784939324   -2.6084287847    2.1966903932
 H    0.3724618688    1.8098621555   -0.4939285105
 H   -1.3899398863    1.6597158097   -0.1942956035
 H   -0.2469756774    1.9033376440    1.1668868545
 H   -0.1293140346   -2.3713023642    0.5032508155
 H    1.8682406376   -3.1615623824   -0.8087046820
 H    2.9039276738   -2.0606613481    0.1394163676
 H    1.4734572187   -4.5497029598    1.2247619284
 H    4.0940286849   -3.2262798264    2.1300255140
 H    3.3572496569   -4.6507403572    2.8803347436
 H    3.9757888699   -4.7438590476    1.2256319831
 H    1.9354539329   -1.9151572192    2.7299241244
 H    0.4923939418   -2.9548759870    2.8715469704