18

 C   -0.0591602709    1.3468471502    0.2754242478
 O   -0.0010410890   -0.0544484603    0.1239016756
 C   -1.2655482327   -0.6469349483   -0.0950080803
 C   -1.0627558709   -2.1516556520   -0.1616290966
 N   -0.4089153650   -2.5989607985    1.0546235402
 C   -0.3686522598   -3.9160099201    1.3975413739
 N   -1.0140491762   -4.8231270550    0.7622406217
 C    0.4503976162   -4.1929880533    2.5705181435
 N    1.0966061816   -4.4578175772    3.4921224226
 H    0.9601794402    1.6985114166    0.4490471919
 H   -0.4558308465    1.8342998761   -0.6278643673
 H   -0.6892801147    1.6372688914    1.1299704700
 H   -1.9549691951   -0.3903205375    0.7257612721
 H   -1.7112795376   -0.2885812598   -1.0361973638
 H   -2.0233366315   -2.6641751171   -0.2543584859
 H   -0.4667971326   -2.4117783803   -1.0475458419
 H    0.2939397398   -1.9783052505    1.4256328481
 H   -0.8993971653   -5.7313292743    1.2041809184