20

 C   -0.0374276686    1.5666500973   -0.0106253632
 C   -0.0412630797    0.0302867535    0.0135728909
 C    0.5305375282   -0.4846477535   -1.3189754907
 O    0.3475898596   -1.8856126142   -1.5281244880
 C    1.4561896913   -2.6834363660   -1.2947373773
 O    1.9391538429   -2.5829807012    0.0420994941
 C    0.9725047521   -2.7821121145    1.0027310403
 N    0.3862118740   -1.8605948058    1.6229265677
 C    0.7060343222   -0.4756066418    1.2679396255
 H    0.9848116745    1.9614538091   -0.0523867608
 H   -0.5784930686    1.9530723702   -0.8802995017
 H   -0.5122388474    1.9728454110    0.8868852238
 H   -1.0786647910   -0.3203538721    0.0786466222
 H    0.0006429689    0.0102793402   -2.1406830100
 H    1.5956729892   -0.2237477318   -1.4014203250
 H    1.1391169284   -3.7093257151   -1.5218533599
 H    2.3198542795   -2.4023743557   -1.9119942950
 H    0.7532058960   -3.8307920398    1.2152616492
 H    1.7858068021   -0.3383290231    1.1222887116
 H    0.4056333965    0.1439002135    2.1184064765