21

 C   -0.2239902792    1.6284235964   -0.0320780912
 C    0.0164653110    0.1299579436    0.0129130293
 C    1.1437159583   -0.5751730449   -0.7816854122
 C    2.4777502883    0.1878636611   -0.7542662449
 C    2.8000641691    0.5594924248    0.6768349437
 C    1.9462438391    0.2001879846    1.6347150075
 C    0.7236726124   -0.5942906518    1.2046597285
 C   -0.0838218070   -1.1845295858    2.3348018873
 O    1.1859549940   -1.6055519335    0.2430695496
 H    0.6757535462    2.2001000743    0.2080355050
 H   -0.5673135492    1.9332450255   -1.0271991219
 H   -1.0036420350    1.9181304801    0.6814367262
 H   -0.9146019295   -0.4090585706   -0.1905149799
 H    0.9114452526   -0.9829403240   -1.7699363349
 H    3.2723919303   -0.4408763688   -1.1767606431
 H    2.4239746537    1.0839600094   -1.3881449228
 H    3.7162739300    1.1039558151    0.8871393631
 H    2.0958703986    0.4420628687    2.6824416536
 H   -0.4821958581   -0.3895535463    2.9747988754
 H   -0.9179026232   -1.7740578561    1.9456445161
 H    0.5411447776   -1.8363578216    2.9547293157