15

 O    0.5019176377    1.0157319032   -0.6746174852
 C    0.0881672313   -0.1760278196   -0.0770403668
 C    0.2303763039   -0.3573269514    1.4752990318
 C   -1.3003288652   -0.6682996933    1.5759256242
 C   -1.4377047369   -0.3930791835    0.0519081464
 O   -2.1048022163    0.8774802815    0.3498168835
 C   -2.1055670717    0.5974511899    1.7180980145
 N   -2.6164276879    1.2292690044    2.6690876238
 H   -0.1359212675    1.6932658762   -0.4145882845
 H    0.5677430714   -0.9960177096   -0.6198044491
 H    0.8696177299   -1.1938967482    1.7624798047
 H    0.5498184425    0.5339993507    2.0185171512
 H   -1.6308265134   -1.5622880171    2.0974164293
 H   -2.0026174197   -0.9757025214   -0.6747910555
 H   -3.0902813882    2.0758603082    2.3501633715