15

 N    0.0823214956    1.3878263687    0.1624614234
 C   -0.0142913357    0.0122844245    0.0549877284
 C   -1.1661737588   -0.6980908593    0.0288434900
 O   -2.3714428007   -0.0723895251    0.0235495324
 C   -1.1699250561   -2.1442038751    0.0019467807
 N   -2.3329541683   -2.7127043959   -0.0253362655
 C    0.1585072023   -2.7334440267   -0.0071702904
 C    1.2488572958   -1.9498327023    0.0058392804
 O    1.2041296688   -0.5987073912    0.0422880425
 H    0.8398914256    1.7861292209   -0.3776227291
 H   -0.8018620550    1.8409698135   -0.0268799741
 H   -3.0062261358   -0.8173021142   -0.0083471140
 H   -2.2677990338   -3.7281769992   -0.0559226882
 H    0.2807630889   -3.8099770221   -0.0326855553
 H    2.2714238671   -2.3032947366   -0.0079721313