21

 C   -0.0672904889    1.5183466733    0.0816707129
 C   -0.1126635576   -0.0019758242   -0.0852067600
 C    0.7731415245   -0.4759486262   -1.2577929522
 O    2.1053444996   -0.0764770610   -1.0727181413
 C    0.7120803865   -1.9964974483   -1.4095615505
 O    1.7191475106   -2.6498017141   -1.1952019528
 C   -0.5692113773   -2.6218836790   -1.8120108640
 C   -0.4918232751   -3.9012252647   -2.6373743195
 C   -0.9084591497   -3.9829421890   -1.2122305662
 H    0.9635754820    1.8522108694    0.2203980007
 H   -0.4705861078    2.0247635396   -0.8025221450
 H   -0.6555416139    1.8354632769    0.9479756182
 H    0.2466399569   -0.4905445885    0.8287062015
 H   -1.1452297132   -0.3352614607   -0.2436092740
 H    0.3816131609   -0.0320209592   -2.1897720907
 H    2.6004562863   -0.9062594784   -0.9685901456
 H   -1.3921601801   -1.9472727662   -2.0159924062
 H   -1.2384590511   -4.0275197603   -3.4126086983
 H    0.5088451495   -4.2337550925   -2.8874695942
 H   -0.1896734462   -4.3726175890   -0.5009106278
 H   -1.9500013558   -4.1672931880   -0.9762026250