20

 C   -0.0499160231    1.5581577070    0.1231920855
 C    0.0591463278    0.0387941623   -0.0391965053
 C    0.7260387619   -0.4546525780   -1.3409817621
 C    0.0092207045    0.0164447386   -2.6094733949
 N    2.1607795599   -0.1338436389   -1.3773636760
 C    2.8874450628   -1.2751785256   -1.2099580911
 C    2.1371905075   -2.4099496830   -1.2106429788
 C    0.7434090005   -2.0162397456   -1.3067722524
 O   -0.2698162642   -2.6872450546   -1.3541427975
 H    0.9305384158    2.0492906035    0.1002086856
 H   -0.6676518658    2.0120443909   -0.6567951141
 H   -0.5055755170    1.8031233363    1.0873288581
 H    0.6170229407   -0.3811973799    0.8067720121
 H   -0.9363875887   -0.4172891669   -0.0071876657
 H   -0.0406549760    1.1071337878   -2.6733248229
 H    0.5301893475   -0.3514846165   -3.4975420462
 H   -1.0059251945   -0.3899715445   -2.6149021723
 H    2.5030158785    0.7513957484   -1.0404462262
 H    3.9650824826   -1.2011051302   -1.1178167677
 H    2.5009703692   -3.4239668911   -1.1616447783