21

 C    0.0031603750    1.4584146764   -0.0372929068
 N    0.0560979243    0.0084060525   -0.0894759395
 C   -1.1695039736   -0.6840411668   -0.0064296197
 C   -1.3013803537   -2.0594898620    0.0310711035
 C   -0.2640520267   -3.1303725657    0.0233867094
 N   -2.6587870211   -2.3266234302    0.0816245545
 C   -3.3867221892   -1.1657587996    0.0554310873
 C   -4.8794116047   -1.1612674232    0.0794541843
 C   -2.4836937049   -0.1240056138    0.0064900781
 H    1.0209329182    1.8554518407   -0.0857571208
 H   -0.5443370024    1.8393943670   -0.9060261958
 H   -0.4836316110    1.8621532472    0.8670761739
 H    0.7380945582   -0.3559823213    0.5618529647
 H   -0.0301221434   -3.5258970697    1.0226007956
 H   -0.5649259752   -3.9836233775   -0.5972702932
 H    0.6658336270   -2.7369915518   -0.3991171605
 H   -3.0531830346   -3.2508386535    0.1081975869
 H   -5.2844941234   -1.6370913196    0.9821547701
 H   -5.2470572019   -0.1326500690    0.0588749704
 H   -5.3135632882   -1.6826580534   -0.7838694185
 H   -2.7436844388    0.9227648234   -0.0185132338