25

 C    0.0701844525    1.5984140100   -0.0638098829
 C    0.0075012736    0.0702662169   -0.0291246404
 O    0.6938259995   -0.4889357324   -1.1490891652
 C    0.6530782952   -0.5290804584    1.2180627801
 C   -0.0360803024   -0.1200829000    2.5503943299
 C    0.0201003278   -1.3723492733    3.4684389370
 C    0.9061912634   -2.4006577028    2.7304738711
 C    0.6413388958   -3.8536162233    3.1188627005
 C    0.6564831345   -2.0675272494    1.2513335517
 H    1.1113577160    1.9364012257   -0.0389651625
 H   -0.3909505687    1.9849521623   -0.9806813498
 H   -0.4618228863    2.0422082038    0.7830815636
 H   -1.0520992733   -0.2433928588   -0.0472926984
 H    0.3292633742   -0.0941284037   -1.9473754579
 H    1.6970475147   -0.1879453888    1.2359324191
 H    0.4568527965    0.7441852862    3.0042282995
 H   -1.0760481861    0.1764257453    2.3717370148
 H    0.3945292171   -1.1442656598    4.4708669250
 H   -0.9854471972   -1.7905505750    3.5983838524
 H    1.9582909994   -2.1683834615    2.9510926209
 H   -0.3975706167   -4.1316726957    2.9041792277
 H    1.2907128739   -4.5406694340    2.5656851486
 H    0.8153935533   -4.0208600492    4.1875683509
 H   -0.3296890666   -2.4500830166    0.9490037826
 H    1.3934982700   -2.5025563273    0.5727012417