24

 C   -0.0780285492    1.5978461135    0.0845483060
 C    0.0194122728    0.0657680175    0.0251810354
 C    0.8280210812   -0.4666874650    1.2170156731
 C   -1.3929101836   -0.5554939718   -0.0673407191
 O   -2.1044774413   -0.0257359465   -1.1894311833
 C   -1.4520493045   -2.1018680026   -0.0553695977
 C   -2.9117371961   -2.5728810998    0.0120568374
 C   -0.7290513449   -2.7380666225   -1.2523980584
 H    0.9150466700    2.0557543199    0.0331540350
 H   -0.6856157236    1.9849159108   -0.7357818538
 H   -0.5440451889    1.9192107847    1.0240322063
 H    0.5589414531   -0.2005591127   -0.8968177123
 H    0.2848609820   -0.3155717367    2.1577727451
 H    1.0545775568   -1.5325461987    1.1284608897
 H    1.7804744917    0.0666793469    1.3002986365
 H   -1.9666119802   -0.2010847856    0.8005720774
 H   -1.5877752418   -0.2164940365   -1.9796765783
 H   -0.9504995151   -2.4364862629    0.8608507420
 H   -3.4711937897   -2.2139292625   -0.8563545808
 H   -2.9716694404   -3.6658179513    0.0356710025
 H   -3.4100595147   -2.1897951982    0.9091187046
 H   -1.1869042025   -2.4336636569   -2.2012800626
 H    0.3326575591   -2.4747302430   -1.2883843640
 H   -0.7955158704   -3.8294094100   -1.2049272908