16

 C   -0.0542538291    1.5566796053   -0.0041123369
 C    0.0428858693    0.0377441502    0.0288267500
 O    0.7847325273   -0.4357491639   -1.1136938958
 C    1.8415662170   -1.2286420697   -0.7806298985
 O    2.5613219919   -1.7098492575   -1.6036920970
 C    1.9205712490   -1.3725929155    0.7342596393
 C    0.7926176425   -0.5225216286    1.2247460327
 N    0.4399507896   -0.2447693660    2.4119995287
 O    1.2719876165   -0.8724336003    3.3461015796
 H    0.9416249576    2.0071393807    0.0294148089
 H   -0.5587467886    1.8848212363   -0.9162563483
 H   -0.6222085322    1.9011998566    0.8637169201
 H   -0.9595184930   -0.4027078666   -0.0355658980
 H    1.8166250420   -2.4239749216    1.0229823773
 H    2.8965939523   -1.0451843619    1.1051130644
 H    0.9024662676   -0.5793565476    4.1865091534