18

 C   -0.0387313781    1.4013744905    0.4726712563
 C   -0.1472237622   -0.0303906237    0.0631050193
 C    0.7088550856   -0.8918618580   -0.9000891673
 C   -0.2529579758   -1.8285952856   -0.1379802252
 O    0.0565120063   -1.0844335324    1.1048752500
 C   -1.3970639368   -0.8255270272   -0.4294912418
 O   -2.5705472123   -0.7536193468    0.3309785899
 C   -2.7459882323   -1.5310450124    1.4260836143
 N   -3.6920887101   -1.2644096452    2.2167674327
 H    0.9379009647    1.6001498816    0.9233538921
 H   -0.1601166261    2.0525459399   -0.3985167605
 H   -0.8191132468    1.6449007178    1.1991904874
 H    0.5797090836   -0.7632266863   -1.9777301796
 H    1.7509438524   -0.9955575636   -0.6001775411
 H   -0.2559166331   -2.9169746264   -0.0911304449
 H   -1.6836345554   -0.6885914292   -1.4749446333
 H   -2.0454000041   -2.3647604060    1.5010412499
 H   -3.7239512594   -1.9613312368    2.9582176418