19

 C    0.0230159205    1.4722686367   -0.4513569808
 C   -0.0166494046    0.0051963700   -0.0738598724
 C    1.1791331391   -0.8345034324   -0.3031940924
 O    0.8506328450   -0.3676283127    1.0049357495
 C   -1.3534835923   -0.6425540405   -0.0467218907
 C   -1.8358729017   -1.4602620659    0.8850208028
 C   -3.2218600056   -1.8988022415    0.5166237687
 O   -3.4972322181   -1.2646190110   -0.7320122161
 C   -2.3949396583   -0.4570413978   -1.1252656592
 H    1.0479277801    1.8468019445   -0.4006518838
 H   -0.3547189372    1.6275970944   -1.4674073463
 H   -0.5945183736    2.0627816117    0.2329946612
 H    1.0560959779   -1.9044679712   -0.4611441394
 H    2.0695497554   -0.3910260073   -0.7486878562
 H   -1.3191662380   -1.7671475695    1.7842170384
 H   -3.3047459910   -2.9915188730    0.4033718907
 H   -3.9721070814   -1.5958609773    1.2647629360
 H   -2.7143537502    0.5931668613   -1.2232754956
 H   -2.0323632058   -0.7752819884   -2.1165212344