19

 C   -0.0703106443    1.5894423679    0.1240615386
 C    1.4546769011    1.3552916762    0.0384121925
 O    1.2565404674    0.1004260418    0.7772370203
 C   -0.0059842195    0.0549842373    0.0334899492
 C    0.5185393965   -0.2106052915   -1.3954149513
 O   -0.3762897047    0.2019024820   -2.4140619642
 C    0.3768109267    0.9161160021   -3.3888580754
 C    1.4322893314    1.7173656372   -2.6016348204
 C    1.7048521133    0.8108444925   -1.3857237552
 H   -0.3659007883    1.9189981224    1.1200005229
 H   -0.5887637295    2.1462225081   -0.6571937956
 H    2.1903786655    2.0242526304    0.4851022574
 H   -0.7564389879   -0.6120135304    0.4556134027
 H    0.8259110029   -1.2534538828   -1.5358916024
 H    0.8659965815    0.2159212463   -4.0851150706
 H   -0.3188276722    1.5361137598   -3.9611333689
 H    2.3289456354    1.9106204964   -3.1953642748
 H    1.0244593222    2.6850295865   -2.2935946714
 H    2.6802696323    0.3249231779   -1.4337762032