17

 C   -0.2865528883    1.3359540297    0.0705849357
 C    0.1181157839   -0.1394308944   -0.1180216475
 C    0.9198814871   -0.2949347724   -1.3396827855
 N    1.5607427754   -0.3934770641   -2.2964222211
 C    0.8824108440   -0.6875118829    1.0814378638
 C    0.1250549807   -1.0735270333    2.3371476447
 C    0.7547557078   -2.1324512063    1.4646548469
 O   -0.0672234474   -2.9159250246    0.6506735373
 H    0.5962246266    1.9682422741    0.2011303194
 H   -0.8440977291    1.7029200975   -0.7947011363
 H   -0.9142604698    1.4325842941    0.9602235136
 H   -0.7815054158   -0.7491604931   -0.2518549896
 H    1.8615133612   -0.2397070845    1.2229719543
 H    0.5616572841   -0.8468663347    3.3034473907
 H   -0.9578835772   -1.0055443306    2.2992442828
 H    1.6502665397   -2.6333554884    1.8301683922
 H   -0.5137644028   -3.5621079961    1.2072705385