16

 C    0.0725249428    1.5435390025    0.0698308789
 N   -0.1265872544    0.0986868376   -0.0484500956
 C    0.5994090269   -0.4996092650   -1.1536864461
 C    2.1287758600   -0.6293328956   -0.9254139445
 O    2.6507680304   -0.3845182477    0.1275824262
 C    0.1178292243   -1.8412715915   -1.4807865977
 C   -0.2145885567   -2.9762332149   -1.7388142463
 C   -0.6065516924   -4.2460391657   -2.0289324480
 C   -0.9518341029   -5.3734949412   -2.2884520648
 H    1.1226148975    1.8535049688    0.1743619173
 H   -0.3494902996    2.0390017927   -0.8118954196
 H   -0.4786557654    1.9015846227    0.9432188393
 H    0.1694608848   -0.3564500707    0.8095223852
 H    0.4685543104    0.1396567683   -2.0412784873
 H    2.7040569273   -0.9923565236   -1.8044770234
 H   -1.2583048030   -6.3648022066   -2.5142700635