20

 C   -0.0131835663    1.5387455606    0.1281490600
 C    0.0122961635    0.0530435502    0.0126995470
 C    0.0028903430   -0.7479898504   -1.1120327873
 N   -0.0341089340   -0.2336563568   -2.4461768842
 C    0.0346120313   -2.1187926974   -0.6889940108
 C    0.0351490315   -3.3255669699   -1.5740358157
 C    0.0636470978   -2.1047754086    0.6899245933
 N    0.1003195031   -3.1156474569    1.6832864416
 N    0.0534313749   -0.7883169162    1.0963114577
 H    0.9040437970    1.9420931460    0.5768141327
 H   -0.1132605052    1.9606537381   -0.8741522707
 H   -0.8553265526    1.8938129507    0.7357190695
 H    0.8353370938   -0.4256293065   -2.9368794900
 H   -0.7659078619   -0.6852923349   -2.9873385606
 H    0.8793307373   -3.3228648976   -2.2753153436
 H    0.1031377032   -4.2443425041   -0.9828253224
 H   -0.8765027287   -3.3972997161   -2.1817511887
 H    0.9212307115   -3.7056266531    1.5941754966
 H   -0.7108540474   -3.7236706997    1.6362966384
 H    0.0692534281   -0.5171598074    2.0645928873