21

 C   -0.2109160984    1.5732546814    0.1044909208
 C   -0.0320704883    0.0765073070    0.0022775283
 O   -1.1512866627   -0.6574412168    0.4485131801
 C    0.6369017824   -0.5915657174   -1.1706451572
 C    1.2929289158    0.2033223769   -2.2964516020
 C    2.7424808887    0.5581334901   -1.9502972999
 O    2.8407979094    1.1238677660   -0.6519267308
 C    2.6096397503    0.1611594530    0.3670992585
 C    1.3057625189   -0.5990034980    0.2033892985
 H    0.6660461562    2.1114532107   -0.2574353820
 H   -1.0911209467    1.8893433247   -0.4653842009
 H   -0.3703136689    1.8651218258    1.1505195202
 H   -1.2497502343   -0.4937238967    1.3933165021
 H    0.1583424357   -1.5204524110   -1.4608054736
 H    1.2800435089   -0.3841323829   -3.2204393321
 H    0.7340302218    1.1228084470   -2.5036977512
 H    3.3784570488   -0.3407247863   -2.0123691076
 H    3.1442542254    1.3047130465   -2.6414329807
 H    3.4418949427   -0.5638067660    0.3779893287
 H    2.6417770603    0.7153839013    1.3117085119
 H    1.2645526139   -1.5381607750    0.7475903489