18

 C   -0.0014157079    1.4962094493   -0.0127036017
 C    0.0143093755    0.0415584160   -0.0089328507
 C    0.0303164933   -1.1655328206   -0.0056823448
 C    0.0256959570   -2.5810671771   -0.0026904491
 C    1.1339096533   -3.4083384516    0.0407656091
 N    0.6916704069   -4.7034199308    0.0268867688
 C   -0.6855184844   -4.7434039099   -0.0248121638
 C   -1.4368088136   -6.0330743759   -0.0499367248
 C   -1.1223923040   -3.4416528835   -0.0440022184
 H    1.0149717672    1.9043761719   -0.0535785993
 H   -0.5477093833    1.8911966146   -0.8774562009
 H   -0.4795401746    1.8978179958    0.8887175203
 H    2.1834532503   -3.1675856308    0.0796262107
 H    1.2873976969   -5.5129238888    0.0509836679
 H   -1.2491589090   -6.6403787701    0.8446034357
 H   -2.5100493514   -5.8353835627   -0.0940484172
 H   -1.1778319628   -6.6473546063   -0.9215947763
 H   -2.1511034594   -3.1184278394   -0.0833919654