21

 C   -0.0906986565    1.3214736562   -0.1912483664
 O   -0.0418664532   -0.0721807948    0.0549721498
 C   -1.2920116232   -0.6843568696    0.0419503200
 O   -1.8999295908   -0.6674022657   -1.2619435902
 C   -1.9794556976   -2.0814892675   -1.5844039228
 C   -2.5743360291   -2.2771013791   -2.9494364426
 C   -2.5501205771   -2.6675091867   -0.2615235030
 C   -1.1625699740   -2.1927986760    0.2653135826
 C   -0.5956194705   -2.6143680294   -1.1252228860
 H    0.9320741846    1.6964593972   -0.1138066756
 H   -0.4838149335    1.5364932357   -1.1917800047
 H   -0.7172914073    1.8373027462    0.5525187665
 H   -1.9671700513   -0.1724146667    0.7462424400
 H   -1.9519823591   -1.7974077443   -3.7112455158
 H   -2.6520097119   -3.3423824232   -3.1847557258
 H   -3.5745186224   -1.8355939222   -2.9997966374
 H   -3.4519083194   -2.1967181213    0.1392929280
 H   -2.6468422459   -3.7550707277   -0.2692827638
 H   -0.7347958867   -2.5178898304    1.2115749909
 H   -0.5021425012   -3.6971781197   -1.2261737302
 H    0.2906340661   -2.0974617210   -1.4940661435