19

 C    0.1047104046    1.4528849173    0.1782397125
 C   -0.1481255072    0.0018048500   -0.2231750897
 C    0.7479031125   -0.4594147351   -1.3523656923
 O    1.5610785947    0.2154990291   -1.9324599467
 O    0.5241704840   -1.7625345680   -1.6463862193
 C    1.2934696668   -2.2808909627   -2.7294902386
 C    2.7653463747   -2.6257572716   -2.4451454247
 O    2.5343186902   -4.0117309709   -2.7843431519
 C    1.1140060141   -3.7932511311   -2.9105058322
 H    1.1358769395    1.5929831537    0.5121443266
 H   -0.0593698879    2.1266146486   -0.6662987062
 H   -0.5650324031    1.7461067140    0.9911236375
 H   -0.0000433925   -0.6831787259    0.6199302402
 H   -1.1862554691   -0.1522195703   -0.5416550604
 H    1.1355951464   -1.6669972790   -3.6169642256
 H    3.5117570925   -2.1556895660   -3.0924783905
 H    3.0535158665   -2.4956810424   -1.3947026391
 H    0.5428605478   -4.2603907653   -2.0984356436
 H    0.7257205055   -4.1331386244   -3.8767033559