19

 C   -0.0135308377    1.5298989704    0.0748814259
 C    0.0299191899    0.0329056751   -0.0724129184
 C    0.9656362360   -0.6853707945   -1.0832030409
 C    0.8854965204   -1.7481820813    0.0364135017
 O    0.7803974904   -0.6495422126    0.9827422579
 C   -0.5443306068   -2.4495480706    0.0388357817
 C   -1.4322566001   -1.8598856286   -1.0832194059
 C   -1.4023569367   -0.6853286548   -0.0744145632
 O   -1.3467560389   -1.6840074617    0.9825529874
 H    0.9966639971    1.9461635887    0.1136621519
 H   -0.5461621318    1.9821676906   -0.7689627820
 H   -0.5386625885    1.8065830367    0.9954055287
 H    0.6536394436   -0.8972873318   -2.1045433150
 H    1.9483036054   -0.2092823943   -1.0856113178
 H    1.7186666221   -2.4202080106    0.2475113379
 H   -0.5251228871   -3.5188748709    0.2555206232
 H   -1.0713778348   -1.7518095044   -2.1044513721
 H   -2.4139408652   -2.3361675704   -1.0810013164
 H   -2.2419002070    0.0053909750    0.0294068853