13

 C    0.0233093333   -1.2563769758    0.2932380395
 C   -0.0037843450   -0.0587868395    0.2067805092
 C   -0.0835776549    1.3768510778    0.0951730895
 C   -1.3574143490    1.9251611288   -0.5484150340
 C   -1.5563008921    1.4494032878   -1.9173855808
 N   -1.7239669477    1.0800044154   -2.9985049897
 C    0.6521114498    2.2336949246    1.0480902931
 O    1.1181401022    2.0566102531   -0.2859786662
 H    0.0599694466   -2.3162934722    0.3590116503
 H   -2.2254355371    1.6351477056    0.0539813402
 H   -1.3057220337    3.0180869695   -0.5580771318
 H    0.2603308448    3.2222585407    1.2853020518
 H    1.2519035129    1.7627504042    1.8235126290