16

 C    0.1740663358    1.5158676188   -0.1607722880
 C    0.0412139407    0.0314525524   -0.0857261941
 C   -0.0815192882   -0.9486216513   -1.0533584583
 C   -0.0825517797   -0.8055160175   -2.5474328717
 C    1.3019133241   -0.3837941508   -3.0119291793
 O    1.5834158653    0.7314830215   -3.3717817161
 N   -0.1819558121   -2.1642287173   -0.4388021423
 N   -0.1390475285   -2.0015705627    0.8500906419
 N   -0.0057054581   -0.6778937140    1.0688269474
 H    0.9536115329    1.8842297658    0.5141916565
 H    0.4430445262    1.8150115004   -1.1757895288
 H   -0.7623565871    2.0195462464    0.1059815798
 H   -0.3360102854   -1.7789038596   -2.9789786807
 H   -0.8050166041   -0.0578817616   -2.8868956912
 H    2.0728145409   -1.1832149056   -2.9522374805
 H    0.0481415772   -0.3405035050    2.0173672654