18

 C    0.2457441032    1.2172376869   -0.3186518729
 C    0.4047564655   -0.2850430655   -0.0279023695
 C    0.9944442074   -0.5723157139    1.3210880197
 C    2.2920308646   -0.7013413983    1.7873510266
 N    2.1594141860   -0.9020113875    3.1203176169
 N    0.8592252750   -0.8995884509    3.4908011644
 N    0.1701674418   -0.7035051318    2.4097757686
 O    3.5401878535   -0.6628757666    1.2902135311
 C    3.6855493728   -0.7161088194   -0.1240476184
 H    1.2149484620    1.7280572315   -0.3333223645
 H   -0.2362823291    1.3783508274   -1.2882542175
 H   -0.3668990416    1.6922477102    0.4528010329
 H   -0.5817325063   -0.7593451564   -0.0501533713
 H    0.9919190364   -0.7558924105   -0.8218203095
 H    2.8912750966   -1.0508403507    3.7964526648
 H    3.2306205200    0.1563282650   -0.6051891207
 H    4.7595245510   -0.7141138527   -0.3139058965
 H    3.2438682814   -1.6323639870   -0.5308748543