16

 C   -0.0053704466    1.4154390221    0.0228948382
 C    1.4395570640    1.9616282192   -0.0079538947
 C    2.1443383440    1.1952795707   -1.0683984143
 C    1.7002622308    0.0431150797   -1.6338204183
 C    0.4099882164   -0.5849985326   -1.1976115600
 O   -0.0355675672   -0.0020917661    0.0207107706
 C    2.7107953554   -0.2571866113   -2.5858077527
 N    3.6744094021    0.6335096898   -2.5816983104
 O    3.3129651296    1.5698177180   -1.6068233059
 H   -0.5171467729    1.7276952272    0.9362322432
 H   -0.5649926886    1.8143718331   -0.8381441372
 H    1.4395427859    3.0365240154   -0.2191512127
 H    1.9254789613    1.8180312590    0.9645716138
 H   -0.3635058232   -0.4777917701   -1.9772311270
 H    0.5226051748   -1.6545780087   -0.9935577927
 H    2.7790424743   -1.0889430853   -3.2735145099