21

 O   -0.1276590947    1.4470164413   -0.0767509735
 C    0.0211448875    0.0509663061   -0.0008519244
 C    0.2707592782   -0.6391730760    1.3915650107
 C   -0.7713208242   -1.7300275617    0.9849446929
 C   -1.9119442207   -2.1930671079    1.8876081284
 C   -3.0991384798   -2.5870540330    0.9840159137
 C   -3.6197094728   -1.4086531394    0.1301222148
 C   -2.5204579091   -0.5096332874   -0.3861027325
 C   -1.2580415064   -0.7430388569   -0.0569677720
 H    0.7460811321    1.8415455248   -0.1574660376
 H    0.7586522614   -0.3103481367   -0.7353331721
 H    1.2889152439   -0.9603619426    1.6266902704
 H   -0.1131802626    0.0024062098    2.1892217013
 H   -0.2628206787   -2.5948203883    0.5391600274
 H   -1.6199115989   -3.0345296349    2.5256903309
 H   -2.2099080522   -1.3708586724    2.5508843344
 H   -2.7734493263   -3.3979618648    0.3197805802
 H   -3.9207253979   -2.9913834287    1.5848130363
 H   -4.2254959341   -1.7950872763   -0.7004888524
 H   -4.3110864309   -0.7950119115    0.7270581543
 H   -2.8007825742    0.3711788365   -0.9580771513