19

 C   -0.2217080363    1.2701034328    0.0562209009
 O    0.2135219190   -0.0576586555   -0.1379346444
 C    0.7723036612   -0.6276225080    1.0053377620
 C   -0.1620614832   -1.1015878078    2.1889236334
 C    0.4396823803   -2.5024573057    2.0027276621
 C    0.6506948105   -3.5958560372    3.0000694436
 O   -0.5773527483   -4.1696454805    3.4194436514
 O    0.0829209509   -2.8994654392    0.6659528942
 C    1.2382401179   -2.0734987431    0.8349524097
 H    0.6069561840    1.9293011800    0.3602398086
 H   -0.6223044679    1.6222758296   -0.8969312151
 H   -1.0117769525    1.3361968248    0.8189750858
 H    1.5902566228   -0.0036777850    1.4006966795
 H    0.0707473243   -0.6246217567    3.1432705417
 H   -1.2341408849   -1.0517828349    1.9910793181
 H    1.3268018272   -4.3479829330    2.5665528365
 H    1.1225739067   -3.1961993744    3.9037815833
 H   -1.0121773997   -4.5088363973    2.6289885757
 H    2.1741681979   -2.4416229090    0.4294432932