15

 N    0.1153873792    1.2430432446    0.0522102364
 C   -0.3441149821   -0.0051765145    0.4076897305
 O   -0.5600081651   -0.3241844112    1.5611922491
 N   -0.4892170411   -0.8592159124   -0.6792314796
 C   -0.9087875136   -2.1904650836   -0.7057579024
 N   -0.8654624062   -2.7733356353   -1.8329655710
 C   -1.3819027672   -2.7828386607    0.6202071443
 C   -1.8318535913   -4.1614637877    0.4625789092
 N   -2.1851321211   -5.2531954874    0.3292555483
 H    0.0721793402    1.9205360739    0.7967278980
 H   -0.0461749265    1.6016228270   -0.8751676604
 H   -0.1761762564   -0.5519765141   -1.5896602642
 H   -1.1968862333   -3.7343981416   -1.7717044334
 H   -0.5797211034   -2.7285422132    1.3609600312
 H   -2.1874224521   -2.1722620140    1.0384366741