18

 O   -0.0839228774    1.4299385798   -0.1049090759
 C   -0.0269559173    0.0247768740    0.1298593761
 C   -1.4563236980   -0.4978460453   -0.0055858144
 O   -1.9796087191   -0.1102180674   -1.2644031402
 C   -1.5113225350   -2.0371384418    0.1509252840
 C   -2.2925672121   -2.2558936417    1.4634901317
 O   -2.2143151082   -1.0220186401    2.1690936396
 C   -2.3355026683   -0.0173716294    1.1788055777
 H    0.8108551804    1.7677757786   -0.1966086549
 H    0.6132993000   -0.4723333860   -0.6128398826
 H    0.3540450351   -0.2028532795    1.1358846456
 H   -1.6808766220    0.7980796005   -1.4033403098
 H   -2.0118656367   -2.4697103859   -0.7172067327
 H   -0.5059500183   -2.4652304680    0.2082037678
 H   -3.3439509955   -2.5062189251    1.2516282089
 H   -1.8761569770   -3.0370880645    2.1040221223
 H   -2.0127959129    0.9337272126    1.6074050170
 H   -3.3725132278    0.0773870593    0.8196426898