21

 C   -0.0494644430    1.5322301298    0.0841237389
 C   -0.0254184020    0.0093318573   -0.0079611177
 C   -1.3857211735   -0.5640104624   -0.4063475730
 C    1.1514916874   -0.6165674311   -0.8612549388
 C    1.6527817542   -1.3094121292    0.4073999893
 O    1.9414452454   -0.2638655980    1.3611825892
 C    0.5807016633   -0.7214591723    1.2225504873
 C   -0.0608290079   -1.1937469604    2.4963465147
 O    0.8498544160   -1.9354620120    3.2791347911
 H    0.9160316517    1.9119092226    0.4270281271
 H   -0.2657484691    1.9755783530   -0.8943340459
 H   -0.8228642048    1.8764961446    0.7804996602
 H   -1.6786906317   -0.2022916833   -1.3978857590
 H   -1.3681862918   -1.6588177456   -0.4421007301
 H   -2.1672358718   -0.2629354509    0.3005266928
 H    0.7908611460   -1.3099120030   -1.6252317415
 H    1.8575912637    0.0874911219   -1.3084460726
 H    2.1985035428   -2.2381818080    0.5236634884
 H   -0.4551496751   -0.3219295897    3.0474588420
 H   -0.9116488304   -1.8467923906    2.2738546427
 H    1.6833266408   -1.4483880929    3.2350607149