22

 C    0.2839105122    1.1965158419    0.2754169048
 O   -0.3404289639    0.0608353423   -0.2891210994
 C    0.4296182879   -0.5439059674   -1.2819709761
 C    1.4076716966   -1.6467701469   -0.9086902348
 C    1.6476610177   -2.0285569781    0.5367726636
 C    0.1046236038   -1.9685839492   -1.6385641780
 C   -1.0238361760   -2.6686191028   -0.9040697412
 C    0.2162645575   -2.3544556451   -3.1026640633
 H    1.2376596849    0.9429716372    0.7588556742
 H    0.4765418078    1.9684569943   -0.4853220304
 H   -0.4008261826    1.6025310360    1.0240199246
 H    0.7069622227    0.1365683371   -2.0905262492
 H    2.2973991337   -1.7022674457   -1.5327599910
 H    0.8066647599   -1.7437052210    1.1726644136
 H    1.8031615813   -3.1076943590    0.6460738824
 H    2.5412734095   -1.5281217895    0.9258802304
 H   -1.1617836681   -2.2837653711    0.1064344179
 H   -1.9693930274   -2.5253941106   -1.4396107827
 H   -0.8394384876   -3.7476501925   -0.8442575431
 H    0.4240544670   -3.4259633342   -3.2101118282
 H   -0.7155845745   -2.1408866981   -3.6398517755
 H    1.0229281474   -1.8098812876   -3.6039129186