17

 C   -0.0830786111    1.5529072640    0.1988020559
 C    0.0003453804    0.0445165032   -0.0015726148
 C    0.7871251624   -0.6461854092    1.1151537797
 O   -1.3461651433   -0.4236185190   -0.0728475728
 C   -1.5123682965   -1.7218550005   -0.5759296578
 C   -2.9908088184   -1.9304594885   -0.8608697410
 O   -3.4648605124   -2.9838692323   -1.1931967888
 H    0.9172183665    1.9949342390    0.2154815252
 H   -0.6568453079    2.0146979052   -0.6087860485
 H   -0.5789620176    1.7829698000    1.1470657031
 H    0.4917709737   -0.1656851200   -0.9671770896
 H    0.3025810323   -0.4743316615    2.0817040432
 H    0.8629553807   -1.7256089593    0.9548279101
 H    1.8052962714   -0.2478605539    1.1630215065
 H   -0.9572217784   -1.8708215355   -1.5193251059
 H   -1.1774568769   -2.5065776085    0.1196815326
 H   -3.5992935849   -1.0070250132   -0.7405315773