17

 O    0.4223697792    0.9071082387   -0.6898842847
 C    0.1006739260   -0.2500574402    0.0387740821
 C    0.0410785432   -0.1968529095    1.5936465190
 C   -1.2337652934   -1.0908724000    1.5454986955
 C   -1.3504169593   -0.7624393837    0.0515256535
 C   -2.4915661347   -0.0377801804   -0.6068158977
 C   -2.1218934323   -1.4416028547   -1.0336567035
 H   -0.1733933693    1.6069569848   -0.4002221694
 H    0.7978005214   -1.0184056250   -0.3122443716
 H    0.9078280823   -0.5659070442    2.1459465887
 H   -0.1882078144    0.8171652736    1.9372502379
 H   -1.0102537200   -2.1465646787    1.7277748677
 H   -2.0684820410   -0.7972476145    2.1869438441
 H   -3.4068969206    0.1062841150   -0.0413586668
 H   -2.2505539874    0.7701447247   -1.2914444509
 H   -1.6414473763   -1.5660448861   -1.9993724875
 H   -2.7893728234   -2.2519982399   -0.7575627362