18

 C    0.0854711946    1.0058991520   -0.4415446106
 O    0.0618170316   -0.3530380177   -0.0275129565
 C    0.6276712598   -0.5838889134    1.2554298745
 C    0.2816619059   -2.0408100959    1.6101753337
 O   -0.9965969835   -2.4445141009    1.2091915260
 C    1.4397726460   -2.7938539285    0.9214327762
 O    2.5669252258   -1.9028063804    1.0016555867
 C    2.1449836432   -0.6180232769    1.1799541818
 N    2.8991721636    0.3933496664    1.2501303080
 H    1.1091926912    1.3928669735   -0.4776156516
 H   -0.3594187815    1.0369285014   -1.4383087688
 H   -0.5066824747    1.6328735057    0.2401903093
 H    0.2728500949    0.1588718448    1.9778808920
 H    0.3536951195   -2.1744116373    2.6948031214
 H   -1.1879473531   -1.9387052346    0.4065674696
 H    1.7134484693   -3.7300343548    1.4109379882
 H    1.1940804536   -2.9887864779   -0.1283788935
 H    3.8774894438    0.1205636346    1.1291291836