19

 C    0.1787403293    1.6242339033    0.1222270175
 C    0.0098787489    0.1039422645    0.0504706920
 C    0.5422339375   -0.5272193146   -1.2467756094
 C    0.5980125586   -2.0697194684   -1.2418410124
 C    0.0958326991   -2.5081536439   -2.6059848653
 N    0.1733372579   -3.6899669252   -3.0585391076
 N   -0.4578449920   -1.3730596002   -3.1985194167
 C   -0.2998761035   -0.1933130408   -2.4851340437
 O   -0.7474716221    0.8755594344   -2.8260014214
 H    1.2377798447    1.9020142697    0.0718025862
 H   -0.3368570329    2.1124364968   -0.7066854295
 H   -0.2219168178    2.0130190081    1.0633340623
 H    0.5358921382   -0.3666846322    0.8903297279
 H   -1.0486600456   -0.1626267009    0.1659235339
 H    1.5420406086   -0.1193392769   -1.4478420843
 H    1.5909835811   -2.4788822150   -1.0503473584
 H   -0.0731164655   -2.4815034169   -0.4796828072
 H   -0.2395999000   -3.7710087744   -3.9895291374
 H   -0.9360963747   -1.3792724974   -4.0880234565