14

 N   -0.0427580327    1.3389635243    0.0104791518
 C   -0.0503816518   -0.0028755906    0.0032507428
 N   -1.1604095170   -0.6615209137    0.0087915602
 C   -1.0872613190   -2.0394034782    0.0011505840
 N    0.1064012227   -2.6722768756   -0.0091193349
 C    0.0466480495   -3.9950378275   -0.0152607777
 N   -1.0616749821   -4.7399510465   -0.0121220347
 C   -2.1802870151   -4.0087672200   -0.0016641087
 N   -2.2674527727   -2.6848612344    0.0053079779
 H    0.8159154607    1.8583994059    0.0059693623
 H   -0.9195596759    1.8359025497    0.0204293790
 H    0.9326648155   -0.4798024937   -0.0074539714
 H    0.9960559338   -4.5286815431   -0.0237059199
 H   -3.1207443560   -4.5573306666    0.0014261192