18

 C   -0.0702434139    1.4005160860   -0.1224753740
 N    0.0128238409   -0.0276848963    0.1503376985
 C   -1.2151189329   -0.7760854836    0.0799269352
 C   -1.4282434095   -1.8223275142   -0.9968390549
 C   -1.1483904551   -2.2244601898    0.4341211646
 C    0.2292643314   -2.6889348769    0.8344349333
 O    1.2630061144   -1.9899901377    0.1353856682
 C    1.2466706910   -0.6264824241    0.0463632639
 O    2.2791283299   -0.0323454314   -0.1472586995
 H    0.9058720565    1.8436055044    0.0648736967
 H   -0.3545765112    1.5998323385   -1.1641687314
 H   -0.8160705978    1.8567864922    0.5364337604
 H   -2.0665454355   -0.1880673689    0.4043915081
 H   -2.4317589860   -1.9693774104   -1.3799326575
 H   -0.6343420671   -1.9555417697   -1.7234584354
 H   -1.9588229755   -2.6507809331    1.0170591476
 H    0.3667415888   -2.5500940047    1.9157707722
 H    0.3958891415   -3.7449992602    0.6041882441