22

 C   -0.1050459573    1.5003326790    0.1853956894
 C   -0.2877783420    0.0120973469    0.4886188513
 C   -1.3110308333   -0.6622355088   -0.4305161377
 C   -1.3593753723   -2.1763684680   -0.2293484008
 O   -0.3779870829   -2.8340440413    0.0618364101
 N   -2.5953910870   -2.7420399161   -0.4101983548
 C   -2.7894946547   -4.1611516726   -0.4175639127
 C   -2.8397898094   -4.8967968788    0.8933512578
 C   -4.1019076758   -4.6929816248    0.0925989575
 H    0.6307678014    1.9523217796    0.8576237602
 H    0.2435369112    1.6564017449   -0.8419148355
 H   -1.0440213243    2.0537593846    0.3018671982
 H    0.6610236922   -0.5227444743    0.3879364735
 H   -0.6001520716   -0.1197485290    1.5317546781
 H   -2.3069238937   -0.2216863389   -0.2962352582
 H   -1.0334936462   -0.4842954952   -1.4792370080
 H   -3.3350463704   -2.1636869813   -0.7763361355
 H   -2.3253120507   -4.6836113749   -1.2506578508
 H   -2.3988559782   -5.8857982278    0.9323027494
 H   -2.7115448366   -4.3058645195    1.7917845209
 H   -4.8216182133   -3.9724012817    0.4666884648
 H   -4.5411755050   -5.5397900620   -0.4220469569