16

 C   -0.1746624446    1.6036378952    0.0253511390
 C    0.0687543185    0.1047807369    0.0257640152
 N    0.6908839335   -0.5237336511   -1.2145397241
 C    2.0685098807   -0.0304536374   -1.2976678662
 C    1.7889445421   -1.1180818255   -0.3242234735
 C    1.1436998374   -0.5506125538    0.8826360676
 N    1.3401263740   -0.7782546273    2.1126900226
 O    0.4028998487   -0.0767051992    2.8998374469
 H    0.7434168346    2.1821363713   -0.1046248165
 H   -0.8665929496    1.8699155483   -0.7800604570
 H   -0.6195654624    1.8973730635    0.9797368032
 H   -0.8785298056   -0.4169146886    0.2025085942
 H    2.5629241198   -0.3182287415   -2.2207724166
 H    2.3214563583    0.9637545473   -0.9411395857
 H    2.1590909181   -2.1295821708   -0.4428891423
 H    0.6474396765   -0.3445574673    3.7919534433