16

 C   -0.0593744126    1.5517184312    0.0472614643
 C    0.0269657210    0.0416496318   -0.0693882420
 O   -1.1876174086   -0.5590859012   -0.4512398326
 C    1.1644302778   -0.5766320819   -0.9552714932
 C    1.7164331889   -1.2814618949    0.2859522597
 O    2.0287578497   -0.2752599034    1.2563392211
 C    0.6688180871   -0.7030155820    1.1512969941
 C   -0.0195302394   -1.2065308257    2.2966013305
 N   -0.6454747238   -1.5800555150    3.1949063938
 H    0.8974245617    1.9666107632    0.3723940807
 H   -0.3269558087    1.9877943725   -0.9197877425
 H   -0.8242661634    1.8411846403    0.7778834891
 H   -1.8789056660   -0.2619656391    0.1523917739
 H    0.7318043047   -1.2618386471   -1.6854661221
 H    1.8530807318    0.1186661582   -1.4383220910
 H    2.2326758298   -2.2294637271    0.3755601362