16

 C    0.1215217303    1.5840632190   -0.2673934915
 C    0.0302225274    0.0911896503   -0.0442322735
 C    1.2772560393   -0.7917848954   -0.0964943459
 C    0.5733639703   -0.5387526788    1.1895257738
 C    1.0444368269    0.0431545121    2.5132649473
 C    0.2475391591   -1.1264433525    3.1014967677
 O   -0.0157180866   -1.5711185806    4.1706483060
 O   -0.1454817646   -1.6023655659    1.8722680410
 H    1.0386933197    1.9949021407    0.1678910826
 H    0.1294250690    1.8205060919   -1.3364681101
 H   -0.7271537612    2.1078686217    0.1854209094
 H   -0.8709372376   -0.3818101557   -0.4260913061
 H    1.1802889664   -1.7791640548   -0.5341597778
 H    2.2404637114   -0.3152264697   -0.2534216147
 H    2.1163592001   -0.0001995458    2.7145049384
 H    0.6555999704    1.0276905535    2.7807910333