14

 O   -0.1192495314    1.4343071010    0.0889390252
 C    0.0176822063    0.0427045041    0.0517753475
 C    0.7739123922   -0.3809124619   -1.2055324035
 O    1.1180465631    0.4346679041   -2.0249890634
 C    0.7372391399   -0.4662231442    1.2665387215
 C    1.3487269473    0.2386591011    2.2475886519
 O    1.8684897037   -0.6582410719    3.1411166618
 C    1.5406920900   -1.8660714825    2.6367437014
 N    0.8708260740   -1.8261561917    1.5312437824
 H    0.2753327588    1.7516845091   -0.7403063800
 H   -0.9677786004   -0.4558741336   -0.0008595065
 H    0.9838365283   -1.4610701996   -1.3099157984
 H    1.4822046274    1.2832041242    2.4603187387
 H    1.8616416708   -2.7314217482    3.1948922315