23

 C   -0.2039893829    1.4964337745   -0.0219567456
 C    0.0241995054   -0.0102141871    0.0070063453
 C    1.2127826479   -0.6190998585   -0.8333891027
 C    2.1472167011   -0.2090197680    0.3521788777
 C    0.8851989313   -0.6300818072    1.1749640343
 C    0.8014737334   -2.1225581183    0.8025341054
 C    0.5257981320   -3.2293329346    1.7618013482
 C    1.0178423033   -2.1153299026   -0.5227544777
 C    1.0636456307   -3.2113845640   -1.5315665614
 H    0.7084591076    2.0789783854    0.1300267433
 H   -0.6325649032    1.7986822590   -0.9844770644
 H   -0.9166732692    1.7891530297    0.7577067797
 H   -0.9292957710   -0.5247784562   -0.1513216690
 H    1.4084248244   -0.3249558838   -1.8663799739
 H    3.0536013732   -0.8018542417    0.4967692967
 H    2.3821653582    0.8575446141    0.3963164372
 H    0.7419635972   -0.3472988419    2.2196576284
 H   -0.4413080616   -3.0948695691    2.2645478613
 H    0.5089680533   -4.2035979515    1.2642966183
 H    1.2830980845   -3.2732296263    2.5558759907
 H    0.8899329059   -4.1907243625   -1.0758219551
 H    0.3072947267   -3.0692740218   -2.3150526854
 H    2.0347186519   -3.2489222678   -2.0430448710