18

 C   -0.2084041450    1.4563579356    0.4632889520
 C    0.0001940450    0.0208633456    0.0268871874
 C    1.3252312344   -0.4258011730   -0.5421668869
 C    0.8862532823   -0.8938426679    0.8245248458
 N   -1.1772856706   -0.5883459783   -0.5471205880
 C   -1.6117593265   -0.5451081912   -1.8312330965
 C   -2.8205649805   -1.1946619147   -1.8036154953
 N   -3.0698872432   -1.5934259696   -0.5253290234
 N   -2.0801526207   -1.2215973365    0.2350421754
 H    0.7105353103    1.8588921524    0.8980817445
 H   -0.4907451256    2.0906774511   -0.3835908230
 H   -1.0010408075    1.5144915532    1.2151428297
 H    1.3139882908   -1.1498187519   -1.3485380005
 H    2.1104237141    0.3185490916   -0.6130858184
 H    1.3706619743   -0.4741215154    1.6986833959
 H    0.5667159808   -1.9224245923    0.9320057701
 H   -1.0394828701   -0.0817658730   -2.6168104923
 H   -3.5078389122   -1.4016231759   -2.6077980064