18

 C    0.1859750618   -1.1478149418    0.0781255588
 C    0.0802516822    0.0497895376    0.0291641155
 C   -0.0929778585    1.4629635229   -0.0123927496
 C    0.2360840266    2.3001194254   -1.1937216757
 N    1.0792460370    2.4706950152    0.0004730291
 C    0.2640451494    3.2948223628    0.9350465914
 C    0.9116705179    4.0484236870    2.0439823237
 C    0.2480975132    4.7903117840    0.8959746689
 C   -0.8814013619    2.2839466502    1.0195394674
 H    0.2921820731   -2.2035569651    0.1179158105
 H    0.7536974682    1.8096223290   -2.0115990462
 H   -0.4375003331    3.1040899980   -1.4842453577
 H    0.4276129314    4.0560749028    3.0152281786
 H    1.9958431040    4.0393392175    2.0731732588
 H    0.8936036489    5.2806252769    0.1745729163
 H   -0.6900903536    5.3020927992    1.0848988102
 H   -1.8817001315    2.6029743373    0.7120803847
 H   -0.9411434751    1.7874402113    1.9898377954