23

 C    0.7679618165    1.8541297545    0.0053646026
 C    0.8047150732    0.3394471782   -0.2246696482
 C    0.7544630371   -0.4603488821    1.0714302095
 C   -0.5558412954   -0.4497524498    1.9136436047
 C   -0.4308925217   -1.9855496446    2.1358823348
 C   -1.6099004521   -2.8536412740    1.6556788846
 C   -1.2913511571   -3.0696714734    0.1924117872
 C   -0.0779761316   -2.6284071287   -0.1445955797
 C    0.6652745699   -2.0225980883    1.0168947703
 H    1.6235678648    2.1851325433    0.6049408197
 H    0.7928241228    2.4028859838   -0.9413787647
 H   -0.1419257401    2.1520218724    0.5377582481
 H   -0.0379874110    0.0435499997   -0.8624583873
 H    1.7156155581    0.0752393458   -0.7790999583
 H    1.6039589203   -0.1749220044    1.7040705972
 H   -0.5614032422    0.1775772870    2.8083708009
 H   -1.4341049500   -0.1943352654    1.3109807876
 H   -0.0824080581   -2.2429104492    3.1374953227
 H   -1.6756590824   -3.8114810402    2.1907027528
 H   -2.5756602932   -2.3527903606    1.8065384350
 H   -1.9853708770   -3.5539649135   -0.4871319281
 H    0.3512822683   -2.7051980222   -1.1383580642
 H    1.6079033208   -2.5446556086    1.2173117428