23

 C   -0.9479428144    1.0188851446   -0.1300391597
 C    0.1437529893   -0.0387105548   -0.0710342964
 C    1.5224642381    0.2401133909   -0.7406128792
 C    2.1809436782   -0.4938411343    0.4309261345
 C    2.9849680548   -1.7544519156    0.3289976143
 C    3.6065133967   -0.4965949827    0.8935224482
 C    0.8995945100   -0.3609661894    1.2690439752
 C    0.9466502714    0.7827989398    2.2782732052
 O    0.5383612881   -1.5744924648    1.9069322720
 H   -0.5910767602    1.9946772373    0.2161832857
 H   -1.3082878078    1.1475863425   -1.1567269205
 H   -1.8115072592    0.7411604980    0.4857421017
 H   -0.2405033144   -0.9960857554   -0.4372251117
 H    1.6808354349   -0.1714446866   -1.7407989293
 H    1.7623336069    1.3096215062   -0.7616105264
 H    2.7414774562   -2.5545104698    1.0187591200
 H    3.2959747873   -2.0813159623   -0.6585385077
 H    4.3386751436    0.0327508114    0.2915677997
 H    3.8012044656   -0.4629641249    1.9611989127
 H    1.2891872749    1.7146341258    1.8195540398
 H   -0.0444382190    0.9709235641    2.7104772906
 H    1.6346386469    0.5331963024    3.0918738103
 H   -0.1612112479   -1.3864453321    2.5410621709