15

 O    0.3744120757    1.2459431867   -0.4413359457
 C    0.0050474363   -0.0263544457    0.0131168692
 C    0.1042212853   -0.2882116784    1.5536058636
 N   -1.3447106190   -0.4856762320    1.5568864149
 C   -1.5368486900   -0.1547405599    0.1388650243
 C   -2.1505619756   -0.8625309046    2.5656406687
 O   -1.7917331378   -1.1027642730    3.7009260977
 C   -3.5684893055   -0.9731427120    2.1545572943
 N   -4.6813322886   -1.0688633704    1.8583426156
 H    1.3307624661    1.2739225110   -0.5468073073
 H    0.4577556634   -0.8253083027   -0.5844710434
 H    0.6695448621   -1.1669342026    1.8771328503
 H    0.4229446397    0.5899278519    2.1244846148
 H   -2.0478458178    0.7985961797   -0.0261112977
 H   -2.0151003744   -0.9412181578   -0.4503671294