15

 C    0.0277495263    1.5508343258    0.0247130718
 C    0.0071335631    0.0228669752    0.0102345463
 C   -1.4395983980   -0.5588029174   -0.0184899697
 C   -2.1656692518   -0.1257188637   -1.2240786564
 N   -2.7190395074    0.2399798146   -2.1693013169
 C   -1.4367674340   -2.0160496268    0.0851279484
 C   -1.4019823010   -3.2169286888    0.1944735763
 C   -1.3633178809   -4.5768998991    0.3179682897
 N   -1.3272152711   -5.7323750975    0.4267962226
 H    1.0591575062    1.9117088942    0.0533715245
 H   -0.4499453681    1.9652848312   -0.8676558110
 H   -0.4903869187    1.9484959968    0.9038867400
 H    0.5497560161   -0.3664919921   -0.8560813865
 H    0.4932401223   -0.3804660008    0.9035824056
 H   -1.9852377328   -0.1554856115    0.8468526453