16

 C   -0.0716565971    1.8141050688    0.4734765999
 C   -0.1293407411    0.3496215445    0.1118256845
 O    0.8062523693   -0.1023776118   -0.8664966596
 C    0.9632485852   -0.5920429730    0.4699570250
 C    2.1344645689   -0.1477061881    1.1922067346
 N    3.0622862031    0.1951903246    1.7903306691
 C   -1.5142272213   -0.2305265942   -0.0300668247
 C   -2.0065562712   -0.6995626206   -1.3335864746
 O   -1.5991442673   -1.6194593461   -0.3157505803
 H    0.9617781087    2.1527707051    0.5619997102
 H   -0.5692994462    2.4095184109   -0.2987042503
 H   -0.5820025185    1.9961799061    1.4245506556
 H    0.7098312307   -1.6412017307    0.5988945757
 H   -2.2321618198    0.1317084634    0.7064212775
 H   -3.0740522576   -0.6797581249   -1.5437073167
 H   -1.3421534458   -0.6443834840   -2.1919176361