16

 C   -0.1934275682    1.5905430877   -0.0274258287
 C    0.0362687631    0.0791553332    0.0438665708
 C    0.9010520525   -0.4894111055   -1.1477416387
 N    1.7228590035   -1.6219564488   -0.6104134838
 C    1.7736362356   -1.3449998888    0.7613487981
 C    0.8659738798   -0.4333074280    1.1789238157
 O    0.9022285432   -0.3398892404    2.4945714158
 N    1.9686654294   -1.2806259175    2.8996337258
 N    2.4161128560   -1.8353174911    1.8533736730
 H    0.7574868454    2.1320817622   -0.0230397512
 H   -0.7346477011    1.8544392779   -0.9414018080
 H   -0.7848932472    1.9346602326    0.8255243808
 H   -0.9395925049   -0.4266765765    0.0580685316
 H    0.2771720961   -0.8344317156   -1.9750384307
 H    1.5500097083    0.3163348622   -1.5178809136
 H    2.6251489585   -1.7015238736   -1.0639572970