14

 N   -0.0238895481    1.3933146021   -0.1871167235
 C    0.0307800141    0.1617108686    0.1175241752
 N   -1.1794461723   -0.4832099252    0.3943317567
 C   -1.4477663192   -1.7503082661    0.8014970267
 C   -0.5882515520   -2.6758033167    1.3001010955
 C    0.7979440674   -2.4383338185    1.5802005474
 N    1.6108901811   -1.5665557787    1.0885824702
 C    1.3239427528   -0.6618099853    0.0851655372
 O    2.1251277097   -0.3870088809   -0.7803434302
 H    0.9036865362    1.7068490535   -0.4742011506
 H   -1.9693236104    0.1088559665    0.1728802002
 H   -2.5040467246   -1.9928475095    0.7440528598
 H   -1.0150684774   -3.6105168865    1.6426147165
 H    1.2318145226   -3.0921729332    2.3417529589