19

 C   -0.3522079714    1.4357548417   -0.1741896870
 C    0.1926537499    0.0075925619   -0.0010226251
 C    0.9295786774   -0.4870169715   -1.1979476252
 N    2.1859215104   -0.8014223367   -1.2936982000
 C    2.3540476437   -1.1854117029   -2.6173908815
 N    3.6214463432   -1.5403038324   -3.0850176803
 C    1.1697975169   -1.0792917207   -3.2784320491
 C    0.7126761114   -1.3172016930   -4.6686879408
 O    0.2417357107   -0.6309561420   -2.3508559788
 H    0.4621331292    2.1461517116   -0.3444749404
 H   -1.0344522893    1.4913533340   -1.0267851355
 H   -0.8972411545    1.7486368835    0.7210951325
 H    0.8848875328   -0.0419393999    0.8428569828
 H   -0.6385358203   -0.6745920974    0.2170569543
 H    4.2326454980   -1.7675952989   -2.3113517579
 H    3.6101307617   -2.2993506363   -3.7529699171
 H   -0.0042760151   -2.1449050778   -4.7422857412
 H    0.2310033542   -0.4288514642   -5.0944210586
 H    1.5715308110   -1.5593192391   -5.3009271712