16

 C    0.1443991330    1.4455635919    0.0436086665
 N   -0.2959492187    0.0813302566   -0.2317553326
 C    0.4400851584   -0.6563283023   -1.1516396214
 C    0.6874959618   -1.9870095129   -1.1754557584
 O    0.4781419741   -2.9975137731   -0.3080325100
 O    1.4078864370   -2.2618173993   -2.3480035286
 C    1.5366239337   -1.0549639280   -2.9244195700
 N    2.1501647590   -1.0179819075   -4.1547978309
 N    1.0019072524   -0.0616068687   -2.2822279471
 H    1.1352019172    1.5051166077    0.5210691670
 H    0.1896727588    1.9993065860   -0.8953711437
 H   -0.5882484187    1.9264278193    0.6970663133
 H   -0.4593752221   -0.4534823655    0.6110615921
 H   -0.2610767384   -3.5434423494   -0.6077676482
 H    2.8848467683   -1.7007452260   -4.2750598433
 H    2.4315872741   -0.0834737287   -4.4136185548