23

 C   -0.2182660079    1.6296557006   -0.1734902533
 C   -0.0158884934    0.1219873044   -0.0550643636
 C    1.0156095261   -0.5845938921   -1.0497160739
 C    1.9061469279   -0.8286097977    0.1856924634
 C    2.5822002777   -1.7265534507    1.2620346797
 C    2.0417985975   -0.4164405132    2.0189507851
 C    2.1745298012   -0.1252269266    3.4929273778
 C    2.6437500360    0.3822991642    0.8453850586
 C    0.7388497083   -0.6107853769    1.1481835162
 H    0.7142322953    2.1908048165   -0.2626341088
 H   -0.8150006301    1.8570501627   -1.0647775434
 H   -0.7621916921    2.0172613991    0.6946132229
 H   -1.0040076507   -0.3411430470   -0.1343314958
 H    0.5920278408   -1.4934135763   -1.4863368495
 H    1.4414136600    0.0288490410   -1.8500603504
 H    2.0758076695   -2.6667239484    1.4984576667
 H    3.6712053737   -1.8486886145    1.2456924307
 H    3.2262840452   -0.1284479652    3.8018647773
 H    1.7569597412    0.8585719040    3.7333015389
 H    1.6442659555   -0.8719411859    4.0939076996
 H    3.7350862818    0.3788430863    0.7558941035
 H    2.2479689981    1.3829606957    0.6816143746
 H    0.1768329782   -1.5112194401    1.4188659437