24

 C   -0.1253603514    1.5974517755    0.1701380408
 C   -0.1805347193    0.0902065631    0.4257189719
 C   -1.2467012271   -0.6187247115   -0.4165763625
 C   -1.1756018621   -2.1383752615   -0.2749078565
 O   -0.1132594500   -2.7312849817   -0.1822482681
 N   -2.3833037869   -2.7754836373   -0.2759463051
 C   -2.5288508486   -4.2270545826   -0.2183503426
 C   -3.4296570020   -4.6291515952    0.9542868633
 C   -3.0399084697   -4.7818769320   -1.5539184545
 H    0.6445837454    2.0738517720    0.7848577826
 H    0.1060644915    1.8137759267   -0.8790599745
 H   -1.0811358159    2.0811024360    0.4027689210
 H    0.7850668629   -0.3748104635    0.2073720827
 H   -0.3763644244   -0.0998124400    1.4882725301
 H   -2.2491094390   -0.2479132088   -0.1684684492
 H   -1.0844191873   -0.3877482808   -1.4785855008
 H   -3.2192785153   -2.2208494279   -0.3727743625
 H   -1.5158296395   -4.5978685509   -0.0421203011
 H   -4.4445406149   -4.2320976104    0.8273449933
 H   -3.5086414985   -5.7183796626    1.0246407173
 H   -3.0316035788   -4.2502818335    1.8995525922
 H   -2.3679159209   -4.5051258836   -2.3707829856
 H   -3.1076446668   -5.8738679260   -1.5189377578
 H   -4.0391897214   -4.3937548032   -1.7860842743