17

 C    0.1617258453    1.5143115493    0.2191559899
 C   -0.1019492771    0.0301716229   -0.0966747897
 C    0.5943805099   -0.4609385119   -1.3269640441
 C    0.1034909999   -0.7488119491   -2.5865459246
 C    1.2057352866   -1.1466762894   -3.3942799212
 O    1.1903771504   -1.5259675697   -4.7074928942
 C    2.3407026641   -1.0954169621   -2.6208949383
 N    1.9462205480   -0.6740611026   -1.3644618681
 H    1.2282328364    1.7041885132    0.3791872510
 H   -0.1650068375    2.1499828804   -0.6090494681
 H   -0.3727103352    1.8235983484    1.1232339066
 H    0.1893849528   -0.5799797264    0.7695677925
 H   -1.1771484337   -0.1274109236   -0.2287935189
 H   -0.9315196622   -0.6814359191   -2.8900473605
 H    0.2835421549   -1.4801934461   -5.0222721680
 H    3.3659742887   -1.3248326082   -2.8544950126
 H    2.5667907086   -0.5527789962   -0.5839966017