20

 O    0.0267580308   -0.0627418584   -0.0646286284
 C   -0.0178917099    1.1377494712    0.0614309136
 C   -1.3497501157    1.8800178071    0.2050040677
 N   -1.2518602465    3.0583872833    1.0757998648
 C   -0.0257475974    3.8497873789    0.9105222861
 C    0.2989946845    4.2543377162   -0.5556138098
 C    1.1074337217    3.0551841537   -1.1328639760
 C    1.2118126072    2.0313073285    0.0350139780
 C    1.1588065921    2.9455354539    1.2788594607
 H   -1.6592701258    2.1247280508   -0.8301705009
 H   -2.0895526163    1.1778489827    0.5979980394
 H   -2.0646724635    3.6481901138    0.9349998934
 H   -0.1149994205    4.7197115265    1.5666087410
 H   -0.6128116435    4.4624987451   -1.1235919965
 H    0.8978509492    5.1700333597   -0.5719547634
 H    0.6447133781    2.6201007353   -2.0234443075
 H    2.1156426790    3.3658807529   -1.4212914361
 H    2.0969334896    1.3964405329   -0.0297802423
 H    2.0867832791    3.5211565851    1.3636685932
 H    0.9918613279    2.4086261208    2.2156406629