21

 O   -0.0838617851    1.4422990459    0.0315886855
 C    0.0020711613    0.0246542250    0.0118969750
 C    0.7756059577   -0.5370489570    1.2109106525
 C    0.6694388131   -2.0646892808    1.2425534821
 O   -0.6867813258   -2.4879989287    1.2675492330
 C   -1.4054078977   -2.0325950605    0.1487076756
 C   -1.3685918956   -2.9078867031   -1.0855306424
 C   -2.5982144210   -2.8600142618   -0.1961340605
 C   -1.4260929909   -0.5218281160    0.0257105243
 H    0.8119371532    1.7947720233    0.0432559372
 H    0.4960280354   -0.3147200503   -0.9149084893
 H    1.8315976945   -0.2398047704    1.1659987263
 H    0.3489829393   -0.1190207450    2.1301740939
 H    1.1837368991   -2.4980293095    0.3690069265
 H    1.1326165912   -2.4742957154    2.1442755747
 H   -1.4158103198   -2.4400849503   -2.0633008444
 H   -0.7618924409   -3.8051102778   -1.0369898114
 H   -2.7863798252   -3.7212169457    0.4345035296
 H   -3.4867139892   -2.3555681971   -0.5601032795
 H   -1.9539856843   -0.0894848691    0.8845568348
 H   -1.9568494692   -0.2121657656   -0.8794720032