20

 C   -0.0293524963    1.5461350546   -0.2565834595
 C    0.0055677386    0.0547570652    0.1080380721
 C   -1.3705537390   -0.5430039351    0.1795800184
 C   -1.9233014323   -1.9667870906    0.0152462235
 C   -2.9672862931   -1.7737031524    1.1281080235
 C   -2.3817050206   -0.3462426939    1.2983924880
 O   -2.5311667261    0.5087386001    2.1256217899
 N   -2.0494007395   -0.9939749119   -1.0353937856
 C   -3.3290365105   -0.4586832547   -1.4927065326
 H    0.9811709549    1.9642508778   -0.2856990173
 H   -0.4844248854    1.6958062222   -1.2408557383
 H   -0.6112828875    2.1097165973    0.4783387949
 H    0.5874382077   -0.5036867247   -0.6330123355
 H    0.5009859636   -0.0757334097    1.0778615346
 H   -1.3498481181   -2.8687144820   -0.1691303098
 H   -4.0212466380   -1.8808026085    0.8603849354
 H   -2.7678763004   -2.3626019439    2.0286193045
 H   -4.0760261625   -0.2749606533   -0.7094725881
 H   -3.1400676036    0.4872393938   -2.0075954953
 H   -3.7554597021   -1.1590286703   -2.2175253128