19

 O   -0.1359939098    1.4295474085    0.0074556793
 C   -0.0105860461    0.0070796901    0.0200252636
 C   -1.4299519971   -0.5416711930   -0.0236083628
 O   -2.1640904714   -0.0391800964    1.0779321199
 C   -2.1460949804   -0.3382855043   -1.4085871654
 C   -2.3797426383   -1.8268826135   -1.7225992584
 C   -2.9301759963   -2.4094190723   -0.4014630317
 C   -1.4744393965   -2.0885542628   -0.0151365147
 O   -1.0712456935   -2.4065858572   -1.3825666060
 H    0.7258414145    1.8160549239    0.1846324342
 H    0.5623592792   -0.3614661469   -0.8392051195
 H    0.4782789094   -0.3317555399    0.9458182241
 H   -1.9173399922    0.8918018250    1.1515910822
 H   -3.0689171627    0.2345518691   -1.2935325712
 H   -1.5119579296    0.1433345614   -2.1551185053
 H   -2.7511009138   -2.1139934476   -2.7062156346
 H   -3.7384651939   -1.8925500007    0.1173234533
 H   -3.1008847943   -3.4840949228   -0.4680135074
 H   -0.9165673773   -2.6150312206    0.7596362402