16

 O    0.0189962540   -0.0192871282    0.1279655893
 C   -0.0148713354    1.1789363616    0.0668802166
 N   -1.0777492279    2.0411079233    0.2429924687
 C   -0.6699948290    3.3707786430    0.0785464540
 C    0.6416030538    3.3034144561   -0.1980147900
 O    1.0664955788    1.9880544343   -0.2125504016
 C   -1.5619967843    4.5292728617    0.2016104518
 C   -3.0067722072    4.4678413937   -0.2559633382
 C   -2.6930984857    4.5534051949    1.2118305576
 H   -1.9990913610    1.7049305952    0.4587585165
 H    1.3808658476    4.0575687775   -0.4002323121
 H   -1.0473508133    5.4696764993    0.0368040716
 H   -3.4130067769    5.3416000979   -0.7522419299
 H   -3.3717414080    3.5263965620   -0.6524295646
 H   -2.8424044999    3.6707868966    1.8245284545
 H   -2.8825116855    5.4863051211    1.7300899760