18

 O    0.1860288531    1.3959106146    0.0211899523
 C    0.0483130479    0.0148625852    0.0174836087
 C    0.4292330738   -0.6824266401    1.3353080397
 C   -0.9148210343   -1.4765767705    1.3435406216
 C   -1.3538064631   -0.8135213809    0.0261061245
 O   -2.6298177315   -0.2677178381    0.0385522159
 C   -0.8666272345   -1.5146800321   -1.2300518358
 N   -0.6555042317   -0.4177498349   -2.2158719820
 C    0.4159668230   -0.7570066682   -1.2378698118
 H   -0.1321133081    1.7063825852   -0.8359301013
 H    1.3475995332   -1.2749594452    1.3136992279
 H    0.4986028388    0.0404595806    2.1500313774
 H   -0.8390539712   -2.5669660853    1.3270468479
 H   -1.5740319973   -1.1842284819    2.1627618300
 H   -2.7560440293    0.1562115665   -0.8197102110
 H   -1.0558498411   -2.5295220881   -1.5618817554
 H   -0.4076518118   -0.8464044387   -3.1062252424
 H    1.3930961641   -1.0828412982   -1.5767971063