18

 C   -0.0708926860    1.3978741157   -0.0771690825
 N   -0.0148409741   -0.0505899962   -0.0307423253
 C    0.5847728346   -0.5976436757    0.9724272736
 C    1.2328988995    0.0517697541    2.0987404097
 C    1.8112937163   -0.7076542404    3.0588664078
 N    1.7906465569   -2.0619823940    2.9781147422
 N    1.2118912215   -2.7564405327    1.9681798340
 C    0.6424448813   -2.0742029677    1.0207633976
 C    0.0058396928   -2.8503322771   -0.0902115802
 H    0.9286070457    1.8610797718   -0.1087082771
 H   -0.6061825214    1.7101830869   -0.9780968904
 H   -0.5984955070    1.8307953581    0.7881444234
 H    1.2601752464    1.1290030020    2.1814296733
 H    2.3140160595   -0.3003430664    3.9293046376
 H    2.2151512937   -2.6410525778    3.6817710413
 H    0.1271830237   -3.9212303968    0.0782963712
 H   -1.0560945848   -2.5965191484   -0.1653774695
 H    0.4485087314   -2.5649548755   -1.0495464166