14

 C    0.0035080920    1.4385930773    0.0632136222
 N    0.0131070756   -0.0089173680    0.0444461389
 C   -0.0119874885   -0.7494069797   -1.1139280452
 O   -0.0442258251   -0.3869749158   -2.2578790679
 O    0.0074940876   -2.0814536945   -0.7144650861
 C    0.0429572467   -2.1237078880    0.6493974086
 C    0.0477200061   -0.8728275515    1.1545145611
 C    0.0789825636   -0.4246364052    2.4865667862
 C    0.1056109151   -0.0173196135    3.6196270354
 H    0.9035836998    1.8288823323    0.5471595666
 H   -0.0254003498    1.7703000750   -0.9753477110
 H   -0.8759251046    1.8164806194    0.5927889934
 H    0.0621871940   -3.0904836014    1.1198820547
 H    0.1291304675    0.3311633237    4.6227947431