22

 C    0.3203705345    1.4831340670    0.1339237516
 C   -0.2564829564    0.0912063327   -0.1128523843
 N    0.4948190066   -0.5829899723   -1.1675380436
 C    1.7216565032   -1.3105610074   -0.9192738416
 C    1.7148382490   -2.1068831078    0.4069480439
 C    0.4344215316   -2.8139885089   -0.0819000615
 C    0.1557858321   -4.2840799639    0.0095315939
 C   -0.7577330282   -3.2925443184    0.6961567672
 C    0.4629726217   -2.0139712386   -1.3786036817
 H    1.3531547086    1.4196507575    0.4928350980
 H    0.3218895700    2.0693040908   -0.7894650526
 H   -0.2661244883    2.0180648627    0.8873295022
 H   -0.2857432546   -0.4739268797    0.8295566072
 H   -1.2928116524    0.1710269191   -0.4620233919
 H    2.6080438840   -1.0418467155   -1.4834257539
 H    2.5662799797   -2.7885506931    0.4798124498
 H    1.6518108293   -1.5206271720    1.3294863247
 H   -0.2134928380   -4.7880646507   -0.8787036482
 H    0.8077854485   -4.8935750708    0.6271990059
 H   -0.7153471351   -3.2309341513    1.7792126609
 H   -1.7471040651   -3.1319309161    0.2799541651
 H    0.1872372892   -2.3916053732   -2.3587907109