21

 C    0.1072141181    1.5795198128    0.0668905140
 C    0.0087016753    0.0770621770    0.0347148172
 C   -0.1592886634   -0.5889392276   -1.1119452687
 C   -0.2664883216   -2.0854821078   -1.3053908478
 O   -0.9107592614   -2.8557060818   -0.3011232598
 C   -0.5560203816   -2.6669566211    1.0560475194
 C   -1.2328277075   -1.4215425865    1.6944086138
 C    0.0718650119   -0.6195083485    1.3770994304
 C    0.8143076701   -1.9890012342    1.3262389348
 H    1.0586785983    1.9022127999    0.5092467735
 H    0.0291389045    2.0155217775   -0.9324291706
 H   -0.6853354547    2.0134419797    0.6908018500
 H   -0.1954669691   -0.0224878480   -2.0408378780
 H   -0.8543255685   -2.2797874378   -2.2088054396
 H    0.7384523286   -2.4962162315   -1.5059064360
 H   -0.7382562452   -3.6305175974    1.5398417984
 H   -2.1599969717   -1.0841874102    1.2276270586
 H   -1.3821962314   -1.5508278921    2.7708213049
 H    0.4056374115    0.0783922320    2.1489742572
 H    1.1880598192   -2.2757210885    2.3129109953
 H    1.6171970085   -2.1148550460    0.5973988528