17

 C    0.0409586015    1.3903706887   -0.0222830165
 N    0.0227071297   -0.0637087095    0.0553626917
 C   -1.0952172046   -0.6401356257    0.0234804912
 N   -1.3295049188   -2.0087833147    0.0837273235
 C   -2.6784705939   -2.2147392093    0.0132514565
 C   -3.3337174043   -3.5708159349    0.0448277618
 N   -4.7840709480   -3.5713273417   -0.0427374760
 N   -3.3388073009   -1.1088566706   -0.0840417098
 O   -2.3458751446   -0.0798264475   -0.0775105600
 H    1.0793765949    1.7290166366   -0.0504069531
 H   -0.4671340853    1.7689610200   -0.9195723468
 H   -0.4439748182    1.8562122662    0.8464266702
 H   -0.5979450826   -2.6931545066    0.1583083772
 H   -2.9235499796   -4.1713748458   -0.7776723147
 H   -3.0289833215   -4.0796355579    0.9687560861
 H   -5.1662393337   -3.0117946705    0.7145073232
 H   -5.0690689901   -3.0959885567   -0.8944265544