11

 C   -0.0301141100    1.5109276859    0.0942060003
 O    1.2825186758    1.9340931369   -0.2667254080
 C    2.0913590796    0.8060024409   -0.5915842945
 C    1.1956578032   -0.3875384802   -0.4119575005
 C   -0.0085807235    0.0126091084   -0.0226718092
 H   -0.2649744611    1.8504348260    1.1158682909
 H   -0.7706451678    1.9751937612   -0.5768328905
 H    2.4667640035    0.8994666897   -1.6233590137
 H    2.9725288281    0.7746734875    0.0693070421
 H    1.5229761723   -1.4050338340   -0.5847611489
 H   -0.8686345300   -0.6103437025    0.1883559820