15

 O    0.4698868168    0.3096527475   -1.0811897374
 C   -0.0612920898    0.2631492298    0.2353117017
 C   -1.4305582604   -0.2361893493    0.1910124010
 C   -2.5685288156   -0.6260758189    0.1817873766
 C   -3.9262677187   -1.1688109915    0.1348125302
 C   -3.8537333077   -2.6440253957   -0.3480541847
 O   -4.4021144783   -3.0418787790   -1.3341652752
 C   -4.5903023366   -1.1468192598    1.4385531678
 C   -5.1463625630   -1.1944793025    2.5020222064
 H    1.3699784141    0.6450087342   -1.0168454294
 H    0.5358987214   -0.3944331832    0.8878492339
 H   -0.0633894973    1.2603028204    0.7049656036
 H   -4.5302450004   -0.6314449792   -0.6065613364
 H   -3.2410994998   -3.2912226373    0.3118597520
 H   -5.6392545445   -1.2125174155    3.4428121800