17

 C   -0.0532835641    1.5515823462    0.0362225659
 C    0.0681704421    0.0475443529    0.0392186268
 C   -1.2145686174   -0.8388663233    0.2681002879
 C   -0.3641209475   -1.7240294524    1.1852621176
 C    0.7234967980   -0.7125663361    1.2325535024
 N    0.9978323465   -2.0141532306    0.6291808468
 C    1.1265893750   -1.8286405571   -0.8031575965
 O    1.4464244703   -2.6832545396   -1.5833928175
 N    0.8383918831   -0.4980113472   -1.0789577562
 H    0.9364750525    2.0162321232   -0.0096076379
 H   -0.6340878315    1.9003799744   -0.8247757342
 H   -0.5599184332    1.8991639651    0.9412181435
 H   -1.9690456220   -0.3100785882    0.8571483753
 H   -1.6788827782   -1.2828741924   -0.6181041141
 H   -0.7165103964   -2.4118611904    1.9431303020
 H    1.3513788566   -0.3305690240    2.0285445149
 H    0.5598887863   -0.2969880306   -2.0300491667