12

 N    0.0009811666    1.2705759976    0.0085495038
 C   -0.0591303252    0.0060219892    0.0026399440
 N   -1.2711253462   -0.7043335933    0.0103933928
 C   -1.1874295110   -2.1103202824    0.0023914005
 N   -2.1846975293   -2.8851221551    0.0066823916
 C   -2.4901280524    0.0290363121    0.0258106060
 O   -3.5843020888   -0.4556573213    0.0341096406
 H    0.9686542679    1.5836075625    0.0010742884
 H    0.8044198585   -0.6679249157   -0.0089090839
 H   -0.1379542892   -2.4308266463   -0.0081396760
 H   -1.8643434965   -3.8528050059   -0.0010449159
 H   -2.2754118942    1.1065840486    0.0290628581