18

 O    0.2377294970    1.2713352580    0.3395490908
 C    0.0324961326   -0.0784602073    0.0206323826
 C   -1.4684964648   -0.4198817926    0.0313755252
 C   -1.7480207317   -1.8918234979    0.3378739960
 C   -1.0610157829   -2.9031461654   -0.5341195750
 C   -0.1118940119   -2.7483650946   -1.4608772143
 N    0.5561350877   -1.5931715260   -1.8954418192
 C    0.6738373139   -0.3500654184   -1.3402445476
 O    1.2879838969    0.5366821016   -1.9152731889
 H    0.7932733132    1.6173163766   -0.3797624858
 H    0.5407208327   -0.7260165997    0.7576996791
 H   -1.9252695245    0.2040298147    0.8044609318
 H   -1.9230994355   -0.1244499380   -0.9212385799
 H   -1.4804461154   -2.0974549617    1.3853901298
 H   -2.8303935029   -2.0688295908    0.2840623287
 H   -1.3784280925   -3.9313272496   -0.3821302883
 H    0.2384835996   -3.6247201581   -1.9963572571
 H    1.0639609486   -1.6710288806   -2.7654389978