18

 C   -0.0097480586    1.4978023841    0.0093915528
 C   -0.0059812969    0.0447034370   -0.0849051572
 C    0.0106705528   -1.1565662355   -0.1681690437
 C   -0.0086720713   -2.6118567872   -0.2534525516
 C   -1.3507312275   -3.2172883681    0.2393132380
 C   -1.3700802838   -4.6725780122    0.1540072760
 C   -1.3534499464   -5.8738441743    0.0706896866
 C   -1.3497746639   -7.3269415360   -0.0236430895
 H    0.8089536784    1.8591614569    0.6416786150
 H    0.1040265576    1.9625123089   -0.9763743768
 H   -0.9469595732    1.8663087961    0.4412696848
 H    0.1647186339   -2.9345322683   -1.2869132637
 H    0.8088557417   -3.0384388172    0.3397582380
 H   -1.5241151499   -2.8946247198    1.2727786859
 H   -2.1682592265   -2.7906958701   -0.3538896830
 H   -2.1654596788   -7.6879778025   -0.6600001109
 H   -0.4105716041   -7.6957897120   -0.4508779413
 H   -1.4686060036   -7.7916316496    0.9615354707