19

 O   -0.1510977953    1.4627119347   -0.1057634409
 C    0.0023949841    0.0541732133   -0.0563743122
 C   -1.3926536959   -0.5587341935   -0.0305569087
 C   -1.3942468690   -2.0875649897    0.1157522661
 C   -2.8270339780   -2.6834788023    0.0929164628
 N   -2.9924430694   -3.0016863840   -1.3163698121
 C   -1.7615727101   -3.2168255632   -1.9248531124
 O   -1.5649209589   -3.6723810403   -3.0285479924
 N   -0.7997754147   -2.8028085266   -1.0103999377
 H    0.7217898947    1.8605276401   -0.1732350826
 H    0.5637122847   -0.3108091081   -0.9319717113
 H    0.5616456586   -0.2564865950    0.8427194699
 H   -1.9351843914   -0.1230368558    0.8172094541
 H   -1.9303175107   -0.2730718520   -0.9415338323
 H   -0.8863429952   -2.3612119876    1.0479389341
 H   -2.8845244249   -3.5755045234    0.7325857606
 H   -3.5711390259   -1.9604403930    0.4391313058
 H   -3.7609336382   -3.5695223246   -1.6351424717
 H    0.1011898955   -2.5489345991   -1.3819069391