11

 O   -0.0564354910   -0.0712828458    0.0041204573
 C    0.0242646831    1.1288649787    0.0087225379
 N   -1.1458488368    1.9270613998    0.0290207584
 N   -1.2078652307    3.2530109369    0.0362400826
 N   -0.1170921487    3.9105169794    0.0240291187
 C    1.0733265188    3.1701236595    0.0037150762
 N    1.1926272315    1.8743167160   -0.0041624390
 C    2.2484313884    3.9793087977   -0.0089411969
 C    3.2322761852    4.6698663940   -0.0194778193
 H   -2.0444570178    1.4597915187    0.0394408320
 H    4.1064021781    5.2749985551   -0.0288782379