16

 C    0.0477817738    1.4753646519   -0.0200515121
 C    1.3153583457    0.6889535450    0.0341554278
 N   -0.0220896987    0.0126652098   -0.0317238100
 C   -0.1886038940   -0.5964230149   -1.3837122867
 C    1.0840080412   -0.2548963668   -2.1116531887
 N    1.5819633711   -0.4821750678   -3.3159172452
 N    2.8098686866    0.0885619339   -3.2452822711
 C    3.0869767539    0.6616049358   -2.0361197613
 C    1.9634381980    0.4563102192   -1.2721038505
 H   -0.3479690937    1.9387653929    0.8804288205
 H   -0.1554372279    2.0177785442   -0.9419227452
 H    1.8628090977    0.5869730012    0.9660895141
 H   -0.3212891079   -1.6775425232   -1.2650919793
 H   -1.0914909554   -0.2048116490   -1.8640197441
 H    3.4161955197    0.0318110614   -4.0458841513
 H    4.0310339298    1.1487082463   -1.8511868269