18

 N   -0.0245563927    1.2266030428    0.0340563626
 C   -0.2053918885   -0.0034933749    0.2497490791
 O   -1.0024097403   -0.7186768536   -0.5740845199
 C   -1.1149761131   -2.0939049033   -0.2682775885
 C   -1.9237755640   -2.7221533315    0.8262026344
 C   -3.3605192004   -2.1767266074    1.0415531190
 C   -3.7678122731   -1.0258243436    0.1543783782
 C   -3.6901858682   -2.4145062052   -0.4187755062
 C   -2.2574053158   -2.9549185510   -0.6720196418
 H    0.5963843463    1.6134823715    0.7420163190
 H    0.2203455494   -0.5975361385    1.0687056124
 H   -0.1634134339   -2.6090594601   -0.4077531813
 H   -1.4675891368   -3.4099421755    1.5284986449
 H   -3.9383649677   -2.4652864624    1.9094498583
 H   -4.7886102862   -0.6992296488    0.3355042250
 H   -3.0924008079   -0.2381336442   -0.1432880097
 H   -4.5510927756   -2.9222615207   -0.8326023898
 H   -2.0886662014   -3.8425451735   -1.2695975757