15

 O   -0.0450285955    1.3585893025    0.0096109119
 C    0.0342563907    0.0154897184    0.0023596551
 C    1.2551087403   -0.6059756504   -0.0078685537
 C    1.5973246442   -1.9813930562   -0.0168464879
 C    0.7777510712   -3.0721958570   -0.0182465838
 C   -0.6425872161   -3.0717443687   -0.0108214666
 C   -1.5186919354   -2.0294707177   -0.0001925139
 C   -1.3334339473   -0.5837196181    0.0075802640
 O   -2.3025440614    0.1649234108    0.0182856156
 H    0.8440023115    1.7336122981    0.0060724233
 H    2.1123056840    0.0686263157   -0.0092780444
 H    2.6662306581   -2.1779112452   -0.0236024266
 H    1.2547084503   -4.0474372609   -0.0259593994
 H   -1.0981379017   -4.0598279288   -0.0141165431
 H   -2.5780826829   -2.2726224626    0.0040226694