20

 O   -0.0953984218    1.4428351830   -0.0014177917
 C    0.0017513757    0.0244240319    0.0042631790
 C    0.7456991665   -0.4985417689    1.2392109868
 C    0.7431480844   -2.0348655350    1.2921672550
 C   -0.6842224619   -2.6052625159    1.2334382990
 O   -1.3978936985   -2.3729195452    2.4460096246
 C   -1.4379012786   -2.0606102750    0.0087884711
 C   -1.4234868270   -0.5247737770   -0.0433004342
 H    0.7951936726    1.8022647293    0.0652266325
 H    0.5369865169   -0.3226840748   -0.8979905687
 H    1.7767695382   -0.1221816430    1.2448766584
 H    0.2630067972   -0.0814817749    2.1336161909
 H    1.3154752586   -2.4311711620    0.4429245700
 H    1.2339080505   -2.3889306827    2.2040164549
 H   -0.6281659671   -3.6968212345    1.1622047024
 H   -1.5383114267   -1.4255353153    2.5393751096
 H   -0.9678185836   -2.4609052538   -0.8990924245
 H   -2.4671165708   -2.4324883655    0.0269825538
 H   -1.9810485175   -0.1014824370    0.8038385940
 H   -1.9256564969   -0.1616422635   -0.9452958329