19

 C    0.0089514929    1.6038494546   -0.1657368806
 O    1.4740234641    1.4558914886    0.0511578144
 C    1.1321948060    0.2588977914    0.8517962358
 C    1.3025312939   -1.2918547067    0.9041414746
 C   -0.3148047346   -1.2294625150    0.9548046427
 C   -0.8160494357   -0.9243291861    2.3604275172
 O   -0.4192776542    0.3725225179    2.7706602025
 C    0.8845804000    0.7123023954    2.3192841209
 C   -0.1071645448    0.0620962019    0.0643676559
 H   -0.4365048641    2.2476278068    0.5972471108
 H   -0.2057431819    1.9770890200   -1.1693033694
 H    1.6474152961   -1.7540140335   -0.0219368204
 H    1.8165307891   -1.7283930327    1.7667282044
 H   -0.8451354522   -2.0749300537    0.5118513786
 H   -1.9106009427   -0.9321384311    2.3927333580
 H   -0.4527038457   -1.6917905683    3.0649544959
 H    1.6521335348    0.2678686921    2.9744502973
 H    0.9659990371    1.7980625777    2.3906683091
 H    0.2088601520   -0.3424102491   -0.9023395877