12

 N   -0.2573184695   -0.9011109269   -0.8528352318
 C   -0.0932124607    0.0932194862   -0.2898441327
 C    0.0914160623    1.3715531968    0.4032397883
 N    1.3850160874    1.9697011529    0.1356809255
 C    1.9836634831    2.2677674199   -1.0441488313
 C    3.1649332723    2.8597391158   -0.6735975793
 N    3.2284057603    2.8968161042    0.6877460170
 N    2.1548595293    2.3588536338    1.1795240363
 H   -0.7166190323    2.0528857769    0.1139326378
 H    0.0394226231    1.2252751494    1.4852871510
 H    1.5414439147    2.0305636493   -1.9970261505
 H    3.9582269800    3.2498964516   -1.2897468604