23

 C   -0.0455084351    1.5705821024    0.0816946558
 C   -0.0164880473    0.0443561820   -0.0333696385
 C    0.7610770847   -0.4530595160   -1.2585472204
 C    0.7762912195   -1.9734809045   -1.3709987253
 C   -0.5165539443   -2.7382511344   -1.7710834946
 C    0.3522142426   -3.7046285065   -2.6152084008
 C    1.5289034410   -2.6773325666   -2.5657366944
 C    1.6151683348   -1.8373022627   -3.8098919037
 O    2.6424066719   -1.4927226753   -4.3383263667
 H    0.9673877394    1.9812468929    0.1580366245
 H   -0.5193661023    2.0249020843   -0.7954878247
 H   -0.6035579257    1.8935904901    0.9659908497
 H    0.4301942250   -0.3848085116    0.8734994268
 H   -1.0442506780   -0.3394808942   -0.0750498889
 H    0.3233888899   -0.0135511486   -2.1651958402
 H    1.7943706252   -0.0826685482   -1.2107853416
 H    1.1756123067   -2.3968523401   -0.4419637529
 H   -1.1200377856   -3.1701888657   -0.9695938218
 H   -1.1699816358   -2.1225900811   -2.3981648254
 H    0.6083997880   -4.6192059404   -2.0758877652
 H   -0.0189833297   -3.9812616963   -3.6057762396
 H    2.5270802736   -3.0592566625   -2.3427352631
 H    0.6299150015   -1.5421788973   -4.2442365191