18

 C    0.0525653455    1.5057708685    0.0543177598
 C   -0.1136766781    0.0088293356   -0.2068880830
 C   -1.5507589809   -0.4610508890   -0.1183309497
 O   -2.4922521908    0.3024168666   -0.1022044018
 C   -1.8442657486   -1.9696197999   -0.0220113421
 O   -3.2156845579   -2.1832137755    0.0973377411
 C   -1.2895585072   -2.7272200081   -1.2569543868
 C   -1.5123990582   -4.1668126711   -1.1557650449
 N   -1.6641237795   -5.3088775138   -1.0736846689
 H    1.0988380503    1.7995239513   -0.0611715179
 H   -0.5536078673    2.0900433171   -0.6411184154
 H   -0.2679628894    1.7638923800    1.0671050107
 H    0.2515509054   -0.2457894047   -1.2125139954
 H    0.4946035031   -0.5930854316    0.4801483043
 H   -1.3178109373   -2.3480711439    0.8699053445
 H   -3.6179713088   -1.2987884891    0.0625418247
 H   -1.7884492493   -2.3525045304   -2.1573895991
 H   -0.2142315811   -2.5526292619   -1.3684759400