21

 C   -0.0643759230    1.5217937591    0.0020572477
 C    0.0396413797    0.0099413303    0.1376652652
 O    0.1018637771   -0.5149878574    1.2318813948
 C    0.0575829665   -0.7380298291   -1.1499282320
 C    0.8841070560   -2.0037080650   -1.4101523018
 C    1.4722276469   -2.7892016180   -0.2436519234
 C    0.2739471435   -3.3500054410    0.5741472266
 C   -1.0267115510   -2.9556561379   -0.1821237181
 C   -0.6057369538   -2.1028721172   -1.3734048548
 H    0.7789093916    1.9104936327   -0.5805095638
 H   -0.9769785697    1.7937249672   -0.5408330876
 H   -0.0724515549    1.9820321089    0.9906262707
 H   -0.0070588436   -0.0883008472   -2.0181692230
 H    1.4267949215   -2.0036080119   -2.3496356090
 H    2.0845927210   -3.5988251075   -0.6548943646
 H    2.1301156954   -2.1788430398    0.3810950337
 H    0.3487042055   -4.4373118732    0.6702289436
 H    0.2704896977   -2.9275713265    1.5765589668
 H   -1.5456775336   -3.8406645487   -0.5655767308
 H   -1.7283747355   -2.4359362413    0.4760769196
 H   -1.1890089373   -2.1777118063   -2.2851868496