17

 N   -0.1083110539   -1.2061938729   -0.0475086579
 C   -0.0796525499   -0.0506934498   -0.0139826028
 C    0.0036816105    1.4027402060    0.0268256424
 C   -0.1721574937    2.1016976848    1.3837464946
 C    0.9406049881    1.8016660820    2.3019391860
 N    1.1527841430    2.8317247413    1.2614093300
 C    1.3974896453    2.0717026218    0.0097336966
 C    2.7223045938    1.5167349796   -0.3949083529
 C    2.0962690194    2.6701736261   -1.1601927154
 H   -0.6507771071    1.8275458696   -0.7385840366
 H   -1.0812244198    2.6076712954    1.6873901526
 H    0.8802195932    2.2190244848    3.3017162794
 H    1.4732347299    0.8572371363    2.2256614022
 H    3.5684477058    1.7363528100    0.2474708190
 H    2.7453424603    0.5372848212   -0.8610199225
 H    1.7018478060    2.4786989747   -2.1527704854
 H    2.5201644389    3.6582024892   -1.0179124793