21

 C   -0.9963463058    1.1410519881   -0.0366759355
 C    0.0107072192    0.0064767552   -0.0894910853
 N    1.3207799614    0.3447682929   -0.7000826911
 C    2.0153744163   -0.5661414833    0.2291262131
 C    3.3234679529   -0.1137722978    0.7027431646
 N    4.3563900767    0.2260567120    1.0951696204
 C    0.7744425235   -0.4758672103    1.1945117590
 C    0.9380396703    0.6027126744    2.2636386850
 C    0.3144438981   -1.7964980811    1.7974725276
 H   -0.5682154644    2.0343232858    0.4235317485
 H   -1.3189551266    1.4069128182   -1.0492554217
 H   -1.8882327901    0.8449170563    0.5264742195
 H   -0.4572044203   -0.8696509263   -0.5674999765
 H    1.4318888284    0.1244104791   -1.6844263204
 H    2.1306120115   -1.5942040283   -0.1451633808
 H    1.2999667809    1.5417853320    1.8383609606
 H   -0.0164226726    0.7954451627    2.7641060273
 H    1.6570463357    0.2818546381    3.0240676114
 H    1.0248992304   -2.1542747682    2.5508567609
 H   -0.6561743155   -1.6764427500    2.2916007847
 H    0.2079543301   -2.5752958494    1.0354639388