20

 C    0.4183570860    1.6261917632   -1.1112768359
 O   -0.1689453810    0.3473113280   -1.0098259072
 C    0.7515080010   -0.7258982798   -0.8710970639
 C    1.3083425225   -0.8263031754    0.5503074579
 C    0.0111554311   -2.0071822382   -1.2866287885
 C   -1.4264507238   -2.1605174047   -0.9101426621
 N   -1.0536885455   -1.9111321496   -2.3085834884
 C    0.8614795150   -3.1684638900   -1.3777751380
 C    1.5976175508   -4.1176428209   -1.4336296665
 H    0.9252628217    1.9278995004   -0.1845419428
 H    1.1450118587    1.6721182147   -1.9362709995
 H   -0.3897621158    2.3337427339   -1.3112971041
 H    1.5827773975   -0.5790821424   -1.5800978421
 H    1.8927729616    0.0603549760    0.8114507493
 H    0.4895465586   -0.9285493756    1.2685343911
 H    1.9609282971   -1.6984894796    0.6374840015
 H   -1.8156593959   -3.1529428159   -0.7059219693
 H   -1.8738874808   -1.3489424244   -0.3445708106
 H   -1.1869861544   -0.9177801747   -2.4935409745
 H    2.2334218156   -4.9658760453   -1.4946830565