12

 O   -0.1213638300    0.0652667389   -0.2690052746
 C   -0.0426351156    1.2162837398   -0.0121253697
 O   -1.0243295743    2.0827571431    0.3719310848
 C   -0.0943011640    3.1998004237    0.5202697600
 C    1.0721834550    2.3088900568    0.0216797457
 C    2.1995095467    2.0860722732    0.8877807536
 C    3.1365920819    1.8955175656    1.6256821685
 C    4.1972694235    1.6874957808    2.4595361107
 N    5.0994681605    1.5163311959    3.1707161089
 H   -0.3717036355    4.0291564021   -0.1309599256
 H   -0.0277978431    3.5156847550    1.5615629740
 H    1.3983337349    2.5541949650   -0.9940262161