19

 C   -0.1839150079    1.3576490737   -0.1373335772
 O    0.1946102560    0.0113942360    0.0626554512
 C    0.6993780440   -0.6097668437   -1.1168643022
 C    1.2887871974   -1.8965976077   -0.7415506277
 C    1.7930756324   -2.9496483438   -0.4538366399
 C    2.3930779092   -4.2258906642   -0.0958523093
 C   -0.3332711384   -0.7722244575   -2.1553488089
 C   -1.1802349971   -0.8845460037   -3.0034154213
 C   -2.2028812791   -1.0386940646   -4.0274219905
 H    0.6648863042    1.9693907741   -0.4825973310
 H   -0.9996536615    1.4506193946   -0.8669350785
 H   -0.5220468875    1.7350556357    0.8300908215
 H    1.4995677871    0.0295805954   -1.5341002085
 H    3.4673769112   -4.2361290285   -0.3098450241
 H    2.2653112101   -4.4321595133    0.9723865583
 H    1.9333276786   -5.0509147627   -0.6508117200
 H   -2.0543991270   -1.9640735663   -4.5946672025
 H   -3.2031520353   -1.0803700005   -3.5828441031
 H   -2.1879148966   -0.2056217630   -4.7385743963