13

 C    0.0114930263    1.4062708665    0.0044747182
 N   -0.0036846345   -0.0448420180    0.0291036197
 N    0.0742333206   -0.7371693933   -1.1101965564
 C    0.0930402590   -2.0223031536   -0.7482288258
 C    0.0312537468   -2.1701190262    0.6441988858
 C   -0.0286411163   -0.8680983703    1.1223200753
 C   -0.1100344939   -0.3739829045    2.4444630916
 N   -0.1781608809    0.0459928111    3.5221326214
 H    1.0320880289    1.7790947725   -0.1226755818
 H   -0.6014914803    1.7450079640   -0.8311355406
 H   -0.3961321324    1.7845465585    0.9426310277
 H    0.1445743612   -2.7906175100   -1.5046513949
 H    0.0210696055   -3.0724845166    1.2321875897