17

 C   -0.1060220179    1.4890703043    0.1121470682
 C   -0.0152783563   -0.0129143807   -0.0667499317
 O   -1.3372609488   -0.5530730401    0.1301829820
 C   -1.4507498884   -1.8660917336    0.0110002534
 N   -0.4569102107   -2.6776415956   -0.2678732900
 O   -1.0954396478   -3.9354518387   -0.2798696257
 C   -2.3875649711   -3.7142459414   -0.0068830090
 C   -3.3004055238   -4.8855161804    0.0435280962
 N   -2.6760755789   -2.4623617963    0.1832560656
 H    0.8812462019    1.9379889688   -0.0300341482
 H   -0.7940446360    1.9262923310   -0.6164961620
 H   -0.4599431041    1.7401577870    1.1157178190
 H    0.3327230849   -0.2875186910   -1.0687962338
 H    0.6657516891   -0.4730558138    0.6578721737
 H   -2.9727306689   -5.5952911678    0.8089864941
 H   -4.3096044988   -4.5452149122    0.2736176412
 H   -3.3039202545   -5.4114495196   -0.9158678331