18

 O    0.3748280438    0.2827938568    1.0031818061
 C    0.1757031232    1.1879314977    0.2216630557
 N    1.0893518009    1.6774131689   -0.6594524204
 C    2.4522400155    1.1774390737   -0.7393117677
 C    3.4300656340    1.9850829346    0.1230514019
 N    4.7723295071    1.4381453664   -0.0039375471
 C    5.6134882257    2.0081012267   -1.0529413396
 C    5.8709363836    2.3140910405    0.3811230734
 H   -0.7972645499    1.7129977420    0.1371571635
 H    0.8215477625    2.4636735476   -1.2292265955
 H    2.4439946459    0.1403276221   -0.3989674117
 H    2.7752448622    1.1899523946   -1.7857957892
 H    3.3820903259    3.0543274062   -0.1600645441
 H    3.1210282860    1.9096353629    1.1711402812
 H    6.2428515268    1.3060384781   -1.5919108667
 H    5.1982640371    2.8103096459   -1.6626103596
 H    5.6266082191    3.3182772634    0.7248051153
 H    6.6915992404    1.8388054620    0.9105513447