18

 N   -0.0163704402    1.5108020698   -0.1810702684
 C   -0.0396554722    0.0721349874   -0.0392450250
 C    0.8931850876   -0.8224941172   -0.9204232572
 O    1.6056946136   -1.2699170829    0.2757044503
 C    0.8689567177   -0.4589703257    1.0985498773
 O    0.9884595149   -0.3118538822    2.2720527651
 C   -1.4711500436   -0.4168483636    0.0399380030
 C   -1.8567826681   -1.6753359101    0.7787140339
 C   -2.2472491112   -0.3249265939    1.3257541608
 H    0.9135471810    1.8581168645   -0.3922315690
 H   -0.6383414041    1.8108688110   -0.9245207514
 H    0.4300927244   -1.6684542212   -1.4321235741
 H    1.5660592480   -0.2796880694   -1.5894012040
 H   -2.0245988708   -0.2193091923   -0.8768045084
 H   -2.6246626362   -2.2999234968    0.3363322257
 H   -1.0863376970   -2.2287875043    1.3043707202
 H   -1.7114521731    0.0319825606    2.1975202245
 H   -3.2872218609   -0.0236795737    1.2741597066