17

 O   -0.7872595216    1.0289760953    0.9330402489
 C   -0.1048724899    1.0728738896   -0.0592047312
 C    1.2742495280    1.7130557598   -0.0927289304
 C    1.4381297148    2.7591408718   -1.2069030303
 C    2.7187530834    3.6030345133   -1.1489578724
 C    2.9108396435    3.9864425362   -2.6216168451
 O    2.3602330434    2.8905501389   -3.3765474103
 C    1.5139223911    2.1552257663   -2.6126997377
 O    0.9475932452    1.1859417701   -3.0326694275
 H   -0.4420879368    0.6415625019   -1.0221706939
 H    1.4554208839    2.1654897291    0.8865057215
 H    2.0129442134    0.9136539962   -0.2417410403
 H    0.5665933344    3.4296936057   -1.2071971936
 H    2.6428653393    4.4730999719   -0.4941216511
 H    3.5575126759    2.9886123947   -0.8042015043
 H    2.3651104789    4.9002437227   -2.8844186823
 H    3.9544711032    4.1027177165   -2.9193390401