16

 O   -0.3752980230   -0.1867517881    0.1066599651
 C   -0.2844118308    1.0182968724    0.0272444466
 N    0.8862564923    1.7192472276   -0.0485117809
 C    0.9030000474    3.1737591366   -0.0969014332
 C    1.3993838547    3.7882976724    1.1365994502
 C    1.8195571378    4.2806539806    2.1486015599
 C    2.1594486363    1.0037671961   -0.0021644943
 C    2.9707066241    1.2205073791   -1.1984794145
 C    3.6411219777    1.4187994008   -2.1756719089
 H   -1.1642088650    1.6902149497    0.0023083641
 H    1.5210177523    3.4968284690   -0.9442436568
 H   -0.1179521254    3.5155956632   -0.2998685336
 H    2.1835640100    4.7213946645    3.0439795824
 H    2.7209020249    1.3149708171    0.8883576963
 H    1.9052769486   -0.0539739545    0.1109828581
 H    4.2353370781    1.5747265934   -3.0421379004