17

 C   -0.1296325798    1.4710841937   -0.1335066490
 C   -0.0275779866   -0.0436302998    0.0443827469
 C   -1.3805127393   -0.6853122123    0.3426049908
 C    0.8803749357   -0.7668720209   -1.0106831146
 O    1.8379782984   -1.1104353108    0.0572751730
 C    1.0839297616   -0.4732748849    1.0113308080
 O    1.3284647560   -0.3556396934    2.1683824837
 C    0.3736788779   -1.9277811653   -1.7076068326
 C   -0.0580222023   -2.8760962586   -2.3060849806
 H    0.8443647696    1.9217045869   -0.3476341986
 H   -0.8105675756    1.7158638591   -0.9552120526
 H   -0.5185821471    1.9299191489    0.7799949808
 H   -2.0892568558   -0.4786754863   -0.4653962820
 H   -1.3006534494   -1.7690045155    0.4545083831
 H   -1.7855283337   -0.2721846589    1.2707733354
 H    1.3626485396   -0.0756672233   -1.7080888466
 H   -0.4315981894   -3.7189449286   -2.8342904852