19

 O    0.1914975755    1.3820853669    0.1075743075
 C    0.1165670976   -0.0233208741    0.0164378306
 C   -1.3168404563   -0.5790949118   -0.0670545734
 C   -1.3033884790   -0.3700144539   -1.6244831946
 C   -2.0591953118   -1.6974999914   -1.7870566824
 C   -1.2749094638   -2.1045973823   -0.5136933206
 C    0.1864666866   -2.1532029464   -1.0320314779
 O    0.4621266096   -3.0883411352   -2.0513181414
 C    0.2513298206   -0.6521587223   -1.4013619768
 H   -0.4558871736    1.7635620588   -0.4952425052
 H    0.7941690960   -0.3994003196    0.7886768935
 H   -2.1283847976   -0.2513641978    0.5833852992
 H   -1.5994651848    0.5481689853   -2.1313535434
 H   -3.1245311964   -1.5600320323   -1.5811614324
 H   -1.9589628414   -2.3007953292   -2.6965544634
 H   -1.6116297435   -2.9131689395    0.1339554788
 H    0.8939385098   -2.4003676866   -0.2355702623
 H   -0.0565497877   -2.8615211465   -2.8287615804
 H    1.0236867703   -0.3324099821   -2.1003926454