20

 C   -0.0256999354    1.5765704672    0.0000837394
 C    0.0128078194    0.0407413373    0.0022206262
 C    0.6663559299   -0.5147662334   -1.2738502581
 C    0.9624516468   -2.0122235349   -1.1545829509
 C    1.9622704893   -2.2676741744   -0.0029804113
 C    1.5801596476   -1.4916744779    1.2462944963
 C    0.7092374553   -0.4855734282    1.2341693449
 C    2.0734892844   -3.7014203513    0.2885532554
 N    2.1584336035   -4.8313478947    0.5165567451
 H    0.9872061938    1.9937219424   -0.0118071127
 H   -0.5563595082    1.9518931014   -0.8809139149
 H   -0.5359664533    1.9612820054    0.8890472480
 H   -1.0304933498   -0.3115174228    0.0353600013
 H    0.0191425127   -0.3283629626   -2.1374476183
 H    1.6030603275    0.0277013215   -1.4617163934
 H    0.0370685150   -2.5606879041   -0.9461672262
 H    1.3683287568   -2.4109256858   -2.0887849587
 H    2.9630528756   -1.9432939352   -0.3268866189
 H    2.0554554164   -1.8024375732    2.1716690931
 H    0.4774021627    0.0167403032    2.1715445838