15

 O    0.0735839141    1.4296072219   -0.0061293071
 C   -0.0212660357    0.0649496415    0.0183682568
 C    0.6293946478   -0.8159716385   -1.0315114566
 O   -0.4475798383   -1.8000383450   -0.9050759481
 C   -1.1654204090   -0.9440993129   -0.0122176327
 C   -0.3181353362   -0.8010412083    1.2490068740
 O    0.5141422332   -1.8443879082    1.6550343773
 C   -0.9085496041   -0.0440395033    2.3179078012
 C   -1.3754745705    0.6721640639    3.1656672449
 H   -0.0971188141    1.7582338586    0.8871903339
 H    0.6188664699   -0.3706484329   -2.0304298537
 H    1.6119040648   -1.2386844099   -0.8018330422
 H   -2.2476385655   -0.9267782986   -0.0612292508
 H    0.3888512999   -2.5438883969    0.9974478337
 H   -1.8124797364    1.2598942985    3.9353277094