19

 C    0.0045227582    1.5939209805   -0.0348582986
 C    0.0389759482    0.0553199415   -0.0619467609
 C    0.7077495603   -0.4910026575   -1.2344918743
 C    1.2629263585   -0.9413981853   -2.2079501447
 C    1.9284051560   -1.4892205885   -3.3746156276
 O    2.0508188566   -2.6761096613   -3.5654091857
 C    2.4557877863   -0.4251177577   -4.3320254445
 O    3.0798207952   -1.0226684076   -5.4239328693
 C    3.5877721419   -0.0845478470   -6.3441383036
 H    1.0169793360    2.0061011809   -0.0373870924
 H   -0.5239734071    1.9869112022   -0.9073361638
 H   -0.5080800738    1.9440382648    0.8653987655
 H    0.5409397164   -0.3240014820    0.8374351470
 H   -0.9830678127   -0.3429828735   -0.0229475473
 H    1.6040965657    0.2128081003   -4.6337865663
 H    3.1418079611    0.2319624907   -3.7654498417
 H    4.0529633204   -0.6484956451   -7.1554843002
 H    2.7913273109    0.5514154524   -6.7620766658
 H    4.3447780120    0.5707686021   -5.8848468658