20

 C   -0.4074007500    1.4648743789   -0.1817344327
 C    0.1272560249    0.0467267825    0.0622791718
 C    0.9294098922   -0.4985210645   -1.0952526885
 N    0.2204204950   -0.9716314911   -2.3323382235
 C    0.9823261773   -1.9248920964   -1.4870600894
 C    2.3537366843   -2.2212506332   -2.1070532483
 O    2.2618539375   -2.6608418805   -3.4520716252
 C    3.0637917741   -0.8781686379   -1.9782947671
 C    2.2823309124    0.0597457141   -1.4441706565
 H    0.4077339221    2.1778721553   -0.3409726762
 H   -1.0508164200    1.4966949491   -1.0667516751
 H   -0.9912981348    1.8141860515    0.6748530902
 H    0.7539796739    0.0387040023    0.9629666350
 H   -0.7107436985   -0.6324405988    0.2647834958
 H   -0.7716196087   -1.0796693599   -2.1219338126
 H    0.4413066937   -2.6981689959   -0.9526444730
 H    2.8767047318   -3.0189520493   -1.5673223377
 H    1.6284731174   -2.0550611202   -3.8632143742
 H    4.0622503806   -0.7301751879   -2.3735193040
 H    2.5454040349    1.1013084219   -1.2982329987