17

 O   -0.0457985502    1.4756850417    0.2011524953
 C    0.0258662815    0.0627753333    0.0168356027
 C   -1.4200037177   -0.4371095404   -0.0572948149
 O   -2.1256558894    0.0316931988    1.0838294237
 C   -2.1362115052   -0.1246476041   -1.3501769784
 C   -2.5966029382   -1.2160671411   -1.9628545984
 C   -2.2724198964   -2.4898720021   -1.2275005428
 C   -1.4497555806   -1.9943345485   -0.0354128945
 O   -0.8842348804   -2.6710365382    0.7800929952
 H    0.7867790952    1.7803627044    0.5720402903
 H    0.5731553601   -0.1908929489   -0.9016138697
 H    0.5089098389   -0.4314917899    0.8692178060
 H   -1.7749592323    0.9183698068    1.2480490110
 H   -2.2635752206    0.8943336057   -1.6959298132
 H   -3.1547887341   -1.2145955024   -2.8925153508
 H   -3.1620731867   -3.0313835940   -0.8797251008
 H   -1.6859598639   -3.2097623410   -1.8118769507