15

 C   -0.1533153087    1.2417283773   -0.4077540242
 C    1.2698489599    1.0419782475    0.0155722427
 N    0.2990749715   -0.0217417712    0.1572705071
 C   -0.1066313350   -0.4979959459    1.3867514251
 C   -1.4573615936   -0.8355595075    1.6245861913
 N   -1.8528952230   -1.3537580810    2.7707834257
 N   -0.9430178669   -1.5751945177    3.7308094843
 C    0.3146073992   -1.2439168216    3.4617991935
 N    0.7979342831   -0.7034617931    2.3368702213
 H   -0.7787952663    1.8755170331    0.2164947026
 H   -0.4212708259    1.2179958905   -1.4595643182
 H    2.0384032319    0.8784553090   -0.7333277821
 H    1.6046665076    1.5281755648    0.9272933677
 H   -2.2199115427   -0.6780747779    0.8675840464
 H    1.0290826688   -1.4311817763    4.2592067167