18

 C    0.0495546285    1.4876695605   -0.1869829611
 C    1.3047444881    0.7022302319   -0.0348753960
 C    2.1261885278    0.7213217991    1.2473248022
 C    1.3916143146    0.0478383618    2.4013196656
 C   -0.1175855593    0.3300916682    2.6191305289
 O   -0.2416934820   -0.9578358388    3.3259699926
 C    0.5792948988   -1.2548674917    2.1365383214
 C   -0.4243975365   -0.4361626235    1.2841744033
 N   -0.0037581020    0.0301342362   -0.0181693560
 H   -0.2677276720    2.1062418470    0.6502281335
 H   -0.2470027692    1.8613634793   -1.1629714614
 H    1.8710177651    0.5028996252   -0.9416613669
 H    3.0699112060    0.1908158154    1.0754031013
 H    2.3997340616    1.7468635281    1.5256153349
 H    1.9668226528    0.0175505603    3.3291743050
 H   -0.6096347902    1.1934853751    3.0691331310
 H    0.9285225962   -2.2793967806    2.0038990792
 H   -1.4326825084   -0.8520377235    1.2480600726