19

 O    0.0556562947    1.4393664468    0.0813265194
 C    0.1179908532    0.0390118473    0.0305464431
 C    0.6890167001   -0.6286989507    1.3023449923
 C    0.1225313401   -2.0572067616    1.2426941171
 C   -1.3037577842   -1.8153374258    0.7900065660
 C   -2.4114444498   -2.7659220456    0.8635800497
 O   -2.2927593040   -1.7116972029    1.8370947826
 C   -1.3002378341   -0.6069132844   -0.1655369606
 O   -2.3279509781    0.3112186459    0.1581679540
 H   -0.8720198806    1.6417406843    0.2786871533
 H    0.7467225674   -0.2415604069   -0.8255031826
 H    1.7794829525   -0.5874991646    1.3461926407
 H    0.2966440886   -0.1061155718    2.1822160703
 H    0.6547247167   -2.6546815965    0.4913298763
 H    0.1560684874   -2.5986319200    2.1907123045
 H   -3.2513361707   -2.6666881692    0.1774777524
 H   -2.2461919329   -3.7673515199    1.2572607849
 H   -1.4434225767   -0.9209898547   -1.2053749770
 H   -2.7128396896   -0.0099297795    0.9901324536