25

 C    0.2336732135    1.0060286429    0.8971157616
 C    0.0356016795   -0.5148043995    0.8616730146
 C   -1.3503206191   -0.9028999695    0.3804407446
 C   -1.7081303790   -1.0924752420   -1.0816242605
 C   -0.7124287170   -0.9555355714   -2.2155078034
 C   -1.7055250307   -2.2824520235   -0.1449933370
 C   -0.7050586114   -3.4142669964   -0.2773857562
 C   -0.6538448667   -4.2774996022    0.9858069715
 O   -0.9778753501   -4.2133320615   -1.4321870542
 H    1.2268976034    1.2685979468    1.2748323155
 H    0.1260468123    1.4411996404   -0.1016912898
 H   -0.5074955536    1.4844412852    1.5469806476
 H    0.8107581095   -0.9628949457    0.2322246845
 H    0.1942730529   -0.9235469143    1.8687680987
 H   -2.1328571476   -0.4405746661    0.9799660477
 H   -2.7004121704   -0.7387822494   -1.3525738567
 H    0.3081126537   -1.2060925161   -1.9173421661
 H   -0.9774248693   -1.6228263899   -3.0413914016
 H   -0.6985131280    0.0711994388   -2.5973443759
 H   -2.6899909535   -2.6457035428    0.1529917347
 H    0.2953911895   -3.0152308964   -0.4666979070
 H   -1.6436048018   -4.6950209886    1.2094443672
 H    0.0439341742   -5.1084278774    0.8506244650
 H   -0.3377226740   -3.6885057711    1.8529131802
 H   -1.8855658665   -4.5280212902   -1.3570932451