13

 C    0.5804349884    1.3157227854    0.0422004860
 C    0.3719076658   -0.1743687525    0.0255434834
 O    0.3482547429   -0.8875311679    0.9979802031
 C    0.1689714168   -0.8036288091   -1.3729498423
 O    0.1324519973   -0.1291456635   -2.3773933950
 C    0.0201869339   -2.2432077735   -1.3884468055
 C   -0.0940995558   -3.4461021258   -1.4563552841
 C   -0.2615313699   -4.8800023871   -1.5212526300
 O    0.6495620262   -5.6541571075   -1.6867427707
 H    1.4676311875    1.5750473016   -0.5450074683
 H   -0.2630246668    1.8188382242   -0.4410342730
 H    0.6927481337    1.6580022761    1.0708222097
 H   -1.3108903600   -5.2150912403   -1.4041465032