17

 C   -0.1255939291    1.5091853437   -0.3938720437
 C   -0.0154272474    0.0311819355   -0.0941035732
 C    0.9021916021   -0.8203437778   -0.8908002353
 N    1.2002639025   -0.5078760992    0.5208728031
 C   -1.2896551844   -0.6332915686    0.4723652661
 C   -1.7556694988    0.0060560235    1.7046516408
 C   -2.1166453381    0.5358099439    2.7191963648
 C   -2.3535450306   -0.6574320490   -0.5473365029
 N   -3.1655057976   -0.6756177517   -1.3684410787
 H    0.8091653180    1.8832751043   -0.8215550723
 H   -0.9280408855    1.7056818972   -1.1122266436
 H   -0.3427285137    2.0748007467    0.5174600163
 H    0.6615584409   -1.8616122717   -1.0877665231
 H    1.4818645938   -0.3368211656   -1.6721819184
 H    1.9117034140    0.2157330311    0.5856297262
 H   -1.0256042940   -1.6737939127    0.6980545905
 H   -2.4439193620    0.9967520504    3.6186577834