21

 O    0.3010809452    1.1077684590   -0.5667443498
 C    0.0871283513   -0.0685450957    0.1938046450
 C   -1.3449308190   -0.5761830942    0.0970881552
 C   -2.3147916128    0.2284102697    0.9347704671
 O   -2.2913520918    1.5862707261    0.4736556728
 C   -1.9413527900   -1.0775313845   -1.1956014642
 C   -0.9099077386   -1.8412218456   -2.0347359525
 C   -0.7072960078   -2.8361804915   -0.8445267372
 C   -1.7241476037   -2.0361229449   -0.0188633993
 H   -0.4400447979    1.6920397431   -0.3589823536
 H    0.8006800918   -0.8074594143   -0.1787191339
 H    0.3316572234    0.0932983771    1.2587300125
 H   -3.3305065503   -0.1860279767    0.8516892362
 H   -2.0181036835    0.1841124309    1.9934797500
 H   -2.7047589980    2.1439353181    1.1390951685
 H   -2.8673311169   -0.6581972142   -1.5717611197
 H   -1.3503823816   -2.3295355133   -2.9062878574
 H   -0.0430958541   -1.2599100547   -2.3594564848
 H   -1.0784137280   -3.8348932407   -1.0849130637
 H    0.3011560736   -2.9375094213   -0.4318326069
 H   -2.4553711413   -2.4757338425    0.6514572555