13

 O   -0.0115690610    0.1839356216   -0.7693984482
 C   -0.0174630050    1.2344378148   -0.2087792216
 C   -1.1407106187    2.1494164226    0.3043314235
 C   -0.0282566210    3.1570654105    0.8169086243
 C    1.0953484211    2.1797481201    0.2710055050
 C   -0.0558428765    4.4526281044    0.1429298397
 N   -0.0782003167    5.4553628295   -0.4297938636
 C   -0.0088619126    3.3196453391    2.2683466117
 N    0.0073949354    3.4030689818    3.4201996632
 H   -1.7892667236    2.5587370193   -0.4730186066
 H   -1.7539437158    1.7200599214    1.0993505169
 H    1.7434342507    1.7675424642    1.0472284657
 H    1.7090955736    2.6061678709   -0.5251905300