17

 O    0.0519691815    0.0918838087    0.4698477659
 C    0.0194243452    1.2381860643    0.1284495794
 C   -1.2368007055    2.1456729268    0.0270077836
 C   -0.6482829097    3.5073429114    0.3273633801
 C    0.6772226784    3.5025410028    0.1755218429
 C    1.8468886900    4.3097351352    0.6329484502
 C    2.7129898042    3.1623571398    1.2183315912
 O    2.4490083966    1.9909492401    0.4293627692
 C    1.2102374698    2.1588285330   -0.2368852423
 H   -1.6631116394    2.0572943126   -0.9822375969
 H   -2.0135658181    1.8262027721    0.7289216900
 H   -1.2398001947    4.3326765969    0.7066070859
 H    2.3670071037    4.7849156054   -0.2076934081
 H    1.6051621534    5.0771630918    1.3712379246
 H    3.7867871069    3.3623226419    1.1711857766
 H    2.4368905400    2.9787982336    2.2660697576
 H    1.3745246275    2.0587609936   -1.3235885398