17

 C   -0.1371130102    1.5319441250   -0.0514334933
 C   -0.0131228703    0.0468855018    0.0314755225
 C    0.0094737257   -1.0331469213   -1.0471025945
 C    1.0978407123   -1.8774674932   -0.3460123374
 O    0.4352595542   -2.9625534998    0.3545074011
 C   -0.2382027527   -1.9206189027    1.0985045230
 C    0.9220606007   -0.8966680561    0.8594836146
 C   -1.0374019052   -1.0537325812    0.0848955304
 O   -2.3932969761   -0.9426690404   -0.1084030569
 H    0.7859568833    1.9932674097   -0.4201188200
 H   -0.9486005905    1.8122813454   -0.7306236648
 H   -0.3614590100    1.9676630160    0.9289301237
 H   -0.2803108252   -0.9661022586   -2.0879348009
 H    2.0190318674   -2.1705405104   -0.8477452101
 H   -0.6687381624   -2.2381358609    2.0472344028
 H    1.6828771725   -0.6251892940    1.5873065808
 H   -2.6984855037   -1.7193633093   -0.5919269909