11

 N   -0.0253752843    1.3942313846    0.1494108383
 C    0.0297883731    0.0223831812    0.0389984372
 N   -1.0690561806   -0.7078717258    0.0031765656
 O   -0.6498684594   -2.0340037898   -0.0209265488
 C    0.6964436138   -2.0566965608   -0.0148894843
 C    1.2004285958   -0.7939615467    0.0230865539
 C    1.3376353738   -3.3197786935   -0.0431671535
 N    1.8797298973   -4.3417897520   -0.0672593803
 H    0.7171521262    1.8926113730   -0.3178040021
 H   -0.9375891203    1.7807860593   -0.0510166653
 H    2.2343082545   -0.4939240496    0.0484955294