13

 N    0.0071309390    1.4814007438   -0.1434282308
 C   -0.0141244483    0.0985559882   -0.0688355114
 C   -1.0977652333   -0.7745502931   -0.0273846403
 N   -0.5769725376   -2.0475262064   -0.0448742684
 N    0.7640322116   -2.0473234385   -0.0858737375
 C    1.1037403888   -0.7686584267   -0.1028678928
 O    2.3831923622   -0.3386027304   -0.1396049827
 C   -2.4766833223   -0.4986616768    0.0295542675
 N   -3.6096963371   -0.2550037032    0.0831372592
 H    0.8681605938    1.8881854628    0.1943209002
 H   -0.8024410758    1.9403161867    0.2503845188
 H   -1.0802982023   -2.9159718283   -0.0110950160
 H    2.9552228514   -1.1159632982   -0.1430591556