13

 O    0.0825109265    1.3021158738    0.1809989610
 C    0.0708743237   -0.0284159016    0.0123546976
 N    0.0928080543   -0.6771747560   -1.1137031756
 C    0.0670415299   -2.0164028628   -0.7132020752
 C    0.0302435477   -2.1036834163    0.6653964298
 N    0.0021414297   -3.4045714839    1.0177747664
 N    0.0228350253   -4.1943566507   -0.1032659183
 C    0.0605958809   -3.3618996824   -1.1447464838
 N    0.0313812765   -0.8150697354    1.1558713477
 H    0.1108520449    1.6858908861   -0.7050077186
 H   -0.0193308089   -3.8434425806    1.9200537266
 H    0.0811577186   -3.7707826386   -2.1433731811
 H    0.0111647909   -0.4760261216    2.1012413437