14

 N   -0.0482210434    1.4927973555    0.0246380072
 C    0.0631241613    0.0348986621    0.0278432480
 C    0.6213878405   -0.5392601431    1.3169917527
 C   -0.3212011906   -1.2858044894    1.8941835147
 N   -1.5085088483   -1.3039532564    1.1455489865
 C   -1.4085795637   -0.5156244535    0.0257736288
 O   -2.2641774462   -0.2498960318   -0.7777016824
 C    0.7935709856   -0.5046614626   -1.1387417030
 N    1.3965911132   -0.8809031549   -2.0512761576
 H    0.8627833366    1.9158150833   -0.1249308882
 H   -0.6464892550    1.7654454574   -0.7526297509
 H    1.6280899147   -0.3778197865    1.6676384648
 H   -0.2733268332   -1.8480366215    2.8155307569
 H   -2.3747747817   -1.7306891087    1.4303447427