16

 C   -0.0026210626    1.4981596334   -0.0303240225
 N    1.2975445475    0.7920249699    0.0733710525
 C    0.0860394697    0.0301578813    0.0145049661
 C   -0.5174634959   -0.9759299688    0.9992487760
 O   -1.6202722734   -1.1268201438    0.0302097588
 C   -0.5562440170   -0.9623724383   -0.9728826796
 C    0.2498701884   -2.2668119098   -0.7476977429
 O    1.4882330663   -2.0789589474   -0.0491775587
 C    0.2875497866   -2.2715275533    0.7157204946
 H   -0.2818086477    2.0680143778    0.8515378444
 H   -0.2825794877    1.9589848145   -0.9750049483
 H    1.8038843987    0.7717606798   -0.8072632396
 H   -0.8385515971   -0.7459650196    2.0131566106
 H   -0.9146684780   -0.7086889790   -1.9698950182
 H    0.1647723910   -3.1390702380   -1.3854798002
 H    0.2439937213   -3.1508592087    1.3476133569