16

 C   -0.0035680287    1.5304046637    0.0329773061
 C   -0.0509529508    0.0361920327    0.0019273917
 C   -1.1799939411   -0.7031141141    0.1159149326
 C   -1.1235960900   -2.1385598553    0.0698042723
 N   -2.2904843573   -2.8760016292    0.2596158045
 N   -0.0062343100   -2.7914591917   -0.0841794440
 N    1.1131858058   -2.0326291217   -0.1682169984
 C    1.2359545742   -0.6564933735   -0.1532009396
 O    2.3239798824   -0.1055714666   -0.2583553197
 H    0.6454405936    1.8711967909    0.8464888195
 H    0.4466188039    1.9139989478   -0.8887278121
 H   -0.9981374646    1.9644641933    0.1576320473
 H   -2.1455683369   -0.2230800295    0.2526654988
 H   -3.1096923562   -2.4883450059   -0.1870586039
 H   -2.1671747314   -3.8545783479    0.0350979932
 H    1.9702177471   -2.5572416229   -0.2745227185