15

 O   -0.1215944146    1.3210650679   -0.1048510766
 C    0.0343052129   -0.0555490052   -0.0654349320
 C    1.1108548725   -0.7886428379   -0.8474758987
 C    0.7382321624   -2.1931685664   -0.4453945357
 C   -0.7282287462   -2.3174822918   -0.2239705768
 C   -1.2327663422   -0.8897549909    0.0205831214
 C   -0.2784832880   -0.8395844282    1.1902112229
 N    0.1944457786   -2.2541593072    0.9581685683
 H    0.5899223424    1.7203118384    0.4084165257
 H    1.0270373178   -0.6272834176   -1.9271046354
 H    2.1210100648   -0.5114342245   -0.5243296163
 H    1.3362391900   -3.0514092271   -0.7286401108
 H   -1.3289846821   -3.1951059993   -0.4331765627
 H   -2.2267937788   -0.4845858406   -0.0992840195
 H   -0.3686415695   -0.4344630997    2.1895908064