23

 C   -0.1015270596    1.5712779032    0.0400348401
 C    0.0228415312    0.0688909168   -0.0396431410
 C   -0.0107484506   -0.5474908605   -1.2255486320
 C    0.0398049154   -2.0156935232   -1.5624957048
 C   -0.1356198898   -2.9897118512   -0.3848345216
 C    0.9596472962   -2.8618894837    0.6412031884
 C    1.1179370764   -1.7822864757    1.4077497492
 C    2.2337063257   -1.6575661963    2.4092010265
 C    0.1555255320   -0.6087492973    1.3202804852
 H    0.7894332480    2.0203731123    0.4989680776
 H   -0.2420408837    2.0223871568   -0.9457948455
 H   -0.9520906854    1.8635964038    0.6706120893
 H   -0.0979588053    0.0939368068   -2.1028419300
 H   -0.7405668118   -2.2173472791   -2.3102347854
 H    0.9897344759   -2.2343189140   -2.0737713738
 H   -1.1145800464   -2.8035135218    0.0788833811
 H   -0.1698729960   -4.0124717007   -0.7736456591
 H    1.6664964289   -3.6841143839    0.7296946071
 H    2.8644248691   -2.5506196987    2.4258801438
 H    2.8726027612   -0.7927922827    2.1859340641
 H    1.8420631712   -1.4979898787    3.4227725963
 H    0.4599709864    0.1520112156    2.0473642589
 H   -0.8430063490   -0.9322830679    1.6550174058