17

 O   -0.0450602328    1.4119750174    0.0544232880
 C   -0.0173128979    0.0317914552    0.0254821191
 C   -1.2884945600   -0.8790114964    0.0841929017
 C   -0.4045141966   -1.8823720769    0.7794721621
 C   -0.4974920032   -1.8644463718   -0.7520122892
 C    0.5381065034   -0.8061275301   -1.1570882824
 O    1.9001719628   -1.1064117335   -0.9173821585
 C    2.0658754632   -1.2140142109    0.5136395819
 C    0.6984629089   -0.8592020854    1.1008221673
 H    0.8058350082    1.7403611257   -0.2588109063
 H   -2.3448879770   -0.6707460411    0.1423033640
 H   -0.6968442357   -2.7502050145    1.3556373641
 H   -0.8589714780   -2.7117909483   -1.3190336030
 H    0.4241611200   -0.3897801747   -2.1590531057
 H    2.3799237710   -2.2334141442    0.7721376191
 H    2.8596081617   -0.5231623480    0.8286891596
 H    0.6905357619   -0.4708691625    2.1193613283