15

 O   -0.1263981481    1.3119807659    0.2030438979
 N    0.0118382209   -0.0859852017    0.1606881428
 C   -1.1019573589   -0.6446939740   -0.0556819824
 C   -2.5152231972   -0.1849526204   -0.3429411386
 C   -2.8438150742   -1.6580578862   -0.7807564041
 C   -1.4384843387   -2.1085807617   -0.2341697142
 C   -4.0295635340   -2.2828307169   -0.1010669672
 O   -4.9466915138   -2.8261180092   -0.6592099159
 H    0.7799044415    1.6019777272    0.3529975909
 H   -3.0543188500    0.1354807157    0.5564496041
 H   -2.6317850967    0.5877988422   -1.1054982738
 H   -2.9403566142   -1.7729511042   -1.8606281197
 H   -0.8159953444   -2.6838440248   -0.9223293617
 H   -1.5051299410   -2.6547228684    0.7142301034
 H   -3.9997846112   -2.2033710236    1.0135805583