18

 C   -0.0703794958   -1.2079643518   -0.0983190422
 C   -0.0335186762   -0.0068251095   -0.0367496662
 C   -0.0078143887    1.4401676958    0.0178864816
 C   -0.0687378385    2.0791863420    1.4547917185
 C    1.4531041908    1.7753610097    1.5524890454
 C    1.4178743002    2.1064390445    0.0336066184
 C    1.0517069234    3.6017715650    0.0336009682
 C   -0.0809812876    3.5810070411    1.1164394853
 H   -0.1016967353   -2.2677925497   -0.1513780936
 H   -0.7128987677    1.8548149734   -0.7117063643
 H   -0.7812435618    1.7158807372    2.1947709028
 H    2.0612566342    2.4131109331    2.2008685381
 H    1.6593801397    0.7227954474    1.7480773898
 H    2.1958498989    1.7704573170   -0.6512983741
 H    1.8993443456    4.2298033337    0.3216944359
 H    0.6963041390    3.9456494262   -0.9420531149
 H   -1.0461432080    3.9137070834    0.7237090833
 H    0.1567721178    4.1978582715    1.9875760080