21

 C    0.0161478955    1.7040771707    0.2927579348
 C   -0.0795704380    0.1984819474    0.1329894546
 C   -1.4398545021   -0.3353332962   -0.2918389237
 C   -1.8638650771    0.1110539169   -1.7054229655
 C   -3.1195492533   -0.5948444944   -2.1596649360
 O   -4.1339411340   -0.0513574604   -2.5127070291
 C    1.1485404532   -0.5422354279   -0.3765569450
 C    0.7239048383   -0.6652258640    1.0688999764
 O    1.4629291410   -0.0270139608    2.0690165001
 H    0.9726280404    1.9855862156    0.7357778874
 H   -0.0831868443    2.2155493128   -0.6702917139
 H   -0.7766364870    2.0749223846    0.9526210089
 H   -1.4253461113   -1.4325845423   -0.2574774341
 H   -2.2003020834   -0.0129549250    0.4313806930
 H   -2.0321326172    1.1891865675   -1.7627754671
 H   -1.0623259030   -0.1501315744   -2.4119861818
 H   -3.0465790043   -1.7093219917   -2.1404964802
 H    1.0183525756   -1.3978632565   -1.0324227820
 H    2.0358159356    0.0502194519   -0.5751081631
 H    0.2720961061   -1.6088837532    1.3781008271
 H    2.3026453092   -0.4892002404    2.1588655092