17

 C    0.0188212282    1.4115885219   -0.0366500354
 C    0.0007343509   -0.0768695760   -0.0329370246
 O    0.9373750292   -0.8239405971   -0.8131093616
 C    0.1818386686   -2.0182989103   -0.4740923100
 C    0.4716951980   -2.2425268398    1.0338012279
 C   -0.3316384531   -0.9582265937    1.2301480853
 O   -0.8439209705   -0.4161349383    2.3872554363
 C   -1.0779719720   -1.1237884481   -0.0735530744
 O   -2.4211375045   -1.1656685348   -0.3175312643
 H    0.9982830104    1.7884081151    0.2795331101
 H   -0.1921914382    1.8171073436   -1.0314381186
 H   -0.7360600815    1.7881383894    0.6595071851
 H    0.2537235417   -2.8132292859   -1.2128365663
 H   -0.0638458189   -3.1099261419    1.4282159131
 H    1.5285039871   -2.2691534634    1.3176691508
 H   -0.1376502726    0.0544593065    2.8448663221
 H   -2.5804289230   -0.8590039572   -1.2180307555