14

 C   -0.0470937793    1.5330623418    0.0107236902
 C    1.4361392517    1.8764532106   -0.0015909984
 C    2.1706987908    0.7584947811   -0.0146409268
 N    1.3208473950   -0.3626962158   -0.0125591284
 C    1.3523954213   -1.7262084677   -0.0201687431
 N    0.1328473505   -2.2219533481   -0.0111328380
 C   -0.7239980638   -1.1370085835    0.0028607883
 C   -0.0075215504    0.0293517037    0.0022520163
 H   -0.5499924162    1.9425649079    0.8962892863
 H   -0.5667738711    1.9520301296   -0.8606113320
 H    1.8254583748    2.8839435627    0.0001130810
 H    3.2425316892    0.6287032833   -0.0255886832
 H    2.2707982883   -2.2927351346   -0.0319992930
 H   -1.7942319707   -1.2738568810    0.0123632108