12

 O   -0.1530944131    1.4530175142    0.0114279350
 C    0.0376804339    0.0494916708    0.0021403615
 C   -1.3517340894   -0.5747445407    0.0114886152
 C   -1.3227245196   -2.0795343551    0.0030138076
 O   -0.3257894389   -2.7576026614   -0.0098390047
 C   -2.6560682665   -2.7254971398    0.0125325287
 N   -3.7007993025   -3.2207837230    0.0200617089
 H    0.7111197639    1.8748379292    0.0066571622
 H    0.5864643605   -0.2863706077   -0.8892613953
 H    0.6026516295   -0.2958964422    0.8796814928
 H   -1.9189188530   -0.2405112981    0.8907460344
 H   -1.9348313048   -0.2311044863   -0.8536336164