24

 C   -0.5612038914    1.3447945004    0.3016384480
 C    0.3234260554    0.1556793309   -0.0942719648
 C    1.0199167618   -0.4997010868    1.0989409289
 C    2.1852249867    0.3337601409    1.6135543274
 N    0.1072090380   -1.1299650723    2.0751398388
 C    0.9936009817   -1.9957202348    1.2677067398
 C    0.2764001607   -2.9098115746    0.2865361030
 C    2.1389898568   -2.7084913610    1.9611594732
 O    1.5803751160   -3.7357524526    2.7770719053
 H    0.0153504513    2.1607392796    0.7495797365
 H   -1.0766154220    1.7524868458   -0.5734453992
 H   -1.3144050427    1.0252900745    1.0273501315
 H   -0.2932542225   -0.5768516829   -0.6181128361
 H    1.0903908509    0.4795454861   -0.8101317457
 H    1.8656867800    1.3693610287    1.7697536335
 H    2.5796063296   -0.0241543640    2.5665542877
 H    3.0091612903    0.3537636404    0.8908310914
 H    0.4731273401   -1.0378552203    3.0205879635
 H   -0.7004904567   -2.5133776267    0.0104050679
 H    0.8690273462   -3.0605148639   -0.6235332221
 H    0.1202725189   -3.8842365005    0.7573197160
 H    2.8088074722   -3.1352463550    1.1969896898
 H    2.7352338414   -2.0203252557    2.5719544800
 H    2.3030404374   -4.2676441163    3.1227623055