20

 C    0.0167537848    1.4835129973    0.1978147051
 C    0.0725683732   -0.0366358806    0.2052786285
 O    1.0983133548   -0.6717690259    0.3857846029
 N   -1.1195898766   -0.6579365621   -0.0004560567
 C   -2.4812792500   -0.2170730224   -0.3254469591
 C   -2.8573738287   -1.7029135324   -0.5591776393
 C   -2.5387750516   -2.2372025054   -1.9846030961
 C   -1.1209393536   -2.6909241270   -1.5123915822
 C   -1.4005580465   -2.0871376005   -0.1137476345
 H    1.0006807579    1.8673980457    0.4658121961
 H   -0.2558999179    1.8581046999   -0.7949758899
 H   -0.7285781586    1.8602155510    0.9060326772
 H   -2.9970504154    0.2597086091    0.5180562992
 H   -2.5625475377    0.4379981840   -1.2019902547
 H   -3.7545873284   -2.0694804939   -0.0643220661
 H   -3.1830888509   -3.0609797429   -2.2991743982
 H   -2.5589547781   -1.4752367404   -2.7689852794
 H   -1.0098855172   -3.7779385204   -1.4839480199
 H   -0.2597609886   -2.2676480789   -2.0320290842
 H   -1.1396972407   -2.6711621043    0.7704682812