22

 C    0.1819701921    1.5137107737   -0.2201036107
 C   -0.0996521651    0.0311637365    0.0643836886
 C    0.6443945874   -0.5066400453    1.2581299154
 C    2.0658661795   -1.0005977799    1.1676251010
 C    0.9939096358   -1.9540815491    1.6200432346
 C    0.6614712757   -1.6989823661    3.0930911936
 C    0.2695382141   -0.2240246428    2.7318915392
 C    0.9438000468    0.9212229250    3.4794742242
 H    1.2496251174    1.6838872874   -0.3931441624
 H   -0.3635841097    1.8566110437   -1.1050647728
 H   -0.1219159482    2.1451553154    0.6212801451
 H   -1.1790412887   -0.1109099874    0.2132697192
 H    0.1665003150   -0.5644589850   -0.8184869770
 H    2.4288643444   -1.1545511993    0.1555194369
 H    2.8347396637   -0.6683813250    1.8618536411
 H    0.7691833611   -2.8608936032    1.0700294186
 H   -0.1846632583   -2.2811368272    3.4651874479
 H    1.4974352696   -1.8172389901    3.7925070092
 H   -0.8180293804   -0.1115237734    2.8074419936
 H    2.0351603686    0.8581550157    3.4174276570
 H    0.6441050436    1.8946177925    3.0762242252
 H    0.6733121756    0.9051169139    4.5415066624