21

 C   -0.1887208304    1.3819616516    0.0019947529
 O   -0.1710544534   -0.0398601214   -0.0358360128
 C    0.5310109337   -0.6395858170    0.9447625172
 N    0.5963457818   -1.8933766665    1.0151643958
 C    1.3817703439   -2.4741509256    2.0926355469
 C    0.4703385438   -3.3348332675    2.9771572233
 C    2.5019047611   -3.3043558272    1.4873650486
 C    3.8163662786   -2.6902710978    1.1960640991
 N    3.6755348578   -3.6658835382    2.2967284396
 H    0.8234080545    1.7991046243   -0.0669867138
 H   -0.7667006482    1.7048993322   -0.8644928303
 H   -0.6716595579    1.7539525618    0.9138353143
 H    1.0196130260    0.0558379316    1.6467541114
 H    1.8505452584   -1.6915346545    2.7215323677
 H   -0.3097669131   -2.7224798596    3.4386591394
 H   -0.0172110858   -4.1069727625    2.3749519389
 H    1.0469124593   -3.8226787416    3.7691519871
 H    2.1508744868   -4.1063493273    0.8414402935
 H    4.4100294009   -3.0324682549    0.3534490025
 H    3.9517085348   -1.6404311524    1.4470631205
 H    3.6454589871   -3.1699330876    3.1857572182