21

 O   -0.1271190578    1.4494518200    0.1877126064
 C   -0.0178820103    0.0374255401    0.0907500170
 C   -1.4273596646   -0.5376189367    0.0149354110
 C   -1.4363697464   -2.0592489893   -0.0677042660
 C   -1.0831290681   -2.8897915516    1.2154990217
 C   -2.4224166126   -3.6484197503    1.0798290210
 O   -3.4821148364   -3.0481809060    1.8527111229
 C   -3.9505446912   -2.2948712326    0.7085308529
 C   -2.8005758463   -2.8095987557   -0.1738224997
 H    0.7586990249    1.8157066736    0.2631913985
 H    0.5520993257   -0.2578732331   -0.8060907823
 H    0.5096702253   -0.3821732584    0.9628053867
 H   -1.9809677543   -0.1950065807    0.8967147597
 H   -1.9304060756   -0.1085487058   -0.8610547123
 H   -0.7978122538   -2.3733610728   -0.9012432100
 H   -0.1889929674   -3.5114030259    1.1185460019
 H   -1.0209743048   -2.3187008620    2.1457641941
 H   -2.4245946893   -4.7399011782    1.1448261708
 H   -4.9432935333   -2.6379039095    0.3892114496
 H   -3.9982115947   -1.2177665731    0.9064572283
 H   -3.0674228890   -3.2247211718   -1.1452661923