23

 C    0.2718488283    1.6663427080   -0.0993784708
 C    0.0879121962    0.1449809832   -0.0074582782
 C    0.6597140820   -0.5890080664   -1.2338807800
 C    2.1899061737   -0.6976883476   -0.9548681101
 C    2.3130143635   -0.6701905166    0.6083351673
 C    0.8707942748   -0.5251280535    1.1508296776
 C    0.7833371128    0.1552705577    2.5163359587
 C    2.8074267555   -1.8576714148   -1.5809856522
 C    3.3060433411   -2.8257890831   -2.0920427807
 H    1.3272604722    1.9518784871   -0.1711294520
 H   -0.2350304118    2.0597776435   -0.9866637927
 H   -0.1471475749    2.1762202239    0.7731164578
 H   -0.9840393389   -0.0619056162    0.0940566812
 H    0.2353886483   -1.5960286203   -1.2965535508
 H    0.4513261616   -0.0857409822   -2.1822221333
 H    2.6791304229    0.1970352037   -1.3564280147
 H    2.8012625741   -1.5705300871    0.9871430595
 H    2.9300662944    0.1798770441    0.9175193198
 H    0.4549058615   -1.5365492088    1.2535221010
 H    1.2220955359    1.1584120017    2.4963721217
 H   -0.2561558827    0.2502126094    2.8492646961
 H    1.3213017098   -0.4225201425    3.2754653796
 H    3.7515234000   -3.6757003532   -2.5459657149