19

 O   -0.1103406093    1.3946503239    0.0395859349
 C   -0.0481528400   -0.0191727132    0.0590700454
 C    0.3734428238   -0.6589393188    1.4073180377
 C   -0.6335664452    0.0004787807    2.3925849721
 C   -1.6444240218   -0.8519831744    1.6169616347
 O   -2.9590338996   -1.0851257085    1.9935568131
 C   -0.5483410103   -1.9529823411    1.3630315718
 C   -1.1049265200   -2.1519350179   -0.0564642785
 C   -1.4531846652   -0.6434267078    0.0551962919
 H    0.7797064960    1.7353439935    0.1771507452
 H    0.5568419948   -0.3833663708   -0.7829942211
 H    1.4355425103   -0.7250050945    1.6415853142
 H   -0.5060487758   -0.3794070795    3.4124944387
 H   -0.7207606012    1.0881897758    2.3913195504
 H   -2.9646612588   -1.3670160073    2.9144996280
 H   -0.3229741357   -2.7592258016    2.0615765774
 H   -0.4467438818   -2.4698748134   -0.8708675764
 H   -1.9968968313   -2.7818381234   -0.0308468340
 H   -2.2181057489   -0.1642174317   -0.5531769853