21

 C   -0.1491109676    1.6290327772   -0.0020439670
 C   -0.0180615561    0.1026815502    0.0591958180
 C   -1.4011702685   -0.5654739715    0.1128499609
 O   -1.3260108999   -1.9622798398   -0.0198411225
 O    0.5765407429   -0.4215029010   -1.1278997189
 C    1.9780395484   -0.2087282783   -1.2565316678
 C    2.7130888818   -0.7275005778   -0.0233398132
 C    2.0749567443   -0.0985726986    1.2138346259
 O    0.6716892975   -0.3208315487    1.2186573462
 H    0.8204890178    2.1318899687    0.0048374846
 H   -0.6763050601    1.9234305525   -0.9126909199
 H   -0.7131133883    1.9815424740    0.8659240162
 H   -1.8537292519   -0.3460348841    1.0841679116
 H   -2.0265672475   -0.1115201977   -0.6727380805
 H   -0.6930641257   -2.1173540704   -0.7319492181
 H    2.2772907242   -0.7376225329   -2.1654575453
 H    2.1927919783    0.8603150769   -1.4088522356
 H    2.6129440984   -1.8167953487    0.0299893509
 H    3.7791213459   -0.4810487596   -0.0780881221
 H    2.4488039816   -0.5489643210    2.1370724957
 H    2.3058267345    0.9780220806    1.2534901608