18

 O   -0.0185527465   -0.0501544841   -0.0421544470
 C   -0.0350504112    1.1647017535   -0.0005262447
 N   -1.1898104828    1.8987971807    0.0013221716
 C   -1.2613451618    3.3453474053    0.1780261446
 C    0.1235027944    3.9504208570   -0.0700618396
 C    0.6202511714    3.7779921372   -1.5306532141
 C    1.5143712924    2.5119799573   -1.4575581519
 C    1.2402696951    2.0146710125   -0.0228845209
 O    1.0574135721    3.2175251708    0.7251009573
 H   -2.0378528067    1.3542403066    0.0678915188
 H   -1.9916104521    3.7721971342   -0.5206202791
 H   -1.5864270706    3.5940597737    1.1974877164
 H    0.1356695009    4.9885134459    0.2689122947
 H   -0.2127668760    3.6587460081   -2.2276566561
 H    1.1927656788    4.6521350755   -1.8468721443
 H    1.2688914742    1.7625466167   -2.2127681266
 H    2.5714506795    2.7672309205   -1.5611017471
 H    2.0503620288    1.4388097687    0.4233345780