19

 C    0.0588042603    1.5747460302    0.1513600314
 C    0.0979923128    0.0510481956   -0.0120365908
 C   -1.2901732928   -0.5787402959    0.0499853175
 C   -1.4503625140   -2.1443108533   -0.0193337979
 C   -2.5063840344   -2.0797257461    1.1328644994
 C   -2.0273616798   -0.6455196966    1.3992516037
 O   -2.0760735157    0.0819713665    2.3474442132
 C   -1.9407671194   -2.6816450358   -1.3327540430
 O   -1.3829373353   -3.5124765613   -2.0005096309
 H    1.0685342879    1.9947323499    0.1258688905
 H   -0.5179732934    2.0433725210   -0.6537684700
 H   -0.4047546725    1.8493982800    1.1023753422
 H    0.5658387336   -0.2174248948   -0.9671235597
 H    0.7232134942   -0.3901154415    0.7739157494
 H   -1.9575457608   -0.1101530011   -0.6894131288
 H   -0.5354831609   -2.6618310443    0.2751728596
 H   -3.5355003650   -2.0899731020    0.7531520708
 H   -2.4244376925   -2.7995819271    1.9492755082
 H   -2.9057065323   -2.2252651736   -1.6668923948