18

 O    0.2299921901    1.3990885153   -0.2453294301
 C    0.0391324833    0.0125764658   -0.0204743913
 C    0.6166008215   -0.5120820483    1.3256798850
 C   -0.6156831913   -0.5611358408    2.2539767117
 C   -1.0355003494    0.8428955577    2.6529399604
 C   -2.0283263029    1.2632342569    1.8676358570
 C   -2.4362672702    0.1665321743    0.9429644992
 C   -1.4196624992   -0.4672590982    0.0376876487
 N   -1.7219498043   -1.0639005176    1.3591971467
 H   -0.2225115925    1.8677289671    0.4640616816
 H    0.5396242408   -0.4676689392   -0.8653017960
 H    1.0117532403   -1.5249718526    1.1942913692
 H    1.4264338398    0.1270639684    1.6877939565
 H   -0.4826626569   -1.2355852412    3.1043462937
 H   -0.5108718250    1.4275428517    3.3998980980
 H   -2.5038144512    2.2364687243    1.8837621400
 H   -3.4884688784    0.0569096007    0.6894895282
 H   -1.7939298444   -1.0284026540   -0.8148904583