16

 N    0.0653893778    1.3233167169    0.0682165094
 C   -0.0175555670   -0.0246933612    0.0252866784
 C   -1.1424974490   -0.7986060654   -0.0570357375
 C   -0.7684687308   -2.1966067989    0.0172778773
 O   -1.4456225447   -3.2038224948    0.1364900973
 C    0.7550254563   -2.2713168466    0.0113368326
 O    1.2948291923   -3.3221901269    0.7254736187
 C    1.4596552298   -1.6989059503   -1.1925768292
 C    1.2325913519   -0.8506983322    0.0642193536
 H    0.9583121782    1.7759730436   -0.0207540891
 H   -0.7517682956    1.8911578076   -0.0804353424
 H   -2.1607967382   -0.4451360158   -0.1407889764
 H    0.5605565349   -3.9525617949    0.8046728024
 H    2.4734404573   -2.0582888245   -1.3413073414
 H    0.9084259120   -1.4534342610   -2.0945041949
 H    2.0817485448   -0.5311818357    0.6568887211