19

 C    0.2354197891    1.5373836905   -0.0845939430
 C   -0.0373062458    0.0547012985    0.1032860402
 O    0.3947019495   -0.6606410727   -1.0830142669
 C    1.0840304799   -1.7959473251   -0.7691708908
 N    1.3908247073   -2.7140730548   -1.5802013745
 C    1.4016485536   -1.8005205702    0.6936151456
 C    1.6600749653   -3.1035673154    1.3932511992
 N    2.1669197704   -0.5651142300    1.0395250995
 C    0.7100839560   -0.6117541945    1.2460353793
 H    1.3118693854    1.7112497210   -0.1435901709
 H   -0.2375089535    1.8984603341   -1.0014653161
 H   -0.1720545673    2.1046629825    0.7586051216
 H   -1.1144032148   -0.1269269887    0.2185867209
 H    1.0359861914   -2.5022261721   -2.5144531461
 H    2.5430390921   -3.5901893443    0.9695240850
 H    1.8222375281   -2.9466591268    2.4644855487
 H    0.8166397823   -3.7883647747    1.2669961665
 H    2.6341836788   -0.7291611895    1.9297167750
 H    0.2934394822   -0.5905144377    2.2471896168