23

 C    0.1379332433    1.5230409833   -0.0877815356
 C   -0.0305287400    0.0025600430    0.0072728418
 C   -1.4864060922   -0.5050592192    0.0485902405
 C   -2.2150595581   -0.0498588717    1.3258954945
 C   -2.2931695637   -0.1185845174   -1.2307719338
 C   -3.2808960215   -1.2806496742   -1.4990350017
 C   -2.5831246770   -2.4863756948   -0.9047733367
 O   -1.1983359905   -2.5865935776   -1.2777453708
 C   -1.5261853636   -2.0306688319    0.0027409471
 H    1.1982190232    1.7884587592   -0.1446972987
 H   -0.3500863010    1.9274105448   -0.9806136256
 H   -0.2806232040    2.0379018612    0.7827452769
 H    0.4608411496   -0.4715321156   -0.8504484377
 H    0.4934775472   -0.3609978053    0.9018138822
 H   -2.2755526419    1.0407336448    1.3834654873
 H   -3.2386595284   -0.4380793981    1.3613677817
 H   -1.6968377010   -0.4029452046    2.2249620314
 H   -2.8040997721    0.8413935052   -1.1203816118
 H   -1.6065792272   -0.0279413060   -2.0758325991
 H   -4.2355736725   -1.1315843001   -0.9797822829
 H   -3.5058701259   -1.4004117131   -2.5634725089
 H   -3.0995541200   -3.4356261410   -0.7838470355
 H   -1.1893015026   -2.6092040909    0.8614903055