19

 C   -0.3133174259    1.4954836465   -0.1931084854
 C   -0.0699450405    0.0050866487   -0.0014075359
 C    0.9991481059   -0.6233765592   -0.9751969817
 C    1.8520991559   -0.9729037404    0.2589531113
 C    3.2174598456   -0.6299214713    0.7885794883
 O    2.9768324505   -0.1642647871    2.1244457689
 C    1.6306022493    0.3164424412    2.2646238876
 C    0.8665702220   -0.3833406464    1.1738285361
 O    1.0738148769   -1.7964289258    1.1299335389
 H    0.6270395841    2.0573819746   -0.2254430764
 H   -0.8418057979    1.6810555586   -1.1337447063
 H   -0.9208746226    1.9067319392    0.6201522524
 H   -1.0184264844   -0.5374511634    0.0350051341
 H    0.6894328044   -1.4742069124   -1.5853524274
 H    1.4643119000    0.1331828192   -1.6127730039
 H    3.9151061866   -1.4692386361    0.8662634836
 H    3.6732144760    0.1507908206    0.1588269791
 H    1.3135611395    0.0760851533    3.2839061342
 H    1.5723476246    1.4070541204    2.1260954625