19

 O   -0.0440509761    1.3546765439    0.0039555692
 C    0.0113477596   -0.0470136983    0.0379199179
 C   -0.5057412113   -0.6726758644    1.3097078418
 C   -1.3507189393   -0.6589502677    0.0154282470
 C   -1.3428185228   -2.1999690621   -0.0140117797
 C   -0.2319430158   -2.9838314746   -0.7702596320
 O    0.2225485853   -2.3727714044   -1.9567716590
 C    0.6799770861   -2.9326089154    0.5092549535
 C   -0.4712618298   -2.2151087239    1.2789738295
 H    0.6849727374    1.6886957714    0.5366530612
 H    0.8237167078   -0.4816057747   -0.5380080511
 H   -0.6169896179   -0.0624846610    2.1991282050
 H   -2.2018906888   -0.0391224423   -0.2378815460
 H   -2.3400090803   -2.6403454822   -0.0295409990
 H   -0.5618411329   -4.0134541041   -0.9691097813
 H    0.8800399441   -2.9492948107   -2.3589484511
 H    0.9358918782   -3.9191735658    0.9044208232
 H    1.6008937297   -2.3566110873    0.3902967170
 H   -0.8334899333   -2.6969795263    2.1866360740