20

 C   -0.1732260281    1.5416914589    0.1895117420
 C   -0.0940636109    0.0166695992    0.0526174773
 C   -1.5004619863   -0.6017837777   -0.0727509621
 O   -2.3320520303   -0.3535582117    1.0463347778
 C    0.7469670139   -0.4569467965   -1.1283219822
 N    1.1612151016    0.5050584827   -2.1535031794
 C    2.2022392444   -0.1519518590   -1.3296519877
 C    2.9882408303    0.6513780938   -0.4334840182
 C    3.6914784047    1.2700529325    0.3209437932
 H    0.8173231306    1.9905107984    0.2732115533
 H   -0.6650955357    1.9882150753   -0.6802119552
 H   -0.7332769941    1.8070861649    1.0923033639
 H    0.3538128422   -0.3947335817    0.9674777950
 H   -1.9706516368   -0.2525040381   -1.0075192950
 H   -1.4185866481   -1.6926891508   -0.1392825938
 H   -2.5530756159    0.5823629852    1.0495972809
 H    0.4712494297   -1.4521695617   -1.4807567547
 H    1.1451042996    0.0869190215   -3.0797146246
 H    2.7739207943   -0.9463186911   -1.8070297946
 H    4.3025311149    1.8300070260    0.9848155442