19

 O    0.0464434480    1.4487808785    0.0988395419
 C   -0.0025278483    0.0542031308   -0.0268523048
 C    0.4484990851   -0.8273324059    1.1742874155
 C   -0.8274082769   -1.7040754297    1.0088648634
 C   -1.8149009597   -1.7977583581    2.1937659001
 C   -2.7176910471   -0.5877078004    2.0502570091
 O   -2.0186238288    0.6658882491    1.9777349534
 C   -2.4890706006    0.0643559598    0.7490232772
 C   -1.3997595280   -0.6583717907   -0.0119200583
 H   -0.4079948392    1.6677015381    0.9213074209
 H    0.5488871604   -0.1865611032   -0.9400746917
 H    1.4090001934   -1.3373779285    1.0652433013
 H    0.4523393488   -0.2627472795    2.1097125904
 H   -0.6122586907   -2.6841898962    0.5806067151
 H   -2.4306995681   -2.7031314792    2.1296272724
 H   -1.3048484605   -1.8193434615    3.1630702474
 H   -3.6709237772   -0.5406465580    2.5719664690
 H   -3.2552408385    0.6366329197    0.2334086127
 H   -1.7718986121   -1.0198538451   -0.9740189351