17

 O    0.0498982142    1.3769345478    0.1906717212
 C    0.1237887988   -0.0089630264   -0.1024882701
 C   -1.2660799306   -0.6216706429   -0.0603211382
 C   -1.5653250053   -2.1334980130   -0.1051807587
 C   -0.7465989262   -2.7180877962    1.0788007615
 C   -1.6311065236   -1.8488090321    1.9691359714
 C   -2.6966463912   -1.7848257878    0.9434402051
 N   -1.9530118728   -0.5404695169    1.2795531332
 H   -0.4951774057    1.4572077986    0.9829682122
 H    0.5493880861   -0.0994643298   -1.1086554778
 H    0.8042132759   -0.5221085763    0.5924951251
 H   -1.9076936706   -0.0778683036   -0.7619804940
 H   -1.6650135918   -2.6790769546   -1.0414863696
 H   -0.9860167536   -3.7735080468    1.2329903425
 H    0.3389200246   -2.5848834060    1.0875104721
 H   -1.7184197129   -1.8402195541    3.0473809480
 H   -3.7736177351   -1.8842063399    0.9710028562