16

 N    0.0760312838    1.4214978438    0.3075589297
 C    0.0031331963    0.0452153039    0.0170639303
 C   -1.1466079892   -0.7350602263    0.0246057930
 N   -0.7088851636   -2.0392353922   -0.0850135431
 C   -0.9384826027   -3.3629686292   -0.6974232624
 C    0.6266229325   -3.5080600961   -0.7717818361
 C    0.6414061256   -2.0748350075   -0.2679174987
 C    1.1464489954   -0.7975294371   -0.2107243057
 H    0.8268965329    1.8772493597   -0.1958412364
 H   -0.7900360575    1.9053695996    0.1064146951
 H   -2.1703991157   -0.4675586892    0.2312268421
 H   -1.4804652166   -4.0647666275   -0.0567988178
 H   -1.4195864315   -3.3126200664   -1.6792305201
 H    1.0548689070   -4.2647240394   -0.1084668500
 H    1.0130413291   -3.6628134935   -1.7824489476
 H    2.1716848442   -0.4706011226   -0.2927987321