19

 C   -0.0890738005    1.5148528549    0.0760501705
 C    0.0044459779   -0.0102759118   -0.0185108134
 C    0.7755815986   -0.5133421694   -1.2638973436
 C    2.2604303883   -0.1046468287   -1.2619162885
 C    0.6360248469   -1.9973520016   -1.3841397246
 N   -0.0004680296   -2.6830079221   -2.2903674202
 C    0.2106168799   -3.9729267837   -1.8698533867
 N    0.9228624509   -4.1001136289   -0.7855461348
 O    1.2139132011   -2.7697659294   -0.4511660284
 H    0.8919886601    1.9810437999    0.2056267056
 H   -0.5469914643    1.9405116695   -0.8237343495
 H   -0.7052389162    1.8069318831    0.9315594749
 H    0.4823086781   -0.4155844882    0.8812140628
 H   -1.0074643238   -0.4308135198   -0.0474721666
 H    0.2925099772   -0.1069624501   -2.1587392141
 H    2.7720746849   -0.4951190323   -0.3772293981
 H    2.7734950906   -0.4892494714   -2.1479563937
 H    2.3586115743    0.9832407808   -1.2644414707
 H   -0.1771096843   -4.8383959211   -2.3875473811