13

 N   -0.4069761338   -0.5844680421    1.4185464687
 C   -0.1964378015    0.2164733122    0.6130732555
 C    0.0922701646    1.2359239126   -0.3956228683
 C    1.4137422293    1.9225163825   -0.1688955749
 C    2.3309984877    1.7009669211    0.8379463550
 N    3.3532461516    2.5597731254    0.6142531305
 N    3.1724461727    3.3323637021   -0.4717613906
 C    1.9943318088    2.9483101093   -0.9510305635
 H    0.0654002315    0.7545095415   -1.3814514132
 H   -0.7317162172    1.9607124012   -0.3904616564
 H    2.3223593012    1.0133122130    1.6685305836
 H    4.1939252790    2.6689025704    1.1558410281
 H    1.5988021360    3.4179155107   -1.8403505545