15

 O   -0.1375344245   -0.0436541749    0.0835911208
 C   -0.0688554302    1.1468745554   -0.0626620464
 C    1.2410046320    1.9232364327   -0.0518095456
 N    2.4018495685    1.0617598848   -0.1272515284
 C    3.2487859069    1.3011789246   -1.1901176993
 O    4.2547167307    0.6896985871   -1.4579491522
 C    2.6617855546    2.4835686875   -1.9338962729
 N    1.3453377004    2.1235270083   -2.5246801948
 C    1.4027522146    2.8592008917   -1.2516089851
 H   -0.9760679231    1.7798555346   -0.1796904825
 H    1.2388309069    2.5227408099    0.8751049540
 H    2.3799885359    0.1490940425    0.3029286759
 H    3.3155732478    3.1805895167   -2.4422245257
 H    1.1419515851    2.7734489516   -3.2813556815
 H    1.0506349346    3.8814867473   -1.1880018564