15

 O    0.2164167417   -0.1130539876   -0.1526078619
 C    0.1413351488    1.0822037317   -0.2456476870
 C    1.3367096463    2.0142304779   -0.0750375641
 C    1.2985648806    3.1339469312   -1.1056446543
 O    0.3047425318    3.8142718860   -1.2760533432
 N    2.4444614896    3.2936529509   -1.8377100959
 C    2.5599978014    4.3541877308   -2.8198238493
 C    3.6325904418    5.3021613040   -2.4942348006
 N    4.4956404871    6.0271179474   -2.2420434021
 H   -0.8114681971    1.6075334624   -0.4570384979
 H    1.2304849733    2.4928817533    0.9076582236
 H    2.2571548947    1.4261447011   -0.0775708171
 H    3.2551699796    2.7335010963   -1.6308579362
 H    2.7390631247    3.9509007149   -3.8234234708
 H    1.5953831756    4.8710326995   -2.8308827333