15

 C   -0.1108619140    1.5643275095    0.0348360453
 C   -0.0383854915    0.0553846315    0.0586776589
 C    1.2600272652   -0.6620574443   -0.2423652435
 C    0.7390570397   -0.6834487873    1.1702568965
 C    1.3870580094    0.0812875043    2.1969271492
 N    1.9080068374    0.6986349210    3.0249882772
 C   -1.2744202694   -0.6671183213   -0.3635937501
 O   -2.2840685586   -0.1253430193   -0.7302701742
 H    0.8121121956    2.0131136351    0.4079664812
 H   -0.2839362800    1.9128484262   -0.9868531692
 H   -0.9418906973    1.9183708649    0.6501262137
 H    1.2258424196   -1.5973553715   -0.7908618511
 H    2.1205834399   -0.0384756538   -0.4525089743
 H    0.3085321432   -1.6166953184    1.5206886084
 H   -1.1941676490   -1.7795410466   -0.3210180581