18

 O   -0.4746601250    1.2889363090    0.1167942750
 C   -0.1110087991   -0.0802705239    0.0542700275
 C    0.7254014468   -0.3947291552   -1.2076155877
 C    0.0664333417   -0.0299647567   -2.4545340250
 C   -0.4834864751    0.2695903043   -3.4801212115
 C    0.6157761527   -0.5480823938    1.3080140800
 C    1.5878016376    0.3540247187    2.0293873698
 C    0.2549449200    0.0175183497    2.6529578405
 H    0.2964438017    1.8185658508   -0.1118055821
 H   -1.0633923693   -0.6187467534   -0.0233434208
 H    1.6904313786    0.1260781158   -1.1246297907
 H    0.9642551668   -1.4657780384   -1.2127883688
 H   -0.9706628950    0.5344517261   -4.3854447673
 H    0.8759038554   -1.6035910408    1.2838211869
 H    2.4878663052   -0.0859453194    2.4437169438
 H    1.7176824887    1.3683470230    1.6665419730
 H   -0.4892475504    0.8053244134    2.6655567770
 H    0.2338289787   -0.6510331391    3.5061266505