17

 C   -0.2077336570    1.0203739111    0.4819430161
 C    0.8376031764    1.0429255422   -0.6467634964
 C    1.7960156447    0.4633713778    0.4295843448
 O    0.6844110801    0.2854291331    1.3465523375
 C    2.5201984833   -0.8067558310    0.1470091134
 N    3.8425553562   -0.8088786997   -0.0215197002
 N    4.1438907368   -2.0925215922   -0.2881354629
 C    3.0599169700   -2.9073812448   -0.2809929360
 C    1.9763530985   -2.1053881310   -0.0025870337
 H   -0.4548405332    2.0068807995    0.8965395980
 H   -1.1381437112    0.4732251694    0.2930449037
 H    0.6319535666    0.3429216376   -1.4582279666
 H    1.1063178571    2.0153042616   -1.0613738028
 H    2.5111184826    1.2056165434    0.8059574477
 H    5.1049230629   -2.3443907939   -0.4444457709
 H    3.1465980857   -3.9669556641   -0.4633060312
 H    0.9469474104   -2.4043463989    0.1019323297