13

 N    0.0686747863    1.3053417968    0.1518943861
 C   -0.0560585751   -0.0533636671    0.0530666052
 N   -1.1697556971   -0.7423325843    0.0290076817
 C   -0.6762337775   -2.0328631917    0.0151481537
 C    0.6809012416   -2.0607077151    0.0198303412
 O    1.1243564375   -0.7540923290    0.0462325539
 N    1.2225034710   -3.2952017679   -0.0164692496
 C    0.1418629598   -4.0669000256   -0.0398448445
 N   -1.0469967721   -3.3527313915   -0.0242897266
 H    0.9143303363    1.6854600041   -0.2470531081
 H   -0.7700305566    1.8031282476   -0.1064972926
 H    0.1499885469   -5.1448218120   -0.0651715458
 H   -1.9742472412   -3.7416025843   -0.0344961846