23

 C   -1.4314438808    0.2358379079   -1.1812027263
 C   -0.0970997094   -0.0221073353   -0.4901528567
 C   -0.2796376389   -0.6416964244    0.8969024127
 O    0.6285257314   -0.8889298496   -1.3674143068
 C    1.9951910546   -1.1658336243   -1.0859738418
 C    2.4736722036   -1.8966902689   -2.3446785216
 O    2.2879649091   -1.0847961701   -3.5022832711
 C    2.8469276755    0.0806824777   -0.7888829862
 O    2.7171787144    1.1011307768   -1.7541318661
 H   -1.2702152821    0.6754164215   -2.1692058449
 H   -1.9859969908   -0.6998599587   -1.3051553800
 H   -2.0421395725    0.9259282200   -0.5918858693
 H    0.4413903644    0.9301656286   -0.4034962674
 H   -0.7971060199   -1.6036477603    0.8195620290
 H    0.6765566087   -0.8067986024    1.4024663849
 H   -0.8761722292    0.0213331480    1.5312709846
 H    2.0931513485   -1.8507261933   -0.2269546908
 H    3.5423522925   -2.1201970217   -2.2776415914
 H    1.9272085550   -2.8445601939   -2.4463750076
 H    1.3547754598   -0.8329160339   -3.4729602891
 H    2.5633648775    0.5185032400    0.1742199111
 H    3.8914130072   -0.2607198177   -0.6806094497
 H    2.7788221613    0.6662191739   -2.6172270356