21

 C    0.4714143969    1.6228223584   -0.4023287115
 C    1.4521872216    1.5310363760    0.7984489006
 C    1.3175552313   -0.0181498818    0.7699671118
 C    0.0432766904    0.1485127286   -0.1296423529
 C    0.1087556699   -0.8860997065   -1.2584886309
 C    1.5794367956   -1.2800672574   -1.3696983976
 O    2.3740385598   -0.3651038816   -2.1678111994
 C    3.2627053141   -0.1153794256   -1.0589840467
 C    2.3244215395   -0.8417648303   -0.0726123849
 H   -0.3118552227    2.3826306592   -0.3440414236
 H    0.9856932219    1.7242679659   -1.3607862739
 H    2.4487419442    1.9642143564    0.6810549851
 H    1.0149074154    1.9411795225    1.7129594385
 H    1.1764105243   -0.4909030383    1.7448582120
 H   -0.8962318611    0.0993137364    0.4261550196
 H   -0.4798775412   -1.7740873413   -0.9964255481
 H   -0.2692070023   -0.5123790905   -2.2160316269
 H    1.7282098148   -2.3130026853   -1.7079208306
 H    4.2280705298   -0.6213009699   -1.1961666190
 H    3.4449409123    0.9536690123   -0.9102632909
 H    2.8026581754   -1.6241333673    0.5179768393