12

 N    0.0133535714    1.3725555819    0.0086058913
 C   -0.0482688267    0.1007682896    0.0017969805
 C   -1.2510225363   -0.6800639842    0.0040582522
 C   -1.1756287034   -2.0323823116   -0.0040804926
 O   -0.0063579320   -2.7024675772   -0.0144741683
 N    1.2701439403   -1.8795028920   -0.0170056027
 N    1.1791354565   -0.6757487603   -0.0096369892
 C   -2.3117933725   -2.8845982017   -0.0025699330
 C   -3.2711722993   -3.6101249236   -0.0013409688
 H    0.9890001122    1.6754023997    0.0047986246
 H   -2.2087232749   -0.1808980305    0.0122580137
 H   -4.1199953653   -4.2498438201   -0.0002711177