19

 O   -0.3074883714    1.4210599355   -0.3523074383
 C   -0.0296001576    0.0511879400   -0.1022549610
 C   -1.3657676196   -0.6739535212   -0.0512762557
 C   -1.2390468194   -2.1605718583    0.2128917778
 O   -0.1664459602   -2.7188755805    0.2718630665
 C   -2.5472862213   -2.9223552517    0.4359034147
 C   -2.4467863732   -4.3794555932    0.0566837417
 C   -3.6361969368   -5.1763363363   -0.2605967452
 O   -2.7775844076   -4.6992045351   -1.2977803010
 H    0.5303905549    1.8888595431   -0.4121525626
 H    0.5970915584   -0.3902904570   -0.8892584855
 H    0.5036161027   -0.0894169559    0.8493139445
 H   -2.0140007578   -0.2245513395    0.7130310153
 H   -1.9027530912   -0.5374109116   -1.0001664746
 H   -2.7792626921   -2.8305771935    1.5076080294
 H   -3.3707515493   -2.4459282409   -0.1055955439
 H   -1.5588457956   -4.8861049774    0.4298039392
 H   -3.6255644673   -6.2533691768   -0.0992521736
 H   -4.6219403558   -4.7133101599   -0.2202309378