17

 C   -0.0213694198    1.4884799430    0.1484194628
 C   -0.0094712620    0.0108004932   -0.0171910610
 C   -0.0264948333   -0.7799078676   -1.1015681658
 C   -0.0011061299   -2.2482849199   -0.6986307863
 C    0.0331212210   -2.1489082098    0.7999735267
 C    0.0685728615   -2.8262611204    2.0008274437
 C    0.0802432281   -1.7952593608    2.9756423070
 N    0.0545622287   -0.5713110012    2.4371597795
 N    0.0263980980   -0.8258659857    1.1205098177
 H    0.8679618368    1.8247292003    0.6917945340
 H   -0.0513960299    1.9815673057   -0.8248842752
 H   -0.8890980024    1.8055168818    0.7364029642
 H   -0.0543287262   -0.4353248204   -2.1244876844
 H   -0.8829191922   -2.7900269315   -1.0634015379
 H    0.8740790880   -2.7709766457   -1.1048160473
 H    0.0839807456   -3.8906521961    2.1681676310
 H    0.1065518780   -1.9012707250    4.0505663213