17

 C   -0.0799539497    1.5476255295    0.1193900158
 C    0.0671645201    0.0621093830    0.0535971252
 N   -0.8491241816   -0.8939930696    0.7049657014
 C    0.6083559206   -0.9378794645    1.0006681915
 C    1.3236079286   -1.6889445928   -0.1608018107
 N    0.3264342016   -2.1168463760   -1.1522791021
 C    0.7836193375   -0.6940786567   -1.1407047167
 C    1.4021645719   -0.0724968036   -2.2522850067
 C    1.9139124143    0.4823727087   -3.1915489688
 H    0.8364838878    2.0457874363   -0.2126013632
 H   -0.8972926769    1.8920828519   -0.5246279021
 H   -0.2934495769    1.8716225031    1.1435188092
 H   -1.2829921441   -0.3904961377    1.4803136852
 H    0.9951097898   -0.8157046602    2.0038841513
 H    2.3168955841   -2.1159144926   -0.1166263081
 H    0.8402225747   -2.5665619339   -1.9117228730
 H    2.3671820383    0.9649518151   -4.0214917381