17

 C   -0.0018169208    1.3384003834    0.0514660844
 O    0.0750694260   -0.0744249747   -0.0072377877
 C    0.7051229560   -0.5893789192   -1.1736139530
 C    2.1981112193   -0.7878872133   -0.8844501981
 O    2.3853985761   -1.6222619120    0.2398698073
 C    0.0184592548   -1.9286526728   -1.4929836491
 C   -1.4054102821   -1.7667524567   -1.7699383346
 N   -2.5275431632   -1.6286679330   -2.0076196000
 H    0.9899634948    1.8119701909    0.0363942206
 H   -0.5962423579    1.7372638968   -0.7816893216
 H   -0.4963339273    1.5898759772    0.9920424209
 H    0.5730595828    0.1011647648   -2.0187436828
 H    2.6964842060   -1.2678211392   -1.7334364897
 H    2.6683588137    0.1976915782   -0.7401922263
 H    1.8250502555   -1.2537485278    0.9350950914
 H    0.5000984207   -2.3946780455   -2.3593285750
 H    0.1580028858   -2.6029923771   -0.6429747167