15

 O    0.1240082744    0.0454537368   -0.3435386278
 C    0.0911598117    1.2253241096   -0.1769030733
 C   -1.2136441195    2.0757817975    0.0155040830
 C   -0.7471438389    3.5452940299   -0.0813307248
 C    0.7666220237    3.4615722508    0.0827159921
 C    1.3432857697    2.7392323683    1.2332354494
 N    1.2386489857    2.0724469309   -0.1010515371
 C   -2.2673896231    1.7131143609   -0.9185671750
 N   -3.1059797889    1.4494520746   -1.6682930168
 H   -1.5682393775    1.8370943266    1.0256411828
 H   -0.9829020700    3.9498657938   -1.0683759070
 H   -1.2227567855    4.1873901112    0.6635610407
 H    1.3670764328    4.2142337126   -0.4178811576
 H    2.3641868702    2.9284464372    1.5466939271
 H    0.6832794753    2.3918330792    2.0243686043