21

 C    0.0784839208    1.5151914535   -0.1379479064
 C    0.0573613612    0.0628455289   -0.0340337923
 C    0.0492330424   -1.1381621646    0.0528725170
 C    0.0042913282   -2.5925021481    0.1544260951
 C   -1.4241947271   -3.1608465986    0.0462332784
 C   -1.4420682021   -4.6979793563    0.1566732533
 C   -2.7835538844   -5.2618709920    0.0572736462
 C   -3.9017729727   -5.7004752130   -0.0278781154
 C   -5.2499602380   -6.2413868606   -0.1296575390
 H    0.6761563000    1.8461270184   -0.9947102101
 H   -0.9316850505    1.9204228571   -0.2649146178
 H    0.5069136112    1.9741117015    0.7601688259
 H    0.6313297589   -3.0372927837   -0.6307854148
 H    0.4491189782   -2.9102694147    1.1076969168
 H   -2.0499707551   -2.7301299602    0.8340530406
 H   -1.8674613705   -2.8573599118   -0.9072774783
 H   -0.8026987753   -5.1248241392   -0.6285545552
 H   -0.9849128318   -4.9977954200    1.1099264726
 H   -5.3425331358   -6.9272439313   -0.9792477154
 H   -5.5275663467   -6.7959061496    0.7737891297
 H   -5.9896761410   -5.4447584158   -0.2674149610