19

 C    1.4511495937    0.6457273015    0.0469880539
 O    0.1570870310    0.0928798222   -0.0074256969
 C   -0.1498516968   -0.5555768593   -1.2252522056
 C    0.4582175697   -1.9581991157   -1.3200218796
 C    0.0142528268   -2.6951714072   -2.5675778313
 O   -0.7936010147   -2.2453262920   -3.3505471262
 C    0.5964496541   -4.0622325763   -2.8174330716
 C    2.0578161468   -4.2768074001   -2.8703717860
 O    1.2979962496   -4.7009736585   -1.7493803131
 H    2.2435311226   -0.1181147349    0.0248191478
 H    1.6272582533    1.3474934105   -0.7836076343
 H    1.5288552715    1.1913294452    0.9907057099
 H   -1.2392295850   -0.6297671495   -1.2696064954
 H    0.1683068223    0.0536365045   -2.0847035820
 H    1.5541833225   -1.9283898977   -1.2876588939
 H    0.1666803814   -2.5585960704   -0.4488697025
 H   -0.0398482676   -4.7055646358   -3.4230440019
 H    2.4437162831   -5.0684113118   -3.5102776046
 H    2.7359770356   -3.4432940448   -2.6953516568