16

 C    0.1566438726    1.5345360996   -0.1217572044
 C   -0.0991584597    0.0247891636    0.0003878698
 C    0.4880595440   -0.5421926121    1.2518390380
 O    1.9268642391   -0.7248193633    1.3394828064
 C    1.0992865376   -1.8471515494    1.6278694064
 C    0.7251171497   -1.7232648274    3.1106499994
 C    0.0561642203   -0.3697221383    2.7122474354
 O   -0.6612706958    0.3995154835    3.2790268378
 H    1.2299624534    1.7437320279   -0.1450160939
 H   -0.2891109140    1.9289362832   -1.0390483374
 H   -0.2768567797    2.0697651088    0.7277706250
 H   -1.1778843157   -0.1728016094    0.0031815815
 H    0.3255363800   -0.5074052089   -0.8580079532
 H    1.2082108648   -2.7356536664    1.0179269603
 H   -0.0288059010   -2.4321793012    3.4666934304
 H    1.5662356844   -1.6869636202    3.8052669184