18

 C   -0.0494760451    1.5497226218   -0.0305223601
 C    0.0139431044    0.0596496192    0.0065742913
 C    0.0309753183   -1.0144876085   -1.0558081567
 C    1.2993198799   -1.6546664611   -0.4953361429
 C    0.9099677864   -0.9540614267    0.8385063051
 O    1.8623586717   -0.5140801419    1.7460905104
 C   -0.3891900966   -1.6821114279    1.2898421310
 C   -1.0292412904   -1.0317065311    0.0651134890
 H    0.9089865043    1.9859667102   -0.3339813310
 H   -0.8095750807    1.8862067379   -0.7442341233
 H   -0.3056202439    1.9662414369    0.9502675045
 H   -0.2617353341   -0.9161790176   -2.0935596145
 H    1.3928046114   -2.7478764849   -0.4927569433
 H    2.1976688857   -1.2007545727   -0.9230829039
 H    2.2899845664   -1.2834878774    2.1390088765
 H   -0.3646267957   -2.7764427482    1.3652793676
 H   -0.7731221804   -1.2490482522    2.2177898327
 H   -2.0830814816   -0.9457584457   -0.1679234524