21

 C    0.1127163109    1.5742573783   -0.2427873956
 C   -0.0350970254    0.0619545280   -0.0231102760
 C    0.4682429803   -0.7761183208   -1.2227826755
 C    1.9446106730   -1.0481871079   -0.9377516792
 O    2.7978412915    0.1060872411   -1.1479651611
 C    3.1595821659    0.1485871210    0.2537389952
 C    2.1504745525   -0.9613412464    0.5945863384
 C    0.7996268360   -0.5059927729    1.1702198506
 O    1.0208236795    0.3888486449    2.2479251766
 H    1.1147817206    1.8359024990   -0.5871313305
 H   -0.5970987528    1.9076739044   -1.0070581340
 H   -0.0934205304    2.1329625393    0.6745397907
 H   -1.0960550680   -0.1469182267    0.1602852487
 H   -0.0584623812   -1.7374868984   -1.2725253018
 H    0.3252309131   -0.2747073612   -2.1849681706
 H    2.3378753362   -1.9256297168   -1.4635953619
 H    4.2090882773   -0.1336141453    0.4030935829
 H    2.9788743070    1.1273061054    0.7070885128
 H    2.5570730841   -1.8258488953    1.1191777281
 H    0.2796938919   -1.4059040784    1.5368607154
 H    0.1689470082    0.6112408486    2.6361654266