16

 C   -0.0959043157    1.5282882673    0.0636512294
 C    0.1229269061    0.0535624896   -0.0040929547
 O   -0.7652102073   -0.8327937439    0.6854672367
 C    0.6446620877   -0.9055657004    1.0071069666
 C    1.2525921927   -1.7588374150   -0.1156301939
 O    1.9821040480   -2.7010157345   -0.1615604453
 C    0.6723190045   -0.7877194958   -1.1602133529
 C    0.1399806789   -0.9849563164   -2.5232919413
 N    1.4544183766   -0.3505155903   -2.3169834884
 H    0.8154362986    2.0703726212   -0.2077948169
 H   -0.8942547615    1.8360725732   -0.6210011829
 H   -0.3872490541    1.8210987066    1.0751454376
 H    0.9375092055   -0.7666109713    2.0411939941
 H    0.1802360923   -1.9735275631   -2.9711274944
 H   -0.7032093548   -0.3710586419   -2.8306327219
 H    1.3793512025    0.6595938647   -2.4239586718