18

 C   -0.0091408388    1.5227374658    0.0104865216
 O    1.1633025025    0.6930258688   -0.0060063965
 C   -0.1054654598    0.0630683245    0.0031792497
 C   -0.4851979802   -0.9517697823    1.0726786992
 C   -2.0047689296   -1.0485553161    1.3210835128
 C   -2.0957571152   -1.8597572177    0.0122905343
 C   -2.0310108713   -1.0337599623   -1.2887868233
 C   -0.5067414208   -0.9396229352   -1.0699051349
 N   -0.5700383599   -2.0500553176   -0.0041294616
 H   -0.1773032962    2.0739738496    0.9351353871
 H   -0.1957985935    2.0844027713   -0.9042848798
 H    0.2071887301   -1.0757013054    1.9073556070
 H   -2.2235523026   -1.6742097413    2.1899290704
 H   -2.5765573470   -0.1194310331    1.4015794187
 H   -2.7289577147   -2.7487135304    0.0136178841
 H   -2.2672903548   -1.6495502483   -2.1600942835
 H   -2.6041970201   -0.1038485636   -1.3472325415
 H    0.1687084119   -1.0540042567   -1.9196865036