16

 O   -0.0611821972    1.3974565360    0.0464127839
 C    0.0456707563    0.0090063650    0.0144617907
 C   -0.5606809765   -0.7486892660    1.1620247381
 C    0.9399525545   -0.7940787354    0.9297290371
 O    1.5025153290   -1.8723596106    0.2233007965
 C    1.1555892480   -1.7908021258   -1.1428294235
 C   -0.2606705842   -2.0999178198   -1.5450715459
 C    0.1789883371   -0.6610050440   -1.3452203284
 H    0.7486529602    1.7686359409   -0.3225044710
 H   -0.8750596872   -0.1329974868    1.9984865407
 H   -1.1700922512   -1.6269257738    0.9882202562
 H    1.6091057901   -0.3595314083    1.6649105495
 H    1.9850981529   -2.0232694622   -1.8020290264
 H   -0.4161308995   -2.4189186880   -2.5707468863
 H   -0.9245843999   -2.5687833412   -0.8290625664
 H    0.2123532875    0.0066469199   -2.1980010748