21

 C   -0.1401887986    1.5779029700    0.0274696540
 C   -0.0433776838    0.0681672527    0.0009042477
 C    1.2755240826   -0.6145073446   -0.3536979551
 C    0.7273727645   -0.6691193113    1.0355771152
 C    1.2050703718   -0.2588037528    2.4378437411
 O   -0.1179132786   -0.6920458577    2.9557928010
 C    0.3152186231   -1.7672412308    2.0260138941
 C    1.7208007102   -1.7075815501    2.6980931058
 C    2.9768617653   -2.2760323960    2.0609722831
 H    0.7914807503    2.0254793016    0.3897889900
 H   -0.3354561038    1.9823908998   -0.9717457359
 H   -0.9462760865    1.9081879224    0.6909624858
 H   -0.9352900018   -0.4347346698   -0.3672099951
 H    1.2467260029   -1.5113039267   -0.9652173871
 H    2.1343743286    0.0231500993   -0.5449894470
 H    1.5966598530    0.6951588787    2.7942893649
 H   -0.3584024973   -2.6145713099    1.8870444967
 H    1.6489883656   -1.9538423599    3.7612239843
 H    3.0571033340   -2.0329134997    1.0002138748
 H    3.8688092397   -1.8897257150    2.5663896342
 H    2.9945428187   -3.3668362301    2.1615021073