19

 C    0.0447146781    1.1305754434   -0.4374465975
 O   -0.1513759044    0.1341028621    0.5546697540
 C   -1.3073519726   -0.6008019494    0.3383286240
 C   -1.4192865295   -1.6458671077   -0.7477851902
 O   -0.2344056870   -2.1161274932   -1.3409578308
 C    0.4267725397   -3.0254462156   -0.4836135495
 C    1.1946348460   -2.4870460723    0.6902901956
 C   -0.2317643188   -2.9849515831    0.8709544745
 C   -1.4209389730   -2.0616139868    0.7189526284
 H    0.9554160792    1.6708782707   -0.1697343719
 H    0.1617977456    0.6821524097   -1.4314013200
 H   -0.7960261335    1.8397094768   -0.4613549730
 H   -2.2249324765   -0.0269311310    0.4995117868
 H   -2.2788846209   -1.6808884907   -1.4112340043
 H    0.7395700234   -3.9329597884   -0.9903087251
 H    1.9749993999   -3.1306839988    1.0848170084
 H    1.3837377346   -1.4267371627    0.7512804736
 H   -0.4019817561   -3.8875138045    1.4452789684
 H   -2.3305421541   -2.3636502284    1.2247495085