17

 C   -0.1482553928    1.5757612271    0.0349397805
 C   -0.0392982270    0.0584931767   -0.0431825355
 C   -1.3577434401   -0.5601853777    0.1229764169
 N   -2.4035676121   -1.0405868493    0.2332571004
 C    0.8825345373   -0.6131523980   -1.0756708313
 C    2.1188566702   -0.2613727235   -0.1970401315
 C    2.6345480084   -1.7006314377   -0.1531899739
 C    1.1106389515   -1.7994829394   -0.0925814736
 N    1.0282723385   -0.5778233454    0.8727949378
 H    0.8253057277    2.0454599170   -0.1203371852
 H   -0.8378033909    1.9505418612   -0.7269634525
 H   -0.5264319862    1.8765074164    1.0159210766
 H    0.7994126335   -0.6351361205   -2.1664225890
 H    2.6780663535    0.6729354450   -0.1616845309
 H    3.1193425088   -2.0787523127   -1.0559645064
 H    3.1729391970   -1.9909243925    0.7522104530
 H    0.4634310728   -2.6618695367    0.0636406346