19

 C    0.0227462702    1.4371071523    0.0702582677
 O   -0.2754716372    0.0563984547   -0.0841977202
 C    0.3917677708   -0.5742142663   -1.0733616632
 N    0.2093820272   -1.8011702034   -1.2860419565
 C    0.9318996853   -2.4164993905   -2.3418170094
 C    1.3909254377   -3.8457834909   -2.1324579731
 C    0.2729818891   -3.5557250472   -3.0995018022
 C   -1.1464048028   -3.9791003142   -2.7975014888
 H    1.0790041349    1.5959283524    0.3210340824
 H   -0.2218269204    2.0067110296   -0.8350661572
 H   -0.5960810798    1.7954874476    0.8937497232
 H    1.0793586430    0.0686451077   -1.6446877523
 H    1.5969258613   -1.7713884381   -2.9219113825
 H    2.3648978683   -4.1330748554   -2.5135595403
 H    1.1227297467   -4.2926383582   -1.1813691579
 H    0.5443653888   -3.6020522186   -4.1514935052
 H   -1.3766010391   -3.8405805703   -1.7391313494
 H   -1.8661879608   -3.3864198832   -3.3731749564
 H   -1.3011035035   -5.0333820980   -3.0526016787