19

 C    0.0124539489    1.4871209497   -0.4041059636
 C   -0.0181274797    0.0713232999    0.1864410508
 C   -1.4098928211   -0.5114683202    0.2362143586
 C   -2.4576670906    0.0989954231    1.1577214100
 O   -3.4423231425   -0.9234702156    1.3859690477
 C   -2.9397116266   -2.1580362317    1.0410619174
 N   -3.4373000145   -3.2636127310    1.3912706584
 C   -1.7397614135   -1.9662730710    0.1854307217
 N   -1.9388696347   -1.0954403320   -0.9953618079
 H    1.0382188842    1.8615652115   -0.4642558124
 H   -0.4099929389    1.4908647888   -1.4135013114
 H   -0.5605358364    2.1942667024    0.2056667564
 H    0.6056536714   -0.5921554967   -0.4205935047
 H    0.4062615938    0.0741810151    1.1983603417
 H   -2.0138216187    0.3933758681    2.1173471706
 H   -2.9684382925    0.9670244706    0.7280405842
 H   -4.2389758466   -3.1168829105    2.0073862741
 H   -1.0247895694   -2.7727681073    0.0861390992
 H   -2.9284368224   -0.8868032732   -1.1194811910