22

 C   -0.1177382635    1.3725720440    0.3476721445
 C   -0.0276475579   -0.1118487718   -0.0133094221
 C   -1.3447061842   -0.6060698368   -0.6207319156
 C    1.4118412299   -0.4350485656   -0.3908398277
 C    0.8581580266   -0.8493796506    0.9606364191
 C    1.2679779691   -2.2896715617    0.5709518539
 C    2.0281268822   -3.1434277501    1.5435623225
 C    0.7608128714   -2.7876949134   -0.7298374843
 N    1.8872665518   -1.8293136446   -0.7266020106
 H    0.8208630735    1.7517400454    0.7626042624
 H   -0.3617795720    1.9695572940   -0.5380314979
 H   -0.9052978169    1.5389477030    1.0911662345
 H   -1.2940029220   -0.6896286110   -1.7114136693
 H   -1.6644348696   -1.5675783051   -0.2151016542
 H   -2.1398610681    0.1116101618   -0.3934016984
 H    2.1024438466    0.3602930675   -0.6464557983
 H    1.0952431017   -0.4553122405    1.9425885202
 H    1.3573125803   -3.5541809526    2.3079673931
 H    2.5149433645   -3.9771019113    1.0298187468
 H    2.8027834177   -2.5600734623    2.0537169421
 H    1.0963420412   -3.7838128373   -1.0099900875
 H   -0.1935332424   -2.5178269010   -1.1514093230