13

 N    0.4653806818   -0.0581520595    0.8496008128
 C   -0.1827917460    0.5808861618   -0.1537621324
 O    0.1330323592    1.6561186583   -0.6226975303
 C   -1.3842964158   -0.1667854827   -0.7184647246
 C   -1.1695750119   -0.8754328789   -2.0705117968
 C   -1.4545346040   -2.1432168539   -1.2675882649
 O   -1.5267823038   -3.3126486549   -1.4451864426
 O   -1.6451542637   -1.4627776357   -0.0772761821
 H    1.2497177903    0.3963898811    1.2873128938
 H    0.1086069741   -0.9212800261    1.2237440276
 H   -2.2663662800    0.4729582934   -0.6622564519
 H   -1.9033282200   -0.6620761601   -2.8485032965
 H   -0.1635543504   -0.8148057128   -2.4877145721