20

 C    0.1246819989    1.5772543462    0.1597803530
 C    0.0666222215    0.0828194243    0.1034991984
 C   -0.8543952957   -0.7625163065    0.9496791984
 C    0.6305120055   -0.9952877579    1.0026705369
 C    1.1754567786   -1.6621615139   -0.2652484033
 C    0.2460151795   -1.9343385791   -1.3892976311
 C   -1.1781420770   -2.4927728051   -1.4820456111
 O   -1.3644341714   -3.1817849698   -2.7097855049
 N    0.6776350826   -0.5354979217   -1.1532288197
 H    1.1239858301    1.9365668575   -0.1043544466
 H   -0.5861049390    2.0192221850   -0.5490961264
 H   -0.1249611063    1.9412708441    1.1611145253
 H   -1.2308638073   -0.2143888366    1.8096698046
 H   -1.5540878888   -1.4996133448    0.5833991114
 H    1.2155676192   -0.9038726811    1.9083900325
 H    2.2150815835   -1.9738463782   -0.3225964364
 H    0.8018706269   -2.3051006010   -2.2525909859
 H   -1.3625607372   -3.2370113815   -0.7013398385
 H   -1.9193579107   -1.6914744459   -1.3713954080
 H   -1.3379263629   -2.5305775838   -3.4184272685