16

 O    0.1779282445    1.2289508347   -0.2907540632
 C    0.0701220232   -0.1163128337    0.0808433245
 C   -0.0386790994   -0.3528892531    1.6002340403
 O   -1.2601696763   -1.1239908736    1.4264780993
 C   -1.3165221969   -0.7670406539    0.0599714668
 C   -2.5438657397   -0.3039149844   -0.6243893440
 C   -1.9355628685   -1.6681672481   -0.9911596896
 C   -1.2354674756   -1.8204237618   -2.2316845329
 N   -0.6288938298   -1.8989074392   -3.2150863718
 H    0.4804017268    1.2719628126   -1.2031112300
 H    0.8297327652   -0.7393474873   -0.4037592556
 H    0.7485240253   -0.9409738383    2.0786946672
 H   -0.2197959955    0.5731241990    2.1558107188
 H   -3.4756027078   -0.3407389863   -0.0714905931
 H   -2.4524294190    0.5043641960   -1.3413826115
 H   -2.4590501365   -2.5467341825   -0.6299866052