19

 C    0.2526738547    1.4711073486    0.1069532356
 C    0.3303152407   -0.0573134570    0.0629975208
 C    0.4699589955   -0.5915449122   -1.3603941174
 O    1.6817187947   -0.0923079865   -1.9728977560
 C    2.6644225348   -1.0343901825   -1.9952221439
 O    3.7593812103   -0.8065004071   -2.4174395101
 C    2.1165385435   -2.3362544848   -1.4230519633
 C    0.5992355063   -2.1306137141   -1.4711789910
 O   -0.1416363606   -2.7503126117   -0.4410498828
 H    1.1458438122    1.9218869078   -0.3337156982
 H   -0.6167817687    1.8381017261   -0.4500455021
 H    0.1624118367    1.8267838900    1.1372684728
 H    1.1742643806   -0.4100480211    0.6680276341
 H   -0.5685366762   -0.5038217100    0.4985543938
 H   -0.3548943959   -0.2181365220   -1.9748311535
 H    2.4926256351   -3.1899060080   -1.9887848512
 H    2.4534540394   -2.4371596395   -0.3852829196
 H    0.2223872922   -2.4390916722   -2.4571960510
 H   -0.1230670754   -3.7013260739   -0.5838802169