11

 N    0.2628042991    1.2925389883    0.0049688056
 C    0.0371149897    0.0482699114    0.0017606920
 N   -1.2453492373   -0.5063758078    0.0108059778
 C   -2.4739708810    0.1392868733    0.0266513685
 O   -2.6654641965    1.3247814091    0.0357738982
 C   -3.6344612453   -0.8814616105    0.0318265939
 O   -4.7806387827   -0.5416301074    0.0451006183
 H    1.2674760685    1.4623081269   -0.0034110579
 H    0.7963786034   -0.7438095856   -0.0086724443
 H   -1.2739158858   -1.5146811545    0.0054582955
 H   -3.3408229622   -1.9596650833    0.0221560124