19

 C    0.0659092923    1.4129420081    0.2291834445
 O   -0.0397658518    0.0097897152    0.0186507794
 C    0.5899527276   -0.4527550212   -1.1087879209
 C    1.5217035601   -1.6380086773   -1.0655084495
 C    1.9973285972   -0.3364350910   -1.6616573076
 O    1.5219224211   -0.1891466723   -3.0060462045
 C    0.1573385532   -0.2400862790   -2.5465537326
 C   -0.9290299791   -0.8588075169   -3.3580548366
 C   -0.8942172843    0.6467605844   -3.1219513699
 H    1.1143397377    1.7154368433    0.3502992203
 H   -0.3701171445    1.9880635523   -0.5956210550
 H   -0.4814424303    1.6316477535    1.1484900195
 H    1.9066474623   -1.8425262526   -0.0707231631
 H    1.3633833733   -2.5053348231   -1.7004375129
 H    2.8877220981    0.2085114668   -1.3749236455
 H   -0.6622559557   -1.2129361151   -4.3476719082
 H   -1.6858914015   -1.4459016448   -2.8481837859
 H   -1.6337285537    1.0753963975   -2.4540123191
 H   -0.6026746821    1.2807078222   -3.9523500623