20

 C    0.0858045057    1.5178513612   -0.1723457697
 C    0.0127980118    0.0214989211    0.1388651832
 N    0.3069916020   -0.7604313127   -1.0824914821
 C    1.3453089892   -1.4368833106   -0.8215094960
 O    1.9134717680   -1.3735183656    0.4027167625
 C    1.0316166599   -0.5221610803    1.1990239615
 C    1.8519900328    0.4688856545    1.9726242921
 C    1.3394376538    0.9712224949    3.3024952660
 C    2.5219226684    0.0404396061    3.2535755628
 H    1.0760221552    1.7988811027   -0.5435814973
 H   -0.6412774921    1.7599387360   -0.9515626202
 H   -0.1379738109    2.1189564816    0.7137405287
 H   -1.0069784071   -0.2129691471    0.4620063798
 H    1.8575858112   -2.0926251228   -1.5180409151
 H    0.5195859396   -1.1889732212    1.9042148738
 H    2.3940983201    1.1828859438    1.3614506028
 H    1.5070713474    2.0127268855    3.5516010652
 H    0.3966948204    0.5758911107    3.6666929345
 H    2.3777913146   -0.9841745983    3.5796693717
 H    3.5047029800    0.4422270005    3.4714851659