17

 C   -0.2369760945    1.5341480145   -0.0218155911
 C    0.2130103908    0.0770872951   -0.1502945383
 C    0.7813686912   -0.4851184684    1.1583124255
 O   -0.2322622776   -0.5498948170    2.2129250487
 C   -0.1885291365   -1.9846412319    2.3296439307
 C    0.8520428986   -2.0436181072    1.2115008749
 O    1.4379796717   -2.8847550862    0.6098590862
 C    1.9955878698    0.1795581094    1.6003246811
 C    3.0180775261    0.6986911696    1.9613603590
 H    0.6041662244    2.1837074514    0.2363973921
 H   -0.6647571498    1.8865942074   -0.9646056667
 H   -0.9966229599    1.6335572207    0.7582588747
 H   -0.6322233816   -0.5547289683   -0.4465959497
 H    0.9834807942   -0.0311516063   -0.9215937870
 H    0.1735316965   -2.3242989643    3.3084553750
 H   -1.1486525554   -2.4671210293    2.1093519788
 H    3.9175572518    1.1636205209    2.2830091461