16

 O    0.0730313044    1.4224555959    0.1934203906
 C    0.0161132192    0.0284122830    0.0498350341
 C   -1.4062249274   -0.5308649999   -0.0314149428
 C   -1.2425064069   -1.8107679049   -0.9079563410
 N   -0.1009363467   -1.4523931519   -1.7516123047
 C    0.6411197570   -0.4139295991   -1.2785099109
 O    1.6043183620    0.1127302047   -1.7953897989
 C   -1.0103288750   -3.0287843433   -0.1256687889
 C   -0.8278455312   -4.0326306614    0.5091624767
 H    0.8487265264    1.7014389588   -0.3159844391
 H    0.5751340671   -0.4775411545    0.8557440399
 H   -1.8567388766   -0.7555229265    0.9348025922
 H   -2.0325201226    0.1929001767   -0.5600686384
 H   -2.1314731376   -1.9598365841   -1.5309737005
 H    0.1912710711   -2.0037607919   -2.5434053544
 H   -0.6627016232   -4.9191137814    1.0707156761