14

 C   -0.0237925208    1.5059341247   -0.0158805788
 C    0.0275595849    0.0531434664    0.0328157499
 C    0.0743092845   -1.1477761687    0.0730673223
 C    0.1052440372   -2.6006584866    0.1172738989
 N    0.5334921503   -3.1432837924    1.4226943568
 C   -0.4127548936   -3.8957549673    1.7946490920
 O   -1.5199812681   -4.0338977946    0.9923918474
 C   -1.2857659832   -3.2309318365   -0.1232623278
 O   -2.0536386374   -3.1349482982   -1.0216209135
 H    0.7108370822    1.9052228491   -0.7231089675
 H   -1.0140704075    1.8541140038   -0.3281064371
 H    0.1884068315    1.9387042691    0.9675415792
 H    0.7818684346   -2.9864361190   -0.6581183979
 H   -0.4518380446   -4.4704105099    2.7122579659