25

 C    0.0976311673    1.5408642348   -0.0250913870
 C    0.0783840297    0.0847870256   -0.0061051851
 C    0.0730857203   -1.1194186891    0.0094543829
 C    0.0300478214   -2.5777861816    0.0288280269
 C   -1.4044811747   -3.1450621785    0.0543028444
 C   -1.4238383735   -4.6769318271    0.0792523035
 C   -2.8244135835   -5.3131866642    0.0081735600
 C   -2.7141078925   -6.8347512765   -0.1609902158
 C   -3.6892417097   -4.9692319474    1.2293750923
 H    0.5840674653    1.9229418773   -0.9297046289
 H   -0.9170242867    1.9540014542    0.0021460943
 H    0.6405686145    1.9452115334    0.8366823474
 H    0.5597966505   -2.9743333304   -0.8482216938
 H    0.5807448960   -2.9512233301    0.9031782042
 H   -1.9238560130   -2.7362981043    0.9273271284
 H   -1.9453927029   -2.7790452584   -0.8270282161
 H   -0.8285722157   -5.0496982533   -0.7659104239
 H   -0.9148695686   -5.0345305206    0.9866743665
 H   -3.3259365421   -4.9114607618   -0.8846724058
 H   -2.2152084497   -7.2893556580    0.7035618080
 H   -3.7025785141   -7.2970766946   -0.2525356985
 H   -2.1361840780   -7.0974623490   -1.0534218572
 H   -3.2175292581   -5.3259665252    2.1533594536
 H   -3.8502254933   -3.8922638784    1.3315290930
 H   -4.6734285289   -5.4439160167    1.1568311066