17

 O    0.3335310855    1.0992775964    0.3712579579
 C    0.1357630294   -0.2303652473   -0.0265038805
 C   -1.3497248757   -0.6463761490   -0.1549439227
 O   -1.1216800490   -0.9825906781   -1.5735211042
 C    0.1745248530   -0.5102044347   -1.5180347100
 N    1.0337581792   -0.3309073518   -2.4108217238
 C   -1.8557001322   -1.8151710410    0.6400782935
 C   -2.7827527304   -2.7983830012    0.0324772540
 N   -1.3930338039   -3.1787615354    0.3536335578
 H    1.1574290535    1.4018938701   -0.0278782892
 H    0.7320498283   -0.9403049110    0.5629891936
 H   -2.0150820411    0.2190145557   -0.0808221391
 H    0.6867731174   -0.5822917821   -3.3379525032
 H   -1.9502167804   -1.5911125953    1.7015254820
 H   -3.5444709685   -3.2735748252    0.6431824542
 H   -3.0450599695   -2.6609681033   -1.0124480289
 H   -0.8539374156   -3.1723081869   -0.5103289614