17

 C   -0.1197422158    1.6197233090    0.0684693258
 C   -0.0729056897    0.1048452474    0.0353871193
 C   -1.3330645537   -0.5682850763   -0.4768703923
 O   -1.5803188827   -0.3376707827   -1.8572837855
 C    1.2502540669   -0.5680952612   -0.2832697332
 C    0.6859014966   -0.6193719250    1.1159149696
 O    1.2606717447    0.1548626010    2.1297511544
 H    0.7693644930    2.0282118479    0.5513740663
 H   -0.1763387884    2.0352342292   -0.9446229508
 H   -0.9924728026    1.9733574567    0.6306861269
 H   -1.2455878490   -1.6552300349   -0.3759954312
 H   -2.1934487321   -0.2520814326    0.1359035139
 H   -1.7611842568    0.6000963789   -1.9719987567
 H    1.2455439536   -1.4689773228   -0.8879241946
 H    2.1071635271    0.0796955706   -0.4378742793
 H    0.2744142530   -1.5700853585    1.4579796889
 H    2.1209372657   -0.2236099067    2.3381347685