18

 C    0.0674197022    1.5173163638    0.0590203892
 C    0.0213706608   -0.0104200331   -0.0562495658
 C    0.6304306875   -0.5126288856   -1.3293506862
 C    0.3293877758   -0.1792042362   -2.8187018280
 C    1.6212402656   -1.0187595089   -2.7448154965
 O    2.0639520054   -0.2057894110   -1.6001571079
 C    0.9150733747   -1.9961615699   -1.7613522288
 C    1.7468682482   -2.7979196923   -0.8829704362
 N    2.3769628542   -3.4644872122   -0.1796583646
 H    1.0963150481    1.8779300533   -0.0191788333
 H   -0.5192113352    1.9944571263   -0.7324259241
 H   -0.3390355164    1.8418536222    1.0205044055
 H    0.5588181370   -0.4728217950    0.7799216331
 H   -1.0132152138   -0.3720582748   -0.0073988931
 H   -0.5580798271   -0.6176377650   -3.2819986549
 H    0.4864981143    0.8636306800   -3.0912536847
 H    2.3548202643   -1.2551644331   -3.5136121413
 H    0.0691893346   -2.5693075285   -2.1487867424