18

 C   -0.0599535463    1.4914610830   -0.0243591963
 C    0.0166996770   -0.0450862143    0.0749070309
 C    0.7922917013   -0.4860259250    1.3131271127
 O   -1.2791296237   -0.6231905367    0.1692828131
 C    0.6920133372   -0.5874172372   -1.1946018014
 O    1.8276836412   -0.9985945813   -1.2475253559
 C   -0.1642844980   -0.5855344383   -2.4967585699
 N    0.5120099793   -1.0907274930   -3.5430750489
 O   -1.3069389309   -0.1499088177   -2.5398112072
 H    0.9378874593    1.9399672733   -0.0681209150
 H   -0.6223977098    1.7969181854   -0.9101302618
 H   -0.5755561124    1.8711027109    0.8625326048
 H    0.2976424230   -0.0901304659    2.2035125293
 H    0.8090923281   -1.5762806011    1.3811437778
 H    1.8217841208   -0.1246323041    1.2812427173
 H   -1.7510315831   -0.3715052382   -0.6401510828
 H    1.4579032366   -1.4072546079   -3.3982790849
 H    0.0761493803   -1.1432819319   -4.4483123017