23

 C   -0.1575643726    1.5352949812   -0.0006041370
 C   -0.1801453692    0.0179869265    0.1988716873
 C    0.9534898420   -0.4835167723    1.1041933090
 C    0.9476414087   -1.9893068710    1.2605273872
 C    1.6110679315   -2.7134889801    2.4006692856
 C    2.3587714645   -2.0075278555    3.5094213027
 C    0.0826799340   -2.6818795278    2.3185046087
 C   -0.6879572199   -1.9140799927    3.2507546059
 C   -1.3478682569   -1.2785293017    4.0322923719
 H    0.7851633808    1.8627422019   -0.4537488668
 H   -0.9720906752    1.8647216099   -0.6532927054
 H   -0.2639642915    2.0612344191    0.9547179229
 H   -1.1400152439   -0.2849548896    0.6338893672
 H   -0.1124890337   -0.4819731077   -0.7767075153
 H    1.9203468401   -0.1705718431    0.6859101954
 H    0.8682366316    0.0010595600    2.0821782060
 H    0.9676877681   -2.5189273991    0.3100712503
 H    2.0343288170   -3.6799895946    2.1382770649
 H    1.8399576283   -1.1077219904    3.8457840210
 H    2.4657281686   -2.6655350868    4.3781894800
 H    3.3639745598   -1.7208851055    3.1815181689
 H   -0.3939188865   -3.6079378291    2.0097890916
 H   -1.9319219058   -0.7231441716    4.7232070381