16

 O   -0.0673366223    0.0337702209   -0.2639839812
 C    0.0081227773    1.2041316992   -0.0374317031
 N   -0.9788514147    2.1910524329    0.1677818726
 C   -0.0372412378    3.1884148827    0.6293095016
 C    0.6054321509    3.2615175379    2.0264097332
 C    1.7861085501    3.3262770714    1.0461984924
 C    0.9852227828    4.2106503707   -0.0187744754
 C    1.3178049040    3.2694984142   -1.1776895764
 C    1.1070570917    2.3189580917    0.0258227181
 H   -1.9598882319    2.0577032920    0.3793063152
 H    0.4040531470    4.1553420482    2.6228606459
 H    0.5386936603    2.3555063208    2.6369776995
 H    2.8523784527    3.4187886014    1.2618035290
 H    0.9248035049    5.3026383880   -0.0100418985
 H    0.5791160779    3.2048259911   -1.9807997903
 H    2.3320702871    3.3169788667   -1.5817405225