19

 C   -0.1075368628    1.4798462266   -0.0625865007
 C    0.0983468664   -0.0399854129    0.0244940538
 C    0.9472406581   -0.4275730966    1.2353521183
 O   -1.1588988881   -0.6890059894    0.1931958942
 C    0.7410944472   -0.5577439639   -1.2741093190
 C    0.4267111676   -1.9179706690   -1.7646272615
 O   -0.1857843573   -0.7781706573   -2.3587184065
 C    2.0403548002    0.0043458464   -1.7722231712
 O    2.8182471932    0.6567457410   -1.1237901034
 H    0.8461336807    2.0081865472   -0.1291376185
 H   -0.7073386553    1.7364402180   -0.9431181971
 H   -0.6426143641    1.8208756355    0.8273058854
 H    0.4535378517   -0.0826168268    2.1480154578
 H    1.0514674104   -1.5146873041    1.2956331376
 H    1.9381575523    0.0241946165    1.1698021837
 H   -1.6641136132   -0.5270268176   -0.6137666645
 H    1.1347793297   -2.4474043329   -2.4003200150
 H   -0.2241089549   -2.5273366487   -1.1440302130
 H    2.2266667681   -0.2465028620   -2.8401458203