15

 N   -0.2877568574    1.3197652618   -0.1965127442
 C   -0.1492246186    0.0676984316   -0.1296686151
 O    1.0751259927   -0.5357121788   -0.3473431830
 C    1.2345254907   -1.8710043859   -0.6665030573
 O    2.3376995815   -2.3246857509   -0.6679620873
 C   -0.0107548865   -2.6328084912   -1.0873622392
 C   -1.2332849598   -2.2270280282   -0.3035080191
 N   -0.9749965219   -1.9551545696    1.1106742775
 C   -1.2814997824   -0.8288071175    0.1977030493
 H    0.5934210024    1.7667892048   -0.4564376283
 H   -0.1701211737   -2.4393066940   -2.1564820181
 H    0.2158137585   -3.6954554388   -0.9756019606
 H   -2.1711652988   -2.6946750483   -0.5905476428
 H   -1.7918264076   -2.1570716336    1.6805190577
 H   -2.2307723491   -0.3144356613    0.2857496304