19

 C   -0.0931569780    1.4608838995    0.0555322329
 C    0.0996343988   -0.0211597229   -0.0388983833
 C    0.0977192736   -0.8774023790   -1.2947187150
 C   -0.2328395151   -2.0372740877   -0.3300005797
 C   -1.0919045540   -3.1979455208   -0.7376731170
 C    1.0381654080   -2.2165542359    0.5320091515
 C    0.6827850778   -0.8446096993    1.0673171858
 N   -0.7754699336   -0.9905609339    0.7126348520
 H    0.7929342572    1.9957248428   -0.3054308234
 H   -0.9519658036    1.7841420106   -0.5423077725
 H   -0.2727222227    1.7624092023    1.0921491570
 H   -0.7595269798   -0.6315721680   -1.9295706419
 H    1.0035907508   -0.9471066503   -1.9077954895
 H   -0.5668060457   -3.8258468647   -1.4673351842
 H   -1.3458626642   -3.8197478259    0.1267461060
 H   -2.0253801548   -2.8533543521   -1.1940489211
 H    0.8937123668   -2.9870575360    1.2950785720
 H    1.9968940904   -2.3712432039    0.0245548409
 H    0.9819607081   -0.3984181949    2.0099016793