21

 C   -0.5099167864    1.2561264212   -0.2550477849
 C   -0.0818823815   -0.1681057011    0.0068231188
 C    1.3580726493   -0.6299870283   -0.2085218974
 C    2.3946014176    0.2488131828   -0.7910012007
 C    3.1799163679    1.1618937109   -0.2184976788
 C    3.2866919084    1.6205466595    1.2088208412
 C    2.2207494569    1.3245812154    2.2263207058
 C    1.2151688588    0.4488608651    2.2156784082
 C    0.8088639250   -0.5370732887    1.1915077132
 H    0.2753035895    1.9682780447    0.0058699390
 H   -0.7559609286    1.4000981742   -1.3129772618
 H   -1.4005692492    1.5085100755    0.3310157849
 H   -0.8385577859   -0.9086737542   -0.2411681311
 H    1.4277494422   -1.6473630004   -0.5895948022
 H    2.5283465563    0.1013576929   -1.8627717660
 H    3.8860597916    1.6714759275   -0.8731715369
 H    4.2498201074    1.2590451555    1.6108372974
 H    3.4229287262    2.7127678873    1.1894852343
 H    2.3188301451    1.9374771914    3.1216747574
 H    0.5810409978    0.4318577671    3.1022005011
 H    0.5564005816   -1.4998572985    1.6324397287