15

 C    0.0113290490    1.7403206850   -0.2157455882
 C    0.0526086850    0.2283907879    0.0029206595
 N    1.0994488010   -0.5222657018   -0.7303680311
 C    1.6152443867   -1.1778682037    0.5057801110
 C    0.7287678784   -0.2447493204    1.3302726002
 O    0.6193242964    0.0660073424    2.4750279537
 C   -1.3300485058   -0.3877840043   -0.1295116810
 O   -1.5492281134   -1.3895864773   -0.7630451892
 H    1.0053123120    2.1666730886   -0.0654137163
 H   -0.3123138274    1.9765604480   -1.2341390171
 H   -0.6800599639    2.2099467232    0.4909177420
 H    0.6681131627   -1.1912464125   -1.3638515932
 H    1.3321605130   -2.2314008477    0.6323603108
 H    2.6939287859   -1.0782476293    0.6644717628
 H   -2.1380722696    0.1530778819    0.4063304360