19

 C   -0.0781095645    1.3983663454   -0.0559349927
 N   -0.0361405208   -0.0408805740    0.0237881878
 N    0.0215032902   -0.7940218799   -1.1143097750
 C    0.0521108055   -2.0551550675   -0.6942864765
 C    0.1016070489   -3.1857709818   -1.6715713371
 C    0.0386168245   -2.1271607273    0.7226050263
 N    0.0690569391   -3.2299683862    1.6262008125
 C   -0.0107661746   -0.8067612193    1.1398849164
 N   -0.1176254807   -0.2904582709    2.4311121112
 H    0.9199251734    1.8470831829    0.0306840918
 H   -0.4987412580    1.6689257719   -1.0248603651
 H   -0.7140211849    1.7901284289    0.7430010169
 H    0.9967887636   -3.8038647258   -1.5320279591
 H   -0.7645596496   -3.8499689571   -1.5657058089
 H    0.1115597019   -2.7948017239   -2.6911703279
 H   -0.7590330198   -3.8120514018    1.5397195949
 H    0.8667430731   -3.8340624950    1.4527367342
 H   -0.0494864874   -1.0607460139    3.0893581832
 H    0.5904528301    0.4012304954    2.6513824671