23

 C    0.1039328005    1.5452524066   -0.1528438905
 C   -0.0681254118    0.0350240944    0.0293746043
 O    0.2748804277   -0.6702440303   -1.1616797439
 C    0.6829551105   -0.4945584208    1.2315865642
 C    2.0991283312   -1.0017614748    1.1597931823
 C    1.0079497025   -1.9419634201    1.5975869075
 C    0.6524201487   -1.6835828052    3.0649038290
 C    0.2828988434   -0.2042291979    2.6965424650
 C    0.9551180473    0.9348409708    3.4550486228
 H    1.1629149999    1.7994229833   -0.2850303253
 H   -0.4496494130    1.8855818509   -1.0326982613
 H   -0.2612485913    2.0952343411    0.7199788830
 H   -1.1356333189   -0.1803891730    0.1739541780
 H    1.1253489700   -0.3329802776   -1.4627422646
 H    2.4727287714   -1.1863042652    0.1578974423
 H    2.8604199149   -0.6690147311    1.8617851925
 H    0.7804691945   -2.8386134548    1.0342966334
 H   -0.2071379118   -2.2555174641    3.4214473536
 H    1.4735909058   -1.8103766932    3.7799838246
 H   -0.8048647864   -0.0806296459    2.7522467228
 H    2.0466861491    0.8575151103    3.4189037798
 H    0.6776167128    1.9115291879    3.0434346676
 H    0.6594395430    0.9247477086    4.5101916630