19

 C    0.2038327313    1.5180296894    0.1670315416
 C   -0.2144045865    0.0787723186   -0.1579467387
 C    0.5740341029   -0.4961754948   -1.3138312624
 C    1.9068415715   -1.1375423130   -1.1116154545
 C    0.7115005615   -2.0222196762   -1.5114618986
 C    0.1636681977   -2.9066025767   -0.5141718900
 C   -0.2940098541   -3.6476640005    0.3148208850
 C    0.6745413201   -2.5129485814   -2.8663031337
 C    0.6478718140   -2.9047300306   -4.0026736424
 H    1.2623596896    1.5697623271    0.4426294038
 H    0.0524689601    2.1803030133   -0.6923145528
 H   -0.3814424174    1.9161518900    1.0013724380
 H   -0.0852630441   -0.5575752310    0.7235093277
 H   -1.2834785184    0.0497141145   -0.4018164554
 H    0.4493065129    0.0313234019   -2.2555914506
 H    2.6799290343   -1.0102875192   -1.8597820282
 H    2.2618717177   -1.2665973422   -0.0950064394
 H   -0.6989945137   -4.3084826067    1.0404951167
 H    0.6196453710   -3.2610944026   -5.0023273861