17

 C   -0.0349238755    1.4583307109    0.1177623844
 C    0.0075876002   -0.0288983265    0.0026869395
 C    0.2840086708   -0.9967854392   -1.1905324591
 C   -0.6235064547   -2.0473818644   -0.5674892519
 C    0.8644264966   -2.0304468194   -0.2365001805
 C    0.5933439675   -1.0603849289    0.9665949873
 O    1.2917835236   -0.7785860642    2.1112373097
 C   -0.9090599124   -1.0774520039    0.6323573524
 O   -2.0327784066   -0.8163187751    1.3716136378
 H    0.9278372623    1.9089448990   -0.1491095335
 H   -0.8031480563    1.8892623834   -0.5343975882
 H   -0.2671624767    1.7512553226    1.1461670228
 H    0.5137326459   -0.8088251785   -2.2328627712
 H   -1.2036497588   -2.8312353891   -1.0385130856
 H    1.6063798185   -2.7992495591   -0.4134264450
 H    1.1470241842   -1.4875265968    2.7487990056
 H   -2.1566678686   -1.5250225108    2.0138195755