19

 O    0.1143017007    0.9754698867   -0.8582968129
 C   -0.0615026996    0.0736300860    0.2301469023
 C   -1.3929105527   -0.5131985808    0.1790552260
 C   -2.4937379818   -1.0046014242    0.1604480647
 C   -3.8043731153   -1.5873668615    0.1280313122
 C   -4.4500200088   -2.1220055383   -1.1399245504
 C   -3.3959437404   -2.7380932677   -2.0666985948
 C   -2.9957539277   -3.7241807314   -0.9178814127
 C   -4.0589350189   -3.0785873445   -0.0223715151
 H    1.0021916040    1.3406074993   -0.7852122258
 H    0.6903751484   -0.7322716952    0.2009378953
 H    0.0656402945    0.5892201677    1.1964713461
 H   -4.5263857642   -1.1104552920    0.7870932382
 H   -5.4311705859   -1.7694607062   -1.4355010004
 H   -3.8378043856   -3.2560985007   -2.9202219564
 H   -2.6196866193   -2.0560894461   -2.4232283061
 H   -3.2293274069   -4.7618809802   -1.1646448266
 H   -1.9660923819   -3.6664113979   -0.5548062437
 H   -4.6859864087   -3.5943262929    0.6955588900