14

 O   -0.1619789230    0.1897981071    0.7688208689
 C    0.0116657500    1.2166484284    0.1782598655
 N    1.2199255989    1.7003452911   -0.3215162561
 C    2.4684686108    1.0568225956   -0.2739518716
 O    2.6469212046   -0.0589743601    0.1451608602
 N    3.4775600688    1.8422085335   -0.8114632641
 C    4.8508290226    1.3853281737   -0.7095512203
 C    5.6382747708    2.1717048069    0.2499137190
 N    6.2479341788    2.8231845668    0.9835857794
 H   -0.7980325428    1.9404973755   -0.0466568019
 H    1.1626789264    2.5885155329   -0.7976445250
 H    3.3337871242    2.8340156986   -0.9195730663
 H    4.8084788791    0.3412268746   -0.3855145661
 H    5.3491967207    1.4206828755   -1.6846640515