19

 C    0.2543992553    0.5187452400   -1.4463865015
 C    0.0113791284   -0.0525756598   -0.0639014882
 C    1.1674377802   -0.5086781260    0.7477693956
 N    0.4434416103    0.7292265938    1.1061400311
 C   -1.3389900912   -0.7254439208    0.1188629339
 C   -1.9337638266   -0.8229644455    1.4846066344
 N   -2.4927570683    0.1275029310    0.5152514543
 C   -1.6328358396   -1.7590892041   -0.8450600753
 C   -1.8426737817   -2.6358600814   -1.6407093377
 H    1.2528037120    0.9622708173   -1.5144005331
 H    0.1714938474   -0.2599549059   -2.2092250980
 H   -0.4837852297    1.2935348477   -1.6824951612
 H    1.0451861493   -1.3251113228    1.4533016165
 H    2.1623076651   -0.4205620450    0.3191717294
 H    0.9712932461    1.5421653475    0.7992625339
 H   -2.5714675368   -1.6716930289    1.7107085187
 H   -1.3427647945   -0.4288448949    2.3047931465
 H   -2.1167750705    1.0496330020    0.7362241259
 H   -2.0444461850   -3.4063535740   -2.3429512850