21

 C   -0.0737611491    1.5617842257    0.0837137016
 C    0.0232733246    0.0246876802    0.0356054065
 C    0.6955693717   -0.4901460145    1.3229878687
 C   -1.4000602152   -0.5585251094   -0.0464482651
 C    0.7959243570   -0.4441634075   -1.2203655809
 C    2.2439173473    0.0164570240   -1.3556961529
 O    2.7410838752   -0.5311975672   -2.5713691504
 H    0.9069029001    2.0328433149    0.2045042480
 H   -0.5253931724    1.9581547992   -0.8325958469
 H   -0.6956435273    1.8833621305    0.9265464176
 H    0.0962566578   -0.2296372866    2.2024640212
 H    0.8017810454   -1.5805973823    1.3045256067
 H    1.6912331656   -0.0592086534    1.4683968341
 H   -1.9183578138   -0.2110548478   -0.9468421483
 H   -1.3775729318   -1.6533913844   -0.0753967134
 H   -1.9978038786   -0.2584032635    0.8212208014
 H    0.7948776772   -1.5409578260   -1.2533456531
 H    0.2590068320   -0.1101871677   -2.1171492579
 H    2.3004931170    1.1156420010   -1.3714636488
 H    2.8418733046   -0.3299248596   -0.4988739570
 H    3.6546027229   -0.2493361356   -2.6738797812