21

 C   -0.0988337448    1.4815698862    0.0929985005
 C    0.5295235089    0.0862190996    0.1033681417
 C    0.2538223912   -0.6894070565   -1.1846561319
 C    0.8769318223   -2.0839697988   -1.1849764580
 O    1.5228006221   -2.5208602857   -0.2542901244
 N    0.6277210131   -2.7866220234   -2.3485417509
 C    1.0190887996   -4.0772549807   -2.7322226314
 C    1.8472274120   -4.8837094522   -1.7668373257
 N    0.6219349337   -4.4415866556   -3.8886859978
 H    0.2886698695    2.0892947672   -0.7326082668
 H   -1.1877722582    1.4296873412   -0.0193952799
 H    0.1130783806    2.0145788382    1.0246302986
 H    1.6120963287    0.1586084114    0.2496982814
 H    0.1545782848   -0.4924299258    0.9537933900
 H   -0.8278057510   -0.7920154898   -1.3494718046
 H    0.6347860174   -0.1385886072   -2.0559366945
 H    0.0775023191   -2.3311567351   -3.0642082195
 H    1.3232486755   -5.0205776249   -0.8183247459
 H    2.0677787595   -5.8570669571   -2.2104668153
 H    2.7794716602   -4.3692695809   -1.5234389445
 H    0.9447640757   -5.3853184701   -4.0934901911