13

 O    0.1090032827    1.4176504188   -0.0541895653
 C    0.1111583265    0.0174838594    0.0413819119
 C   -1.3404972643   -0.5080931094    0.0539509923
 O   -2.0400523311   -0.0140876841   -1.0884649537
 C   -1.3922509446   -1.9631772272    0.1492955108
 C   -1.3931415275   -3.1709249407    0.1934752329
 C   -1.4046400086   -4.5352986369    0.2485647619
 N   -1.4121814604   -5.6959065712    0.2929880947
 H   -0.5061952412    1.6388342462   -0.7654226816
 H    0.6512212443   -0.4608776569   -0.7933377838
 H    0.6187277249   -0.2563379603    0.9710444771
 H   -1.8542009371   -0.0646822141    0.9148129915
 H   -1.7617705735   -0.5280368637   -1.8564505586