22

 C    0.0801172218    1.5368368532    0.0519428613
 C    0.0204225834    0.0190772743   -0.0081436971
 C    0.6312656342   -0.5447317656   -1.2984269945
 N    0.9781503182   -1.9754148622   -1.2430555132
 C    2.2273530088   -2.3224635372   -0.5550741281
 C    0.9186274870   -2.6762677423    0.0521316993
 C    0.3987121506   -4.0958511037    0.0042096056
 C    0.4773571488   -1.8782915431    1.2708812939
 O    0.7148653217   -0.4940442864    1.1256154939
 H    1.1209333481    1.8751769398    0.0545891375
 H   -0.4250425079    1.9761859062   -0.8138413857
 H   -0.4029267087    1.9053162481    0.9607890178
 H   -1.0323399145   -0.3077103796    0.0586595960
 H   -0.0807043970   -0.4001946464   -2.1206971953
 H    1.5337519802    0.0242887616   -1.5529227629
 H    2.8339612670   -3.0831030593   -1.0417397423
 H    2.7859764228   -1.5126024852   -0.0899976349
 H    0.7398904632   -4.5960841176   -0.9050295432
 H    0.7485519705   -4.6714585976    0.8694705010
 H   -0.6971856083   -4.1137462013    0.0093730880
 H   -0.5968256507   -2.0586088902    1.4541975808
 H    1.0253061708   -2.2039980855    2.1617643121