18

 C   -0.0016997680    1.5614996990    0.1240334407
 C   -0.0167492552    0.0263320551    0.0340447113
 N    0.7308801012   -0.5137830666    1.1810746340
 C   -1.4015781814   -0.4691891228   -0.0104932094
 C   -2.5207620581   -0.9074256038    0.0236702353
 C    0.7280616122   -0.4653773415   -1.2544524008
 N    0.0755888385    0.0072738207   -2.4718421277
 C    2.1615719739   -0.1049155850   -1.1969052290
 N    3.2731932772    0.2072757469   -1.2595357534
 H    1.0294447032    1.9235559375    0.1530500836
 H   -0.5286198295    2.0056872396   -0.7230390512
 H   -0.5134388233    1.8848246847    1.0348177133
 H    0.3725925458   -0.1039263339    2.0386450689
 H    0.5668290292   -1.5142492182    1.2576527515
 H   -3.5132750492   -1.2853534292    0.0392526937
 H    0.6647690220   -1.5591715589   -1.2503625200
 H    0.3236785784    0.9750315774   -2.6519898242
 H    0.4023262930   -0.5264271611   -3.2703994966