17

 C    0.4052350107    1.4966331518   -0.3684741020
 C   -0.1078621238    0.1404920111    0.1416283465
 O   -0.1958552322   -0.8257704625   -0.8953963602
 C    0.7077293953   -0.3391116986    1.2631893860
 C    1.4249445468   -0.7510623324    2.1440014796
 C    2.2509325475   -1.2196911666    3.2248793450
 O    3.1171804402   -2.0635801212    3.0874258633
 C    2.0024117813   -0.6072958338    4.5975226881
 O    2.8733095423   -1.1396217207    5.5464693373
 H    1.4397434047    1.4103645443   -0.7152115279
 H   -0.2213931387    1.8208544627   -1.2027277878
 H    0.3708085137    2.2519416370    0.4216344668
 H   -1.1395543700    0.2639095166    0.4926081710
 H    0.7009120645   -1.0458686472   -1.1731205729
 H    2.1154703817    0.4858237543    4.5091703996
 H    0.9476631079   -0.7881651079    4.8635028035
 H    3.4133441282   -1.7855417369    5.0624687440