19

 O    0.1373752244    1.4715591061    1.0387734589
 C    0.1970328122    0.2942242993    0.2667624995
 C   -0.6537201051   -0.8490777336    0.7692627088
 O   -1.3482967051   -0.6488205123    1.9647224848
 C   -1.0643220291   -0.0772162264   -0.4744453448
 C   -2.2934909393    0.8109747104   -0.4626184704
 C   -3.5553369162   -0.0043460980   -0.6205857027
 C   -4.7039403952    0.4684288511   -1.4007813732
 O   -3.8192241825   -0.5200754123   -1.9317290887
 H    0.8863628532    1.4618065646    1.6448987694
 H    1.1587510409    0.1090675469   -0.2067920729
 H   -0.3072167266   -1.8729036069    0.6669947575
 H   -1.1276156142    0.2476502139    2.2542231409
 H   -0.9032591000   -0.5938068164   -1.4167003815
 H   -2.3485124997    1.3739712629    0.4731099331
 H   -2.2298864727    1.5433367533   -1.2752446367
 H   -3.7382133410   -0.7211157487    0.1805199308
 H   -5.7073063260    0.1193125815   -1.1598788972
 H   -4.6586200481    1.4438964346   -1.8846437455