18

 C    0.2385718653    1.4701347402    0.0000305984
 N    0.0373561155    0.0367674506    0.0244780409
 C   -0.2696729959   -0.7616676186   -1.0349711724
 N   -0.3865178960   -2.0244595995   -0.6915607764
 C   -0.1426497810   -2.0529803330    0.6631449305
 C    0.1217863339   -0.7898897836    1.1270322399
 N   -0.1647560273   -3.2218855873    1.4524688288
 C   -1.1491843046   -4.2494122513    1.0721394876
 C    0.2920081585   -4.4607017887    0.8001487280
 H    1.2501451013    1.7293078694    0.3278124626
 H    0.1008894147    1.8294089254   -1.0217479033
 H   -0.4822170441    1.9778145908    0.6485606095
 H   -0.3942671568   -0.3585583633   -2.0300981818
 H    0.3542795532   -0.4194905747    2.1108074695
 H   -1.6316972148   -4.7486330471    1.9076864545
 H   -1.7833326070   -4.0298640253    0.2184651397
 H    0.6137783035   -4.3814887762   -0.2338963729
 H    0.8820269516   -5.1172122477    1.4334427669