16

 O    0.5252928668    0.8151683421   -0.7294813425
 C    0.1495675470   -0.3404988124   -0.0443522162
 C    0.0802397680   -0.3270580755    1.4975490416
 O    0.6370702597    0.3371632454    2.3235043233
 C   -1.1931313770   -1.1980082865    1.4983063039
 C   -1.3301269461   -0.8054232546    0.0171706911
 C   -2.4546690416   -0.0181877845   -0.5858187530
 C   -2.1422239650   -1.4164114392   -1.0775184160
 H    0.3126113261    1.5742481323   -0.1744801957
 H    0.7905780164   -1.1581957096   -0.3995555333
 H   -0.9742569429   -2.2598503379    1.6559744917
 H   -1.9749420117   -0.8855129304    2.1945937534
 H   -3.3557070434    0.1304351667    0.0004064286
 H   -2.1851685976    0.8129494332   -1.2296720946
 H   -1.6820196074   -1.5202703212   -2.0552613624
 H   -2.8325979314   -2.2132017580   -0.8198321299