16

 N    0.0635169158   -1.1768604406   -0.1426263342
 C    0.0277360771   -0.0317599776    0.0096374740
 C    0.0139017577    1.4185459678    0.1969988621
 C    1.4053591635    2.0438249053    0.0488778226
 C    2.0814761188    2.0675719379   -1.3494184138
 C    2.5953565707    3.4972026215   -1.0261054171
 C    1.5150307013    3.5930175069    0.0857166240
 H   -0.6745958481    1.8570119497   -0.5356178578
 H   -0.3993569442    1.6370492439    1.1892648044
 H    2.0801752684    1.5975530067    0.7859474249
 H    2.8152696670    1.2904198749   -1.5710645219
 H    1.3358081483    2.0795840220   -2.1512747119
 H    3.6055352734    3.4801873261   -0.6082003686
 H    2.5634775324    4.2395750189   -1.8260044846
 H    0.5987515826    4.0655674793   -0.2843389290
 H    1.7876845253    4.0604934973    1.0347087369