15

 N   -0.0545907030    1.3792393856    0.1367160676
 C    0.0063673129    0.0071336779    0.0359742027
 N   -1.0462231427   -0.7446475055    0.0175863756
 C   -0.6317657681   -2.1588395440   -0.0085672872
 C    0.8714529918   -2.1068301785   -0.0244872172
 N    1.8972360805   -2.9391137012   -0.0471534346
 N    2.9647761149   -2.0955882805   -0.0281901078
 C    2.6347766456   -0.7734024452    0.0077224458
 C    1.2572071514   -0.7521056425    0.0093974450
 H    0.6927424163    1.8899028298   -0.3077518774
 H   -0.9725602152    1.7566401120   -0.0534517392
 H   -1.0280252805   -2.6863989440    0.8679969252
 H   -1.0536379056   -2.6552586631   -0.8909849979
 H    3.8905526434   -2.4905246664   -0.0397784055
 H    3.3951933983   -0.0091385944    0.0333584049