21

 C   -0.2131513409    1.5243458587   -0.0221583712
 C    0.0370220038    0.0188901553    0.0161142855
 C    0.9964748334   -0.5471571137   -1.0895466443
 C    1.9880675050   -1.2683632424   -0.1514980218
 O    1.0837803104   -1.9018586483    0.8131896108
 C    0.8272525086   -0.5218963985    1.2362464813
 C    2.2941957131   -0.2212352080    0.9198941737
 C    3.4511483389   -0.1992302406    1.8561434165
 C    3.1595101273    0.9943578477    0.9572097904
 H    0.7226034170    2.0906636782   -0.0209147723
 H   -0.7670559096    1.8024742954   -0.9248847924
 H   -0.8062516494    1.8507002523    0.8398754175
 H   -0.9211915589   -0.5084807304   -0.0173797788
 H    0.5003458738   -1.2430400770   -1.7693746656
 H    1.4756873131    0.2404540879   -1.6794165049
 H    2.7406450523   -1.9369025238   -0.5710314660
 H    0.3935870121   -0.4285109870    2.2330878253
 H    3.2563064054   -0.0921581385    2.9185083382
 H    4.3157812884   -0.8125984560    1.6233665815
 H    3.8272892426    1.1787290850    0.1210242079
 H    2.7765965336    1.8961338636    1.4237269388