17

 C   -0.1363400653    1.5783608603    0.0004909852
 C    0.0592332229    0.0596953555    0.0096048947
 C    0.8607196559   -0.4785049749   -1.1802179009
 O    0.6568700262   -0.2338638834   -2.3464156136
 C    1.9442676110   -1.3410446850   -0.6427741819
 C    1.9482109477   -1.3498935102    0.7034632835
 C    2.8532477161   -2.0573295977    1.6511399173
 C    0.8439453615   -0.4669287793    1.2093383828
 O    0.6424347413   -0.2160876756    2.3742862803
 H    0.8264377984    2.0989045599    0.0034903680
 H   -0.6818538647    1.8789806824   -0.8968150474
 H   -0.6948212785    1.8908252196    0.8858256311
 H   -0.9236768879   -0.4310379785    0.0049404137
 H    2.6296975160   -1.8673208723   -1.2975587337
 H    3.6486439680   -2.5977279055    1.1343197130
 H    3.2958483490   -1.3423296656    2.3527455344
 H    2.2817635221   -2.7649236600    2.2626206936