16

 C   -0.0546484330    1.4546972184    0.0210056520
 N   -0.0137025116    0.0053291598    0.0003480411
 C    0.0048158020   -0.7763451942   -1.1194919299
 C    0.0213592199   -2.0999443629   -0.7196213616
 C    0.0364078222   -2.1126150550    0.7114566975
 C    0.0169245829   -0.8022374390    1.1235510642
 N   -0.0615694266   -0.2145830286    2.3981214685
 C    0.0304136615   -3.2232083344   -1.5799519804
 N    0.0393245100   -4.1494193301   -2.2769862670
 H    0.9510193274    1.8888732260    0.0623341377
 H   -0.5543102819    1.8148049428   -0.8801313480
 H   -0.6145448692    1.7784781669    0.9003105915
 H    0.0070600853   -0.3456449438   -2.1069703645
 H    0.0607786308   -2.9855757639    1.3436368184
 H   -0.3337601993   -0.8990991839    3.0922662109
 H    0.8135923696    0.2058363718    2.6970253796