15

 N    0.1414172742    1.2702976501   -0.1269593737
 C    0.0804044257    0.0179850144   -0.2019108618
 O   -1.0969449737   -0.6021727772    0.0938660110
 C   -1.1025291902   -2.0253362323    0.0579568350
 C   -2.4174095971   -2.4876469443    0.7028833404
 C   -2.5170099130   -2.0917210363    2.1691346924
 O   -2.9015959719   -2.8414994148    3.0268518897
 C   -0.9877226786   -2.5275006271   -1.3248417013
 N   -0.8910318448   -2.9234481369   -2.4056472271
 H    1.0724847751    1.5976338092   -0.3757414889
 H    0.8820815134   -0.6733533346   -0.4894489708
 H   -0.2490213368   -2.4207692029    0.6269193311
 H   -3.2421108716   -2.0099052529    0.1594391612
 H   -2.5271510119   -3.5708133369    0.6181102929
 H   -2.2226188688   -1.0462246974    2.3943310699