16

 C    0.1330951671    1.6509908012   -0.0194320981
 C   -0.0017893573    0.1282239987    0.0763526864
 N    0.6089830722   -0.5373836263   -1.0937554586
 C    1.3129502092   -1.7521503194   -0.6628744029
 C    1.4927932996   -1.5223352440    0.8263081855
 C    0.7567261428   -0.4918197258    1.2223608001
 C    0.5570498499   -2.9994605037   -0.9234096050
 N   -0.0505891160   -3.9559629981   -1.1542395170
 H    1.1863842376    1.9340561873   -0.0962240417
 H   -0.3878802762    2.0274130410   -0.9050937443
 H   -0.3039863745    2.1359522876    0.8599913897
 H   -1.0737650254   -0.1170813883    0.1810335729
 H   -0.0513886924   -0.7147798240   -1.8392107339
 H    2.2755954667   -1.8512279491   -1.1845890379
 H    2.1203237549   -2.1603390633    1.4336742142
 H    0.6818864819   -0.1163807139    2.2355686605