21

 C    0.6120956319    1.5181940213   -0.2197928834
 C    0.3647036999    0.0629492052    0.0818252534
 O    1.5030487174   -0.7851086893    0.3209443487
 C    0.5661950627   -0.5993384136    1.3822951063
 C    1.0647514215    0.0161375351    2.6679188643
 C    2.2176316179   -0.7525326126    3.3591424513
 C    3.0308630950    0.5431776583    3.1394005928
 C    4.2161175623    0.4758066230    2.1978711906
 O    1.8819670145    1.1935768060    2.5286735855
 H    1.3428048208    1.9423534387    0.4660051438
 H    0.9687204384    1.6267238986   -1.2499238753
 H   -0.3256829279    2.0787949634   -0.1344956295
 H   -0.3736440818   -0.4095903090   -0.5714110760
 H   -0.0522017554   -1.4802754252    1.5863443945
 H    0.1973555337    0.2119217855    3.3145469956
 H    2.0391788229   -1.0280785390    4.3990757967
 H    2.5827745065   -1.6191120508    2.8049006145
 H    3.3004736152    1.0609161640    4.0689204365
 H    3.9273740916   -0.0245995005    1.2696137562
 H    4.5708648714    1.4830706261    1.9567140349
 H    5.0418776314   -0.0741049953    2.6633642884