17

 C   -0.2234302737    1.5946572169   -0.2044691762
 C    0.1444953574    0.1295462642   -0.0576475640
 C    0.9300342458   -0.5727471680   -1.1442156705
 N    1.5713372486   -0.1474922771    0.0850288537
 C    2.1041738278   -1.0205123839    1.0535765814
 N    2.9988015856   -1.9266152590    0.5223401537
 O    1.8308142116   -0.9522116162    2.2293356891
 C   -0.8071135152   -0.6727080873    0.6752476862
 C   -1.6409427249   -1.3044930799    1.2661112240
 H    0.5415017693    2.1175113733   -0.7836645711
 H   -1.1889830677    1.6974830842   -0.7077830267
 H   -0.2966389878    2.0644598180    0.7801024681
 H    0.7419968958   -1.6343589690   -1.2816518684
 H    1.2033344796   -0.0225896761   -2.0419790033
 H    3.4234652774   -1.7166047113   -0.3669759862
 H    3.5993049210   -2.3645580991    1.2033664280
 H   -2.3577880807   -1.8711727899    1.8072344923