21

 C    0.0658723831    1.5100862202   -0.0063101186
 C   -0.0467438205   -0.0016500804    0.0382418382
 C   -0.8715528442   -0.5986757847    1.1630662833
 C    0.6307514865   -0.7247067347    1.1811771449
 O    1.1915248290   -1.9996809045    0.9788852332
 C    1.6922821785   -2.1982898358   -0.3417067338
 C    0.5169002363   -2.1224902704   -1.3142018370
 O   -0.4703117158   -3.0781405252   -0.9439874129
 C   -0.0296634834   -0.6806376345   -1.3298296024
 H    0.9825222808    1.8269983350   -0.5175735886
 H   -0.7837165710    1.9483485588   -0.5434493313
 H    0.0766402869    1.9413331219    0.9998859454
 H   -1.3401377706    0.0778731155    1.8705646411
 H   -1.4405758999   -1.4960633882    0.9501775513
 H    1.1938726728   -0.1399980347    1.9062776237
 H    2.4643936211   -1.4561975213   -0.5916858548
 H    2.1416114829   -3.1949754022   -0.3439919587
 H    0.8474595947   -2.3869601995   -2.3254574702
 H   -0.3762552212   -3.2071199258    0.0080606314
 H   -1.0272587655   -0.6809056272   -1.7823476341
 H    0.6195868297   -0.0913990122   -1.9912229799