21

 C    0.0586356485    1.6478169079    0.0420587947
 C    1.6038750123    1.4707261795   -0.1009076436
 C    2.3633535372    1.6241934892    1.2270114324
 C    1.6836780346    1.0136070068    2.4321613901
 C    0.8087534080    0.0055238028    2.3986567745
 C    0.4250678935   -0.7416373200    1.1503108949
 C    1.6678751011   -1.1571283921    0.2909127425
 C    1.3627273920    0.0129485114   -0.6537111182
 C   -0.0848988748    0.1246570797   -0.0825989159
 H   -0.3054397283    2.1282312916    0.9543125260
 H   -0.3765592663    2.1558281824   -0.8239335298
 H    2.0681292941    2.1277584102   -0.8410731720
 H    3.3844767035    1.2264832676    1.1248566329
 H    2.4940992482    2.6976997051    1.4188431724
 H    1.9296979364    1.4620871851    3.3922696257
 H    0.3645547928   -0.3309366849    3.3323179010
 H   -0.2466669801   -1.5649216611    1.4000590075
 H    2.6326986841   -1.1855922391    0.8052247580
 H    1.5089423993   -2.1173619619   -0.2102815133
 H    1.5740863310   -0.0966034744   -1.7193371489
 H   -0.9578948573   -0.2966543558   -0.5846400108