21

 C    0.3428725981    1.4575025481   -0.3387558997
 C   -0.0251362251    0.0253307551    0.0385012649
 C    0.2821746952   -1.0147890706   -1.0583587565
 C    1.6593405130   -1.5581477769   -0.6506233303
 C    1.5961128034   -1.4864650893    0.8772779350
 C    2.9419074313   -1.2894012120    1.5758751516
 O    0.7491989080   -0.3724417577    1.1870883614
 C    0.9209583186   -2.7276674511    1.4777030417
 O    0.8730597194   -3.8149112698    0.9637522679
 H    1.3740083096    1.5158409623   -0.7028671986
 H   -0.3223211500    1.8311305758   -1.1243949200
 H    0.2515343245    2.1134940342    0.5313169015
 H   -1.0831383956   -0.0084552840    0.3268373757
 H   -0.4575517881   -1.8206989191   -1.0396016412
 H    0.2707379192   -0.5752832444   -2.0584509112
 H    1.8349385068   -2.5799988026   -0.9906492507
 H    2.4673078774   -0.9196986706   -1.0207517967
 H    3.3940954290   -0.3523242424    1.2393730718
 H    2.8139791124   -1.2348225358    2.6614632623
 H    3.6194958052   -2.1175253621    1.3469322665
 H    0.4549097778   -2.5212011973    2.4679379745