18

 C   -0.1198124262    1.5563052656    0.0107457404
 C   -0.0053912567    0.0528064154   -0.0593920466
 C   -1.2651763688   -0.7954802689    0.2748982443
 C   -0.5199894030   -1.3177729111    1.5374847823
 N    0.7478713990   -0.6559453273    1.0679057831
 C    1.4629568829   -1.4121641644    0.1178675154
 O    2.0146641279   -2.4764194652    0.1929624519
 C    1.0001555930   -0.5605142215   -1.0837421992
 O    0.4946410368   -1.3177406694   -2.1506624914
 H    0.8683206490    2.0267894969   -0.0049604568
 H   -0.6924357855    1.9318481878   -0.8447079204
 H   -0.6308688880    1.8721874637    0.9258586471
 H   -2.1763430173   -0.2230723139    0.4570989692
 H   -1.4650052800   -1.5626627888   -0.4762000102
 H   -0.8619366519   -0.8847241069    2.4796936682
 H   -0.4147559159   -2.3987223008    1.6524484186
 H    1.7242485155    0.1891064672   -1.4328770176
 H    0.9304183489   -2.1787845981   -2.1149844381