17

 O    0.1150339384    1.4227223734    0.0993524631
 C    0.0470522826    0.0593247570    0.0027721693
 C    0.3667404945   -0.7842432056    1.2951129811
 C   -1.1529900358   -0.8759008852    1.5866083452
 C   -1.2907879202   -0.8830518216    0.0576021824
 C   -0.3004527877   -1.9505421011   -0.5625272558
 C    0.6467316710   -2.1607112823    0.6458592611
 C    0.3685390334   -0.7390317736   -1.2350732073
 O    0.6666235098   -0.4196751192   -2.3545313327
 H    0.0554619751    1.7812731683   -0.7956937546
 H    1.0733928653   -0.4004032661    2.0294520465
 H   -1.5177192787   -1.7321550569    2.1624634796
 H   -1.5471874772    0.0526636285    2.0054914090
 H   -2.1978056609   -0.6525085374   -0.4962826303
 H   -0.6476186136   -2.8026652934   -1.1393601951
 H    1.6868555207   -2.3080165846    0.3405193607
 H    0.3509154032   -2.9887209602    1.2960627478