18

 O    0.2635129008    1.2520554713   -0.1713026266
 C    0.0227855920   -0.1102813257   -0.0267891560
 C    0.2808392904   -1.0295933963   -1.2555839167
 C   -1.2274268366   -1.4343818206   -1.2601638088
 C   -1.4413569233   -0.6562018482    0.0595109833
 C   -1.0554786612   -1.4490143291    1.3406008502
 C    0.3426664804   -0.7406667846    1.3754137175
 C    1.5359859771   -1.5530595873    1.5184585797
 N    2.4869698838   -2.2092335313    1.5853510815
 H    1.1740239956    1.3760742186   -0.4640276111
 H    0.5929601056   -0.4637098440   -2.1362762495
 H    0.9941329540   -1.8397095827   -1.0873817940
 H   -1.7735472394   -1.0021392624   -2.1013536897
 H   -1.4424520094   -2.5052439176   -1.2211879520
 H   -2.3007855475    0.0080574534    0.1421600222
 H   -1.6648842493   -1.2478319821    2.2222426719
 H   -0.9972863475   -2.5295010769    1.1950338121
 H    0.3530578245    0.0629827655    2.1161874459