17

 O    0.2016103038    1.4090403603   -0.3210110032
 C    0.1665386889    0.0307308702   -0.0309146752
 C   -1.2413540063   -0.5497641487   -0.0064726869
 O   -1.9359664227   -0.5897158049   -1.3001299553
 C   -2.2372762151   -1.9766632813   -1.1151183468
 C   -0.9884060328   -2.7872592770   -1.0941980777
 C   -1.4306966853   -2.0629214346    0.1646540890
 C   -2.1789294632    0.2093133619    0.9227800441
 O   -1.8416873453    1.1091710361    1.6522009024
 H   -0.2312880320    1.8525003982    0.4187532446
 H    0.7479776353   -0.4711323304   -0.8083482585
 H    0.6350439983   -0.2043494706    0.9390571225
 H   -3.2263595655   -2.3223029379   -1.3891833942
 H   -1.1346792559   -3.8618376823   -1.0423627942
 H   -0.1237931837   -2.4670105186   -1.6658037750
 H   -1.6257858350   -2.5700306643    1.0996958366
 H   -3.2354345735   -0.1263019160    0.8590834680