17

 C    0.1073367258    1.5226297848   -0.2568314258
 C    0.0392550633    0.0754755620   -0.1239942977
 C   -0.0062111384   -1.1225052856   -0.0057642181
 C   -0.0719230176   -2.5643043039    0.1193791987
 O    0.0907947254   -3.0584130293    1.4823118870
 C   -1.1298836422   -3.8306154933    1.4298659503
 C   -1.4498982153   -3.2500392287    0.0598528419
 C   -2.6949390863   -2.8264592884   -0.5657506347
 O   -1.9424992225   -3.9597748073   -1.0460172737
 H    0.7105525237    1.9588509194    0.5468834976
 H    0.5646456654    1.8125239340   -1.2090316812
 H   -0.8878748945    1.9778669340   -0.2099642473
 H    0.6497757715   -3.0477112665   -0.5539062440
 H   -0.9428045469   -4.9118897558    1.4239405625
 H   -1.8133341026   -3.5784424107    2.2486034608
 H   -3.6472225688   -3.0674161179   -0.0959523887
 H   -2.6946673002   -1.9568021368   -1.2199657376