21

 C   -0.0438202079    1.3335379992   -0.1864485172
 O   -0.0490720569   -0.0705349344   -0.1003177473
 C    0.6943188125   -0.5556395208    0.9915150152
 C    0.6575825462   -2.0754527640    1.0109817342
 C   -0.7505096210   -2.6565667141    0.9491393818
 O    1.4291966022   -2.5247581659   -0.1304510870
 C    2.0458446765   -3.7192296908   -0.0167044794
 C    2.7934435833   -4.0503810689   -1.2867109919
 O    1.9984313083   -4.4162550216    0.9666044985
 H    0.9753374204    1.7311112930   -0.3155334415
 H   -0.6434867613    1.6101870197   -1.0568141628
 H   -0.4817000903    1.8004172256    0.7105521840
 H    1.7417010167   -0.2168085093    0.9328354031
 H    0.2781746133   -0.1827319447    1.9439221537
 H    1.1664811479   -2.4240320809    1.9144774052
 H   -1.3383010788   -2.3053319087    1.8033172357
 H   -1.2513570115   -2.3408424257    0.0321317051
 H   -0.7061686283   -3.7468013599    0.9897301383
 H    3.3315796273   -4.9886214892   -1.1576100802
 H    2.0889863948   -4.1377405587   -2.1190633046
 H    3.4905678164   -3.2458713699   -1.5358567329