20

 C    0.7732618199   -0.3732239176   -1.3071288490
 C    0.0467733070   -0.0419422558   -0.0004103804
 C   -1.4508118128   -0.3916701616   -0.0394182934
 C   -1.7430404567   -1.9097265998    0.0274932758
 O   -2.1643495280   -2.1640860496    1.3710531525
 C   -2.5104577513   -0.9853539978    1.9744700639
 O   -3.0178715248   -0.9232627883    3.0625855177
 N   -2.1793168304    0.0488460293    1.1367511294
 C   -2.3984623978    1.4276244258    1.5029186408
 H    1.8315205699   -0.1052994313   -1.2438736859
 H    0.7205158369   -1.4408439198   -1.5462081612
 H    0.3407512003    0.1763248465   -2.1506570912
 H    0.5089121865   -0.5716961586    0.8420085046
 H    0.1537826694    1.0285695524    0.2085795820
 H   -1.8930531086    0.0449960011   -0.9454242208
 H   -2.5460996533   -2.2029572647   -0.6574221724
 H   -0.8615612026   -2.5210393788   -0.1781759609
 H   -2.9871575085    1.4302402070    2.4216987853
 H   -1.4593441879    1.9634231954    1.6878250738
 H   -2.9508536773    1.9575798461    0.7176324795