15

 C    0.1225074465    1.4508981064   -0.0550563668
 C   -0.0730196504   -0.0223843105   -0.0381805858
 C   -1.1692990739   -0.8252763573   -0.0694529843
 C   -0.6882096977   -2.1766067193   -0.0270860712
 C    0.6679650877   -2.1037497536    0.0270822071
 C    1.7499599909   -3.1208989984    0.0884480140
 O    1.0556975237   -0.7922955880    0.0208807068
 H    0.7157322061    1.7704677490   -0.9197971181
 H   -0.8469416990    1.9519397636   -0.1030863768
 H    0.6437369762    1.8002218534    0.8438930837
 H   -2.1960731818   -0.4967559883   -0.1169462660
 H   -1.2758399956   -3.0816267154   -0.0358917676
 H    2.4287652611   -3.0418959966   -0.7687529019
 H    2.3567603912   -3.0120081356    0.9949538886
 H    1.3155269449   -4.1231284093    0.0876980781