15

 O   -0.1145503785    1.3284462168   -0.0776639858
 C    0.0219140348   -0.0505774840   -0.0480788678
 C    1.0509342638   -0.7990139618   -0.8841298623
 N    0.7373876066   -2.1930450887   -0.5709117018
 C    0.2350491120   -2.2794927431    0.8211605425
 C   -0.7167269556   -2.3129383346   -0.3234987938
 C   -1.2251050716   -0.8923543115    0.0377683970
 C   -0.2521074520   -0.8611103135    1.2097962028
 H    0.6297246784    1.7146384827    0.3972736067
 H    0.9304373420   -0.6141743601   -1.9561018990
 H    2.0835522604   -0.5726668894   -0.5950470788
 H    0.6089224199   -3.0578448138    1.4740944493
 H   -1.2728826000   -3.1216788016   -0.7797896550
 H   -2.2270335767   -0.4958012448   -0.0343060694
 H   -0.3806853437   -0.4388616526    2.1958948854