17

 O   -0.1023310901    1.3191353711    0.1453829112
 C    0.0940185435   -0.0530995381   -0.0332389257
 C    1.3348681003   -0.6804120639    0.7147276361
 C    1.1910157374   -2.1165090702    0.2318481510
 C    0.3965978378   -2.0795434210   -0.8599053001
 C   -1.1202241461   -2.1527572721   -0.7994942691
 C   -1.3032541385   -0.8856471836   -1.5748162639
 C   -1.3078090204   -0.7639940807   -0.0624533614
 C    0.2346394287   -0.6671412305   -1.4622191383
 H    0.7474136525    1.7590570866    0.0271734501
 H    2.2333065500   -0.1169412891    0.4133064944
 H    1.2909431313   -0.6410500665    1.8094515344
 H    1.1609028500   -2.9324628070    0.9480173288
 H   -1.8161216842   -2.9625736838   -0.6158704583
 H   -2.0342877359   -0.5878601710   -2.3116722732
 H   -2.1455594002   -0.5726166860    0.5978565560
 H    0.9059580438   -0.2664155743   -2.2191303519