18

 C   -0.8697149657    1.1475743073    0.0751585209
 C   -0.1398489646   -0.1727365330    0.1123685106
 N    1.2324217876   -0.1988536202   -0.4179877379
 C    1.0056259979   -0.4772964233    1.0143445001
 C    1.6080850221    0.5118284731    1.9864767175
 C    1.4407452593    0.0911749755    3.4456347815
 O    0.8184176794   -0.8753717574    3.7989872381
 C    3.0929874536    0.7955339151    1.7298123662
 O    3.7453004881    1.5412656808    2.4128635580
 H   -0.1873949830    1.9873714961    0.2281147333
 H   -1.3447020664    1.2901586675   -0.9009554810
 H   -1.6530261028    1.1843109659    0.8398536087
 H   -0.7670753526   -1.0318633898   -0.1217408759
 H    1.4120302329   -1.0600225956   -0.9261983619
 H    1.0804009766   -1.5093058769    1.3476301960
 H    1.1242508352    1.4962043274    1.9155858196
 H    1.9601463708    0.7572268079    4.1634698781
 H    3.5262850116    0.2521982994    0.8662193480