17

 C    0.0478462396    1.4777729804    0.1988937703
 C    0.0127281683   -0.0272873224   -0.0053172733
 C    0.6612414803   -0.6089667978   -1.2231157399
 N    1.2791523008   -0.7995918266    0.0922469464
 C   -1.1425106495   -0.6893661370    0.5468521574
 C   -2.1331185780   -1.2042719655    1.0031065598
 C   -3.3484658776   -1.7824907704    1.5555632202
 N   -3.2327930190   -3.1081639793    1.8661514880
 O   -4.3726086008   -1.1449982762    1.7103647626
 H    0.9271283618    1.9102770452   -0.2893797915
 H   -0.8456505054    1.9478202275   -0.2219553482
 H    0.0853488682    1.7229467850    1.2647467132
 H    0.2508670647   -1.5085913637   -1.6706417352
 H    1.1060177328    0.0922281521   -1.9249905099
 H    2.0484821240   -0.1439858703    0.2132583763
 H   -2.3430943205   -3.5749385212    1.8332277559
 H   -4.0076754396   -3.5526066397    2.3310636181