19

 C   -0.0517968145    1.5380907648    0.0624383696
 C    1.4132507342    1.9227501127   -0.0101837403
 C    2.1864121519    0.9049981171   -0.3915235500
 C    1.3760848718   -0.3414384277   -0.6724128078
 C    1.8168614273   -1.6706892845   -0.0540037882
 O    0.8058823801   -2.6408495628   -0.2852821851
 C   -0.4234315350   -2.3616451389    0.3627343420
 C   -0.7843887040   -0.8999767632    0.4095338566
 C    0.0235387900    0.0310289988   -0.0855735945
 H   -0.5384970368    1.8461394366    0.9953194784
 H   -0.6188934115    2.0157148293   -0.7520953258
 H    1.7600122802    2.9293635313    0.1950506853
 H    3.2586717391    0.9564284654   -0.5463295661
 H    1.3095160611   -0.5035688603   -1.7603525631
 H    2.7240520600   -2.0665345422   -0.5202886587
 H    2.0068785101   -1.5407536982    1.0235012669
 H   -1.1832701749   -2.9426228088   -0.1755164318
 H   -0.4063477759   -2.7509305185    1.3978817124
 H   -1.7008605031   -0.6442344807    0.9365498400