12

 O    0.2336347350    1.3101771673    0.1046986659
 C    0.0584849636   -0.0144829296    0.0595549646
 N   -0.1259934968   -0.6460395540   -1.0774598731
 O   -0.2742255835   -2.0016873542   -0.7059866189
 C   -0.1526520868   -2.0832350174    0.6239917250
 O   -0.2989318939   -3.2915819289    1.1954558099
 C    0.1524353945   -4.4158660065    0.5230099699
 O   -0.0344891890   -5.4981593795    0.9685095424
 C    0.0571428155   -0.8714005667    1.1946037644
 H    0.1899879321    1.6476669456   -0.8007643950
 H    0.6764858491   -4.1662746907   -0.4096196613
 H    0.1942246302   -0.6270820455    2.2322723762