18

 C   -0.2025230790    1.3855628913    0.3527597903
 O   -0.2775456324   -0.0046446695    0.5593874019
 C   -1.0225396909   -0.6621286777   -0.4361038064
 C   -1.0577164503   -2.1172670037   -0.1107892182
 C   -0.5710022466   -2.8402458729    0.9304043900
 C   -0.9315615563   -4.2091793622    0.6712306189
 N   -0.6898721210   -5.2876313587    1.5347049483
 C   -1.6090695631   -4.2007706786   -0.5108350494
 O   -1.6957863470   -2.9164786174   -0.9966465256
 H    0.3888538986    1.8041853115    1.1702290566
 H    0.2868237466    1.6306309199   -0.6032053361
 H   -1.1996116062    1.8535945653    0.3576570596
 H   -2.0498984713   -0.2578976381   -0.4907226283
 H   -0.5750026054   -0.5058450285   -1.4344525614
 H   -0.0305396215   -2.4506897704    1.7777535197
 H    0.2082013458   -5.2192800273    1.9959272080
 H   -0.7575640063   -6.1852963489    1.0728810376
 H   -2.0779870538   -4.9638168640   -1.1080347055