19

 C   -0.0512756250    1.5071581810    0.0260197091
 C   -0.0199058114    0.0202657244   -0.0457195627
 C   -0.0373025330   -0.8365414306   -1.0693585706
 C    0.0383703637   -2.2046915422   -0.4095053323
 C   -0.8571521461   -2.1603243298    0.8802194145
 C    0.1539680681   -3.0654514046    1.6229353033
 C    1.0301061847   -2.0843095158    0.8069388594
 C    0.0650592105   -0.9077002552    1.1742578159
 O    0.1788909880   -0.3565919208    2.4501638008
 H    0.8167808357    1.8946420772    0.5730196893
 H   -0.0603172792    1.9554824710   -0.9710496437
 H   -0.9390345672    1.8704851316    0.5620335111
 H   -0.0856154037   -0.6352745447   -2.1307987840
 H    0.0511091701   -3.1118242398   -1.0122459876
 H   -1.9506279207   -2.1877885338    0.9105583363
 H    0.1949434219   -2.9603024832    2.7083098749
 H    0.1838843867   -4.1154961260    1.3196357975
 H    2.1202421438   -2.0252881680    0.7525463255
 H   -0.6357008969    0.1145334594    2.6541954832