21

 C   -1.5231523805   -0.2278955440    0.0101268203
 C   -0.0015644284   -0.0850396875    0.0673306456
 C    0.7294409641   -0.6020369049   -1.1960752148
 C    2.2454921380   -0.2908870094   -1.1477025548
 C    2.9951523245   -0.6469642410   -2.4322725118
 C    0.4866082787   -2.0262436584   -1.4053885496
 C    0.3124708563   -3.2123644984   -1.5658731629
 C    0.0698531783   -4.6183516857   -1.7526043921
 O    0.8689841776   -5.3985776443   -2.2192745371
 H   -1.9422269578    0.3310653792   -0.8339250017
 H   -1.8187332120   -1.2750054222   -0.1034528750
 H   -1.9844206454    0.1556101681    0.9249381712
 H    0.2679862885    0.9700909226    0.1933323932
 H    0.3936817358   -0.6152156917    0.9418544685
 H    0.3062305380   -0.0749460147   -2.0655745373
 H    2.3544600672    0.7795804006   -0.9366687011
 H    2.6843951558   -0.8243868589   -0.2963309385
 H    2.9124611825   -1.7143395632   -2.6561934694
 H    2.5975027069   -0.0924035245   -3.2896377386
 H    4.0574935449   -0.4021809357   -2.3417914868
 H   -0.9371378630   -4.9521353362   -1.4278160673