19

 C   -0.0780286892    1.4794465627    0.0989092893
 C   -0.0176662388   -0.0049553851   -0.0392987289
 C   -0.0378284284   -0.8100699241   -1.1615785246
 C    0.0321273721   -2.1621251620   -0.7156438559
 C    0.0969403901   -2.1278517002    0.6463690586
 N    0.1357866275   -3.3647600298    1.3243550177
 C   -0.1121980932   -4.3345789548    0.2058179698
 C    0.1178753645   -3.5973601330   -1.1617590083
 N    0.0648491099   -0.8341953829    1.0788363470
 H    0.8031928000    1.8893790357    0.6103013921
 H   -0.1243518278    1.9385326852   -0.8915928730
 H   -0.9616899099    1.8162519520    0.6576725400
 H   -0.0971008378   -0.4443382107   -2.1763201990
 H    1.0477657236   -3.5354946347    1.7430859763
 H    0.5160610778   -5.2197002075    0.3321270266
 H   -1.1573304436   -4.6541568481    0.2715380402
 H   -0.6455162961   -3.8987731296   -1.8862928806
 H    1.0927948376   -3.8435797063   -1.6075779562
 H    0.0377845518   -0.5244906868    2.0346765887