22

 C   -1.2399896360    1.3162213056    0.0168169695
 O   -1.0037139444   -0.0390034761   -0.2792307539
 C   -0.2385859727   -0.2503923227   -1.4580943143
 C    1.2866622970   -0.0685531136   -1.2290107660
 C    1.8978980384   -1.4887025212   -1.0925161492
 C    0.8398151702   -2.4623437159   -1.5937074205
 C   -0.4402830341   -1.7158289106   -1.8221063172
 N    0.2823612766   -2.3159562395   -2.9277677288
 C    0.9129617917   -1.5738830940   -4.0049521078
 H   -0.3132109575    1.8718585923    0.2274285111
 H   -1.7630927557    1.8266365648   -0.8077122242
 H   -1.8712476861    1.3474692596    0.9084809413
 H   -0.6065279238    0.4262681647   -2.2467606649
 H    1.7393984010    0.4842172997   -2.0569658366
 H    1.4553556798    0.5272745851   -0.3278441749
 H    2.8440531194   -1.5813886450   -1.6373906021
 H    2.1144413538   -1.7233223440   -0.0452313962
 H    0.8622638818   -3.4807628971   -1.2123872367
 H   -1.4267122202   -2.1216986980   -1.6133616072
 H    1.4811536010   -0.6790326703   -3.7149655529
 H    1.5984372434   -2.2455579703   -4.5322091840
 H    0.1401298065   -1.2657013037   -4.7166701844