17

 C   -0.0297437233   -1.2729472539   -0.0675350508
 C   -0.0044589783   -0.0711419196   -0.0498849495
 C    0.0296722873    1.3864484825   -0.0208519502
 C   -0.6628333418    2.0029790804    1.2313353005
 C    0.1522742430    3.2907905597    1.5631635902
 C    1.4943784349    3.0026332470    0.9017290049
 C    1.4282268639    1.9825339821    0.0541488203
 C   -0.4501998896    4.5174065475    1.0401554864
 C   -0.9421307357    5.5225970473    0.6001607416
 H   -0.0531094352   -2.3342629319   -0.0866108793
 H   -0.4590681418    1.7554777840   -0.9351803357
 H   -1.7222963919    2.2046614924    1.0701823342
 H   -0.5690328632    1.3012552310    2.0633589503
 H    0.2591741728    3.4016363934    2.6495238007
 H    2.3645827779    3.6211461475    1.0854255457
 H    2.2394746701    1.6088242317   -0.5587210736
 H   -1.3759599691    6.4123281389    0.2160039645