17

 O    0.1843314504    1.3747692258   -0.1688876964
 C    0.0401668689    0.0035258729   -0.0191347858
 C   -0.0245488823   -0.6747644813    1.3720409415
 O    1.0121487215   -0.6262934666    2.2769625909
 C   -1.4882870081   -0.1378358807    1.5340968800
 C   -1.3962194724   -0.6779460502    0.0837206417
 C   -0.6309267864   -1.9167854695    0.6422667220
 C   -2.4509161233   -0.6735131108   -0.9560425349
 O   -3.5256659100   -0.1376928575   -0.8352559239
 H   -0.2241892260    1.8310351923    0.5740323208
 H    0.7108816941   -0.4644883787   -0.7438140360
 H    0.7282204020   -1.0344315379    3.1022493609
 H   -2.1408490262   -0.6954673223    2.2101967730
 H   -1.6390078599    0.9364904369    1.6641062791
 H    0.0247663147   -2.4540712245   -0.0471956627
 H   -1.2311250623   -2.5938753482    1.2534906800
 H   -2.1725842347   -1.2024410798   -1.8962865803