21

 C    0.2130604801    1.5344479598    0.2210018780
 C    0.2383723901    0.0147295118    0.0872726163
 C    0.8597004363   -0.4618781619   -1.2069518536
 O    1.3027129660    0.2781351148   -2.0560321722
 C    0.8935576324   -2.0003469003   -1.4245038410
 O    0.3360052640   -2.7180510324   -0.6254615623
 C    1.6438822644   -2.5031492620   -2.6458353988
 C    3.1619262721   -2.4201109126   -2.3637685847
 C    1.2079329186   -3.9207039996   -3.0203261100
 H    1.2232294526    1.9499090065    0.1740168857
 H   -0.3624769162    1.9902304512   -0.5890949507
 H   -0.2377647073    1.8287527128    1.1724205938
 H    0.7886303972   -0.4602652688    0.9105561692
 H   -0.7652803936   -0.4236319754    0.1533399700
 H    1.4294567517   -1.8033646670   -3.4610969065
 H    3.4391200743   -3.0707315492   -1.5275233384
 H    3.7185754860   -2.7488309215   -3.2461349078
 H    3.4700605774   -1.3981250239   -2.1309032054
 H    0.1402243426   -3.9611094108   -3.2542727148
 H    1.7639137649   -4.2696469335   -3.8955399880
 H    1.3896701665   -4.6138855881   -2.1944726488