19

 C   -0.0304784237    1.5383233730    0.1482444310
 C   -0.1345579768    0.0194929198    0.0056579708
 O   -1.4634009492   -0.3683994037   -0.3426995531
 C    0.7800119129   -0.5207085362   -1.1027249913
 C    0.8752515240   -2.0166057310   -1.1469474714
 C    2.0028129459   -2.7650062825   -1.0041907891
 O    1.7274122505   -4.0934495089   -1.1041080262
 C    0.3874090025   -4.1957797280   -1.3155780896
 C   -0.1867451812   -2.9675558789   -1.3526771579
 H    0.9807554784    1.8409799165    0.4395444043
 H   -0.2850725141    2.0292521330   -0.7965420232
 H   -0.7208203862    1.9037000711    0.9170625380
 H    0.1573020004   -0.4554181802    0.9560025971
 H   -2.0449403220   -0.1292639089    0.3854196140
 H    0.3973831153   -0.1325789157   -2.0559286734
 H    1.7809592675   -0.0976134333   -0.9657118309
 H    3.0379865930   -2.5124510994   -0.8394891359
 H    0.0072805022   -5.1991667796   -1.4156548666
 H   -1.2296303295   -2.7355768172   -1.4905178964