15

 C    0.1024464605    1.5472655461   -0.2237203321
 C   -0.0151924322    0.0731441782   -0.0628291755
 C   -1.0770167480   -0.7351165913    0.0933432643
 C   -2.5399192319   -0.5083740955    0.1699521429
 O   -0.6450424491   -2.0508820089    0.2003341076
 C    0.7325345507   -2.0804119824    0.1092327832
 O    1.4020804009   -3.0759310459    0.1662695402
 N    1.1081279830   -0.7677667903   -0.0518796232
 H    0.7021426311    1.9935910102    0.5789320579
 H    0.5793389944    1.8121149529   -1.1753163353
 H   -0.8838622817    2.0145634178   -0.2029972184
 H   -2.7676751304    0.5556303849    0.0752632503
 H   -3.0667307731   -1.0441462751   -0.6280064894
 H   -2.9468527019   -0.8626358149    1.1240096152
 H    2.0698168176   -0.4939296959   -0.1479003876