20

 C    0.0139805801    1.4693580540   -0.1979837003
 C    0.0815398593   -0.0225376098    0.0541332025
 C    1.3873846574   -0.7771928813    0.0048206903
 C    0.6431627272   -0.6412359125    1.3191273106
 C    1.2469278614    0.2233188666    2.4154265244
 O    2.3114332219   -0.4144106110    3.1002501147
 C   -0.0631571029   -1.8780402088    1.8385578968
 O    0.8095569303   -2.7532304062    2.5648520692
 H    0.9135148696    1.9883070897    0.1430962200
 H   -0.0864432335    1.6666356653   -1.2707879930
 H   -0.8465322932    1.9246729783    0.3046423114
 H   -0.7709429654   -0.5600843188   -0.3575790088
 H    1.4105410552   -1.7436012547   -0.4908617770
 H    2.3012826964   -0.2022651434   -0.1064571348
 H    1.6627793470    1.1444875821    1.9983639667
 H    0.4471007784    0.5203516883    3.1163922958
 H    1.9806981271   -1.2869465209    3.3538167014
 H   -0.8455496598   -1.6032540325    2.5549801767
 H   -0.5456819198   -2.4192545991    1.0114257763
 H    1.5087889235   -3.0216160052    1.9573135769