20

 C   -0.5373888432    0.9752487150   -0.8249976768
 O   -0.1185191391   -0.3241279723   -0.3840206719
 C    0.8510353855   -0.9006750832   -1.1157378983
 O    1.3500049290   -0.3946462336   -2.0913237176
 C    1.2750418072   -2.2377599691   -0.5121740917
 N    2.1041612142   -3.0552842939   -1.3750558725
 C    1.3783416827   -3.8700118906   -2.3187561073
 C    0.7044149905   -3.3265535017   -3.5668259197
 C    1.9699237226   -4.1532176912   -3.6640777151
 H    0.3016297668    1.6754146577   -0.8117956282
 H   -0.9373518965    0.9254834765   -1.8407385389
 H   -1.3106019695    1.2915427921   -0.1250177225
 H    1.8138579447   -1.9983293371    0.4157018247
 H    0.3827667165   -2.7926885419   -0.2087524384
 H    2.7652957600   -2.4587052723   -1.8617122749
 H    0.8751180536   -4.7024492990   -1.8313950922
 H   -0.2297386408   -3.7757172455   -3.8883613410
 H    0.7919447993   -2.2639745564   -3.7574529189
 H    2.8853595150   -3.6327039938   -3.9289061197
 H    1.9123215416   -5.1632690897   -4.0539856990