15

 C    0.0257289558    1.4639257314   -0.0024862955
 N   -0.0236752185    0.0174319739    0.0158408815
 C   -0.2591193273   -0.8376620905   -1.0389130867
 N   -0.2351015988   -2.0959237547   -0.6762564786
 C    0.0276160178   -2.0830512795    0.6790877001
 N    0.1531589609   -3.2021898487    1.5406760851
 C    0.1579413730   -0.7891758669    1.1073476462
 O    0.4127688840   -0.2603959846    2.3234813922
 H    1.0061299722    1.8258048766    0.3212034835
 H   -0.1585495173    1.8060134978   -1.0224807662
 H   -0.7360569003    1.8896668838    0.6573410284
 H   -0.4377832750   -0.4585656790   -2.0342597996
 H    0.8978484817   -3.8192429748    1.2272560856
 H   -0.6963780465   -3.7605938162    1.5356996012
 H    0.4990989583   -1.0206812487    2.9160651927