12

 C    0.0514352330    1.5228964210    0.0245884207
 C   -0.0651464585    0.0466806166   -0.0574887342
 C   -1.0816442259   -0.8555009708    0.0867677397
 N   -2.4153885521   -1.0479776144    0.3458343642
 N   -2.7323454892   -2.2246043483    0.3276227155
 O   -1.3921100824   -3.0866239732   -0.0072104918
 C   -0.5017246602   -2.1342373857   -0.1220845707
 N    0.7829408697   -2.0787712990   -0.3810791211
 O    1.0350074292   -0.6618217774   -0.3326566630
 H    0.7657472149    1.8080704619    0.8032532575
 H    0.4123973872    1.9323550830   -0.9239365850
 H   -0.9194376958    1.9638682364    0.2554890883