20

 C   -0.0089682858    1.5224461426   -0.0382818742
 C    0.0848160023    0.0066860151   -0.1398747424
 O    1.1088523143   -0.5507964172   -0.4901837707
 N   -1.0631878016   -0.6669667798    0.1848540699
 C   -1.1602464543   -2.1004218366    0.1350019559
 C   -1.8428905453   -2.8928154043    1.2962002138
 C   -3.2202724258   -2.3923762334    0.7625397030
 C   -2.4063192717   -2.7921891618   -0.5063480270
 C   -1.9740548692   -4.0633951224    0.2797012086
 H    0.7989663522    1.8802618175    0.6046929886
 H    0.1513331032    1.9514523536   -1.0313747669
 H   -0.9639114694    1.8836666944    0.3529859165
 H   -1.8658052807   -0.1291911433    0.4639520380
 H   -0.1881391609   -2.4704843402   -0.1894774806
 H   -1.5155151514   -2.9518063718    2.3350606832
 H   -4.0850861982   -3.0185376539    0.9978761524
 H   -3.4766357215   -1.3382236087    0.9016049107
 H   -2.7288800582   -2.7351151038   -1.5468289070
 H   -1.0480668274   -4.5502663904   -0.0369233305
 H   -2.7635288103   -4.7890869655    0.4859514586