11

 O   -0.0088661339    1.4765859835    0.0653602346
 C   -0.0088803628    0.0818011335    0.0809162849
 C    0.7238777591   -0.4492615683   -1.1966029860
 O    1.1902827411    0.3305343145   -1.9774387445
 C    0.7064464847   -0.4777309113    1.2333261798
 C    1.3371585434   -0.9616851202    2.1329422932
 C   -1.3923683859   -0.4524665749    0.0271317822
 N   -2.4577095044   -0.8903974434   -0.0597199633
 H    0.4443008430    1.7266000143   -0.7596627354
 H    0.7849729946   -1.5451907476   -1.2994139374
 H    1.8798856609   -1.3754067001    2.9481159019