16

 O   -0.1286745991    1.4971891825    0.2000051641
 C    0.0412768262    0.1244041583   -0.0372282840
 C   -1.3347705037   -0.6319405892   -0.2338512133
 C   -1.1185874601   -0.6188542538   -1.7915129677
 C    0.3349326521   -0.3883734572   -1.4371860693
 C    1.3938689667   -1.2094886199   -1.3635191286
 N    1.9948906263   -1.1275198351   -0.0891200678
 C    1.2388503822   -0.3722294256    0.7846885619
 O    1.5503307346   -0.0104933795    1.8999526006
 H    0.2201484636    1.6525530192    1.0898620550
 H   -1.3400485669   -1.6436440171    0.1750582449
 H   -2.1785225437   -0.0527660311    0.1469312657
 H   -1.3678609625   -1.5267068939   -2.3437698948
 H   -1.6060764797    0.2409008129   -2.2576907181
 H    1.7038556486   -1.9959739308   -2.0394838278
 H    2.9289998055   -1.4285758898    0.1406287693