14

 O   -0.0395894541    1.4127765467    0.0069435153
 C   -0.0050026426   -0.0024542671    0.0019271683
 C   -1.4160063857   -0.4888719743    0.0129572402
 C   -2.5698531472    0.2374340398    0.0243826116
 O   -3.6157329636   -0.6255867051    0.0314879921
 C   -3.0444085699   -1.8536527718    0.0238435881
 C   -3.8836495966   -3.0577061623    0.0283930920
 O   -5.0905106462   -3.0540779865    0.0389383792
 N   -1.7396049463   -1.8273943325    0.0126696890
 H    0.8644304535    1.7389035169    0.0007136563
 H    0.5072446939   -0.4003225577   -0.8884817973
 H    0.5231099841   -0.4063378509    0.8802558933
 H   -2.7938350944    1.2891153965    0.0287123240
 H   -3.2773365950   -3.9849784218    0.0213332580