23

 C   -0.0347572788    1.5996825134    0.0841894087
 C    0.0592243734    0.0831053038    0.0270390392
 C    1.1049529162   -0.5779230873   -0.9149844677
 C    1.3701487185   -1.6469922693    0.1811214250
 C    2.7971700883   -2.1260238781    0.4071755780
 C    2.9163401955   -3.0869738020    1.6093509056
 C    4.2798985730   -3.5449059341    1.8449848941
 C    5.4135273205   -3.9064682402    2.0167226188
 C    0.7175345867   -0.6795991442    1.2114826566
 H    0.9463912062    2.0465386010    0.2823555439
 H   -0.4035402670    2.0129175811   -0.8615523416
 H   -0.7159014519    1.9276519176    0.8777054400
 H   -0.9312670401   -0.3418805292   -0.1733263150
 H    0.7715900486   -0.9207803031   -1.8980720385
 H    1.9779986192    0.0712190399   -1.0513650038
 H    0.7133986577   -2.5112415828    0.0203271636
 H    3.1698430791   -2.6323072234   -0.4916063194
 H    3.4552540319   -1.2643543254    0.5736004796
 H    2.5381663122   -2.5890947970    2.5117763258
 H    2.2628050049   -3.9545381303    1.4471215536
 H    6.4106206666   -4.2329693409    2.1781826451
 H    1.4772358766   -0.0602676291    1.7036385440
 H    0.0623880328   -1.1002589006    1.9789223446