21

 C    0.0240943398    1.5378200902   -0.0092897061
 C    0.0189137168    0.0224278685    0.0169356703
 C    1.3476463512   -0.6921552452   -0.2006308868
 C    0.7063631950   -0.6883851250    1.1610587630
 O    1.2525775869    0.1171584902    2.1719272524
 C    0.0893126892   -1.9718249810    1.6929836791
 O   -0.7015154964   -2.6359971898    0.7280685152
 C   -1.7533123342   -1.7974018689    0.2736839131
 C   -1.2317527214   -0.6373812147   -0.5795585300
 H    0.9273424297    1.9407165255    0.4521048070
 H   -0.0339424638    1.9040838364   -1.0410140533
 H   -0.8363592253    1.9425546435    0.5360923203
 H    1.3412115331   -1.6220355407   -0.7611626781
 H    2.2280717229   -0.0719778752   -0.3359039350
 H    2.1106917642   -0.2496497823    2.4114815940
 H    0.8692499267   -2.6809373483    1.9962184138
 H   -0.5099212604   -1.7219108675    2.5848839485
 H   -2.4313045031   -2.4348093979   -0.3012729172
 H   -2.3109555877   -1.4078858198    1.1416274081
 H   -2.0299017804    0.1075119567   -0.6772376626
 H   -1.0109181028   -0.9935651049   -1.5926225356