21

 O   -0.1051990871    1.3598968019   -0.1404492922
 C    0.0530655184   -0.0082160735   -0.0146768758
 C   -0.8396019040   -0.7474856881    0.9230372021
 C    0.6587231089   -0.8699800851    1.1059399595
 C    1.2074033979   -1.8464096375    0.0608611013
 C    0.6621592940   -0.9211315578   -1.0899833173
 C   -0.2219863127   -1.4896769439   -2.1675638268
 C   -0.4251164755   -0.7339940056   -3.4580224323
 C    0.3774344927   -2.0108158879   -3.4518603304
 H    0.7451590709    1.7373510127   -0.3923763861
 H   -1.3309920995   -0.0987144815    1.6409714793
 H   -1.4355368588   -1.6019669451    0.6075472512
 H    1.1451612526   -0.5800287408    2.0289197094
 H    2.2958992230   -1.9356977001    0.0543585363
 H    0.7754111385   -2.8527450460    0.0895500309
 H    1.5105549566   -0.4049906797   -1.5594371286
 H   -1.0886821898   -2.0324287014   -1.7991922445
 H   -1.4095016172   -0.7444065334   -3.9124230986
 H    0.1084937188    0.2024393274   -3.5843592973
 H    1.4533414250   -1.9347112172   -3.5743131662
 H   -0.0565860627   -2.8958679873   -3.9038479638