19

 O   -0.4235127081    1.4355735320    0.7061352882
 C   -0.1549714085    0.1025590490    0.4141068524
 C   -0.9294067497   -1.0000352486    1.1091074247
 C   -1.1775494350   -0.6792021826   -0.3544708422
 O   -2.3049768579    0.0732764567   -0.6886014716
 C   -3.5212381410   -0.6582375895   -0.6927623494
 C   -4.6352735089    0.2854344748   -1.0465042436
 C   -6.0071099746    0.0474053055   -0.5841632412
 O   -5.1935235272    1.0491712049    0.0237441795
 H   -1.3013181905    1.6217747348    0.3461496273
 H    0.8960315114   -0.0639720645    0.1982380780
 H   -0.4285873812   -1.9291251532    1.3600178982
 H   -1.6852386550   -0.6735426733    1.8158574547
 H   -0.8701332146   -1.3956046126   -1.1162760232
 H   -3.4679072418   -1.4702907861   -1.4359034577
 H   -3.7097030104   -1.1070259536    0.2922637673
 H   -4.4840582867    0.8482851339   -1.9679293543
 H   -6.8440891093    0.4124601804   -1.1770584244
 H   -6.2240136511   -0.8201010278    0.0382964974