19

 C    0.3023590903    0.6427274838   -1.2845044451
 C    0.1702763326   -0.3063103925   -0.0956465920
 O    0.7872405035    0.1645601578    1.0934367465
 C    2.2062767400    0.0501361970    1.1586093270
 C    2.6355584719    0.7099488595    2.4697137886
 C    2.6484349314   -1.3488102665    1.0795628312
 C    3.0097464609   -2.4939161229    1.0183448674
 C   -1.2851000036   -0.5646523082    0.2792032211
 O   -2.1955207742   -0.5778500880   -0.5064052948
 H    1.3277916964    0.6784655382   -1.6609423060
 H   -0.3527891337    0.2990114455   -2.0884470310
 H   -0.0036467436    1.6524213149   -0.9962561216
 H    0.5860964868   -1.2950124611   -0.3591912555
 H    2.6607883035    0.6003758257    0.3204081115
 H    2.1897269040    0.1830241621    3.3164934381
 H    3.7231904377    0.6840663218    2.5695179461
 H    2.2974751307    1.7489525909    2.4811703602
 H    3.3326051536   -3.5046396091    0.9647270290
 H   -1.4281816581   -0.7624181489    1.3637315793