16

 C   -0.0354550062    1.3669973074   -0.0368164070
 N    0.0070720781   -0.0804688615    0.0420033922
 N    0.0085644772   -0.7943415356   -1.0993426836
 C    0.0602829371   -2.0793842519   -0.7180798797
 N    0.1493045979   -3.0884360550   -1.6708570932
 C    0.0816661736   -2.1956039238    0.6811590936
 C    0.0440768657   -0.8848297172    1.1438763866
 C    0.0455026616   -0.3846017151    2.5130552833
 O    0.0708082343   -1.0966997549    3.4933680674
 H    0.8563888702    1.8151589163    0.4112736345
 H   -0.0716564771    1.6229115535   -1.0948236293
 H   -0.9246002003    1.7652010648    0.4607418670
 H   -0.1394364295   -2.7749029103   -2.5879958053
 H   -0.3297714600   -3.9385025742   -1.4096726174
 H    0.1262414416   -3.0826819393    1.2908681908
 H    0.0211859357    0.7227576168    2.6129400802