19

 C   -0.0820337681    1.5416908638   -0.1912722087
 C   -0.1122787166    0.0226335800    0.0552961361
 C   -1.4546061857   -0.5403489028    0.0635829067
 C   -2.5684259959   -1.0083396812    0.0697883493
 C   -3.9011733362   -1.5485861710    0.0919666748
 O   -4.1294845542   -2.7424975543    0.1763627688
 C   -5.0683307077   -0.5585104148    0.0245712790
 C   -5.0280761077    0.2811721551   -1.2594831033
 O   -6.2767786178   -1.2601632298    0.1227892595
 H    0.9498573716    1.9031739597   -0.1845051736
 H   -0.5269534002    1.7880662094   -1.1588501699
 H   -0.6390007542    2.0735824506    0.5843826742
 H    0.4804491918   -0.4952870422   -0.7096047409
 H    0.3687168946   -0.2120032266    1.0137354352
 H   -4.9495707941    0.1190904110    0.8882905829
 H   -5.0884765172   -0.3669008367   -2.1388366037
 H   -5.8883724071    0.9547106681   -1.2703270484
 H   -4.1126853606    0.8763276510   -1.3155813322
 H   -6.0242915946   -2.1947118593    0.2056022942