15

 C   -0.0008666083    1.5387673877    0.1287271063
 C   -0.0117709898    0.0583368466   -0.0092896362
 C    0.0043722928   -0.7738550374   -1.0912875904
 O    0.0234264494   -0.4036788081   -2.3956870061
 N    0.0206994996   -2.1018903743   -0.7360210026
 C   -0.0012183775   -2.0948581995    0.5805001290
 N   -0.0875168804   -3.2210017896    1.3977033803
 N   -0.0096371248   -0.8332323136    1.0799436673
 H    0.8891882568    1.9094407373    0.6550895696
 H   -0.0036118355    1.9867029727   -0.8678080702
 H   -0.8798385400    1.9227424876    0.6643242609
 H    0.0423539664   -1.2225884508   -2.9040293927
 H   -0.0146427562   -4.0561392445    0.8301180072
 H    0.6149936979   -3.2446586140    2.1280182465
 H   -0.1511807005   -0.5831371200    2.0435483911