25

 C    0.0807585987    1.2955928232   -0.5155458023
 C   -0.1772500522   -0.1948180457   -0.2628121860
 C   -1.6220955413   -0.5459783139    0.1328243767
 C   -2.0534988231    0.1823429928    1.4053247394
 C   -2.6352369343   -0.4662750353   -1.0593394856
 C   -2.6718088181   -2.0199211080   -1.1681064388
 C   -1.9844915742   -2.6204123747   -2.3918850516
 C   -1.8792652208   -2.0981792812    0.1758647761
 O   -0.7971472812   -2.9909692630    0.2984078863
 H    1.1011108642    1.4540423854   -0.8782606785
 H   -0.6042591309    1.7000124577   -1.2686952485
 H   -0.0388281964    1.8890467417    0.3951960659
 H    0.0979477037   -0.7447543373   -1.1728329299
 H    0.4975457668   -0.5556244598    0.5235342703
 H   -2.0825797507    1.2683574326    1.2690247708
 H   -3.0570103023   -0.1332658046    1.7106405523
 H   -1.3696324719   -0.0344611815    2.2347265813
 H   -3.5953024031   -0.0246930299   -0.7792397081
 H   -2.2728872171    0.0533433110   -1.9519792596
 H   -3.6765506949   -2.4468395953   -1.0916517437
 H   -0.9932164863   -2.1876747265   -2.5714754551
 H   -1.8634099947   -3.7033465013   -2.2850327824
 H   -2.5774065361   -2.4346867488   -3.2935391442
 H   -2.5422032461   -2.3506273569    1.0088897579
 H   -0.1958461776   -2.8447754105   -0.4382196828