13

 C   -0.0267536469    1.5255520232    0.0041304442
 C   -0.0071375244    0.0314165484   -0.0133493179
 C   -0.0458557984   -0.7335848299   -1.1358194381
 N   -0.0282708338   -2.1130054737   -1.1658626971
 N    0.0285492646   -2.7580205098   -0.0688414108
 N    0.0691686719   -2.0585367039    1.0763489196
 C    0.0582497589   -0.6676835880    1.2612004573
 O    0.1003174908   -0.1792295252    2.3737029105
 H    0.8662662842    1.9120540858    0.5068357244
 H   -0.0764980991    1.9374251192   -1.0059850419
 H   -0.8827484081    1.8881829572    0.5832272485
 H   -0.0951489541   -0.2798880999   -2.1210282320
 H    0.1135112644   -2.6340388834    1.9088894432