13

 O   -0.1346229477    1.3956139072    0.1498323899
 C    0.0224157420    0.0157536658    0.0146453188
 C    0.8157615957   -0.3085928169   -1.2571971836
 O    1.1939122446    0.5713907362   -1.9846795514
 C    0.6981066812   -0.5988793990    1.2062137771
 C    0.3130627609   -1.5342849880    2.1141855290
 N    1.3676469120   -1.7084934239    2.9794733386
 N    2.3298771863   -0.9674714590    2.6628739264
 O    1.9424012849   -0.2200555405    1.4983902881
 H    0.3581808928    1.7891757257   -0.5895150440
 H   -0.9566153553   -0.4829134888   -0.0892655932
 H    1.0068666160   -1.3789712498   -1.4623877212
 H   -0.6133324034   -2.0720204289    2.2202216356