22

 C   -0.1555035744    1.5345290092    0.0747615156
 C    0.0253212789    0.0157674813   -0.0163904256
 C    0.8089940625   -0.4737638049   -1.2504434073
 C    2.2592749142    0.0325122624   -1.2437315552
 C    0.7334988121   -2.0089672320   -1.3377197138
 C    1.2875504521   -2.6031359094   -2.6503946198
 C    1.1056990367   -4.0474179295   -2.7331528914
 C    0.9427604725   -5.2377852631   -2.7751927926
 H    0.7977347405    2.0578909774    0.1952251897
 H   -0.6397997741    1.9293814204   -0.8257122309
 H   -0.7832154599    1.8002429475    0.9311174942
 H    0.5258364670   -0.3496316441    0.8912353132
 H   -0.9651547778   -0.4566460392   -0.0252450640
 H    0.3095500345   -0.0638278563   -2.1422689784
 H    2.8058265061   -0.2778436378   -2.1390403490
 H    2.3044735975    1.1243276282   -1.2050892764
 H    2.8011277423   -0.3546066011   -0.3719703982
 H    1.2711638012   -2.4548170414   -0.4911899149
 H   -0.3112616941   -2.3244743619   -1.2374589503
 H    0.7895431016   -2.1242411667   -3.5043904092
 H    2.3542656569   -2.3714251919   -2.7528823616
 H    0.8047704240   -6.2891967571   -2.8240841240