21

 C    0.4818154770    1.5206244496   -0.5818147388
 C    1.6261027292    1.5212263108    0.4700781465
 C    1.4026591915   -0.0030543122    0.6776239704
 C    0.0400468293    0.1116149045   -0.0764613453
 C   -0.0807781788   -1.0745511535   -1.0503752080
 C    1.3388831693   -1.6537585798   -1.2224661771
 C    2.2512283161   -1.0019790102   -2.2787855189
 O    2.9641829981   -0.2499323766   -1.2752372188
 C    2.2615206284   -0.9257088264   -0.1990863058
 H   -0.2630794087    2.3165874984   -0.5037709167
 H    0.8639928024    1.5048651546   -1.6050710140
 H    2.6137558022    1.8222824041    0.1195526748
 H    1.3703877131    2.0920270236    1.3663361423
 H    1.3835907820   -0.3654753114    1.7091548308
 H   -0.8267298792    0.1840904320    0.5849877259
 H   -0.7380259560   -1.8392464748   -0.6218671246
 H   -0.5231106224   -0.7837769214   -2.0103796060
 H    1.3504444357   -2.7445817470   -1.2199401349
 H    2.9165244998   -1.6983966261   -2.8056360238
 H    1.7625312816   -0.3525812066   -3.0161288869
 H    2.9569957496   -1.5430439615    0.3809980487