16

 O   -0.1968340376    1.1191526752    1.2230673013
 C    0.0031595101    0.1381725687    0.2379633147
 C    0.5137523331   -1.1494137592    0.9170843895
 C   -0.9374996990   -1.7365704141    0.9209269809
 C   -1.6260321274   -1.5971793367    2.2625962682
 O   -2.1179403717   -2.5252534555    2.8500556952
 C   -1.3115487844   -0.6389519213   -0.1421376251
 C   -2.5507266451    0.1063629443   -0.0256666874
 N   -3.5017753019    0.7564671813    0.0788047036
 H   -0.7631806501    1.8137226496    0.8653146194
 H    0.5753498207    0.5241633802   -0.6140490501
 H    1.1823265869   -1.7302691779    0.2793090998
 H    0.9859437012   -0.9887753179    1.8876402127
 H   -1.0524126836   -2.7653584285    0.5794035766
 H   -1.6208423305   -0.5713126857    2.6857092402
 H   -1.2342028505   -1.0618567824   -1.1472827193