19

 C    0.0281160320    1.5438873423   -0.1172212066
 C    0.0302383074    0.0504630783    0.0333807142
 O    0.4539435600   -0.5968846308   -1.1648454801
 C    0.3623830022   -1.9945009521   -0.8223644453
 C   -0.1273827799   -1.9022205546    0.6142999051
 C    0.7235905350   -0.7279408070    1.2140875330
 C   -0.0809723773   -0.3073494390    2.4350528647
 O   -1.4227936394   -0.3380120935    1.8938566718
 C   -1.1946213481   -0.7651932497    0.5584006039
 H    1.0443691005    1.9270788183   -0.2524690167
 H   -0.5612313661    1.8310100630   -0.9933104354
 H   -0.4142499562    2.0151542313    0.7640859816
 H   -0.3431594193   -2.5012331377   -1.4926269980
 H    1.3449065034   -2.4724413063   -0.9225857616
 H   -0.3076320132   -2.8219680930    1.1702734846
 H    1.8095038326   -0.7852294986    1.2931216869
 H   -0.0016790638   -1.0055825410    3.2775521799
 H    0.1572284859    0.7013940853    2.7929819796
 H   -2.1339613958   -0.8472753451    0.0123038983