18

 O   -0.1204599782    0.1725211975    0.7749421479
 C    0.0819642500    1.0179517727   -0.0669147346
 C    1.2737084966    1.9087558847   -0.0900497346
 C    1.8150540803    2.2680583206    1.2958256721
 C    2.5461012200    1.2688042217    0.4704158349
 C    1.4159855056    2.9224729275   -1.1911642568
 C    0.9813258982    2.6544472494   -2.6121361682
 C    0.2399034370    3.6685794561   -1.7743340788
 H   -0.6479158819    1.1651752078   -0.8916152071
 H    2.2297905647    3.2638621531    1.4063397895
 H    1.2407091431    1.9004442410    2.1382461667
 H    2.4655582811    0.2261881697    0.7552875998
 H    3.4779596352    1.5578053127   -0.0028311961
 H    2.3268955475    3.5074026256   -1.0930609698
 H    1.6144378447    3.0120600092   -3.4165945820
 H    0.4858633823    1.7140920068   -2.8300282420
 H   -0.7555858113    3.4121858169   -1.4272204702
 H    0.3653101753    4.7206785270   -2.0050569406