19

 C   -0.0199950171    1.5099579247    0.0180081858
 C    0.0033240396   -0.0271698262   -0.0003989791
 C    1.0007170817   -0.6071283140   -1.0813820503
 C    1.9870331254   -1.2834026478   -0.1105313412
 C    1.0784675037   -2.0588260350    0.8682567887
 C    0.7694372163   -0.5981274600    1.2445411096
 O    2.1488736385   -0.2571462961    0.9243633937
 C   -1.3463907398   -0.5658220025   -0.1100296711
 C   -2.4653542112   -1.0021735523   -0.1817309054
 H    0.9935155963    1.8847252406    0.1793309058
 H   -0.3967841050    1.9031135110   -0.9305244023
 H   -0.6685750046    1.8802522734    0.8178319024
 H    0.5226983795   -1.3075080751   -1.7689649095
 H    1.4776174269    0.1895734241   -1.6563255415
 H    2.9265366133   -1.6738634247   -0.5009833443
 H    0.2775354069   -2.6881142939    0.4763232131
 H    1.6528474544   -2.5635342295    1.6451477873
 H    0.4361863086   -0.2723285008    2.2297521934
 H   -3.4527571633   -1.3868315058   -0.2495028951