14

 N   -0.0172772079    1.4197911602    0.1288454913
 C    0.0014215582    0.0188851140    0.0472567032
 C   -1.1642976313   -0.7518017503    0.0413908883
 N   -1.1629168122   -2.0807474728    0.0344614684
 C    0.0385061163   -2.6752489825    0.0378221865
 N    0.0579125164   -4.0505093065    0.1010942570
 N    1.2229324550   -2.0478414675    0.0181651380
 C    1.1877732067   -0.7193732762    0.0254137725
 H    0.8012064573    1.8587793799   -0.2716758317
 H   -0.8538093395    1.8358700594   -0.2586274855
 H   -2.1409840312   -0.2676162472    0.0369926616
 H   -0.7924395474   -4.5045388088   -0.1911761463
 H    0.9163890054   -4.4809641004   -0.2028625568
 H    2.1505792841   -0.2084327012    0.0078475736