20

 C   -0.0114988117    1.4974205910   -0.0109659119
 C    0.0924843930   -0.0090329954    0.0312196320
 C    0.4661671365   -0.6910137714   -1.2860737488
 C    0.3542341137   -2.1739466350   -0.8607062096
 O    1.5834301360   -2.8843981036   -0.8459576250
 C   -0.0899068138   -1.9629265406    0.5741281115
 C    0.6974245316   -0.8029158222    1.2335159655
 C   -0.6078402434   -0.5113458871    1.9835949924
 N   -1.1320782359   -0.8221500867    0.5754829238
 H    0.9405670592    1.9271581032   -0.3413088226
 H   -0.7805168661    1.8009323712   -0.7293713236
 H   -0.2594142370    1.9435844872    0.9545918221
 H   -0.2302343401   -0.4174937660   -2.0850108194
 H    1.4836741702   -0.4440993179   -1.6052001261
 H   -0.4064978842   -2.7163096093   -1.4384379068
 H    1.8543100573   -3.0319010660   -1.7571494076
 H   -0.3656605555   -2.8403660147    1.1605238527
 H    1.7297561737   -0.8030583261    1.5998931576
 H   -0.9365475823   -1.2383588230    2.7316068215
 H   -0.8153249811    0.5033900225    2.3279396022