19

 O   -0.1034345782    1.3078947817    0.1350713981
 C   -0.0115606794   -0.1043866915    0.2359866376
 C   -1.4197887248   -0.6474161671    0.0817232576
 C   -2.1144265725   -0.5448229882   -1.2987002841
 C   -2.7526553249   -1.9350639936   -1.0385493913
 O   -2.9297678674   -2.8425422226   -2.0805015889
 C   -1.6613631664   -2.2099447976    0.0567759933
 C   -0.4671879202   -2.9732365276   -0.4349753911
 O   -0.2017820654   -3.1736021052   -1.6017265825
 H    0.7862852177    1.6723760354    0.1546019657
 H    0.6402400872   -0.5181905947   -0.5496068266
 H    0.4075049108   -0.4097949759    1.2097445510
 H   -2.0460844848   -0.2126569578    0.8660551033
 H   -2.7782948432    0.3024468996   -1.4762172888
 H   -1.3830610698   -0.6040055594   -2.1106182277
 H   -3.7261354565   -1.8256452865   -0.5504311014
 H   -2.0477983049   -3.0337326949   -2.4300725965
 H   -1.9879079771   -2.6423962621    1.0076500261
 H    0.2123120298   -3.3583287821    0.3573251964