19

 O    0.2672874329    1.1648685665   -0.5833181125
 C    0.0977192399   -0.1230661220   -0.0386526159
 C    0.1992899291   -0.2364713916    1.5391315425
 C   -1.2898963548   -0.6613611706    1.5496310997
 C   -2.4584186233    0.3310279441    1.7781913792
 C   -2.5160256856    0.5371725611    0.2129228231
 C   -1.4001536676   -0.5300242633    0.0445700877
 C   -1.7445494283   -2.0300063217    0.0861086852
 O   -1.5890019199   -2.0728624832    1.5435681596
 H    1.1829344286    1.4300481844   -0.4481537272
 H    0.7167297981   -0.8626495124   -0.5678454970
 H    0.8903860310   -0.9938794524    1.9150007510
 H    0.4036023889    0.7226750802    2.0242925787
 H   -3.3393375417   -0.1509037347    2.2073534335
 H   -2.2223533558    1.2233987282    2.3637967423
 H   -3.4705118922    0.2954417872   -0.2614621357
 H   -2.2018734930    1.5284464333   -0.1162476920
 H   -2.7644495287   -2.2965743817   -0.2177902341
 H   -1.0354967876   -2.7027606313   -0.4138028283