13

 O    0.0031466388    1.4155663940    0.0161311990
 C   -0.0049545613    0.0539476359    0.0058829844
 C   -1.1513390334   -0.6706943484    0.0057260187
 N   -1.0811060509   -2.0331568051   -0.0049790564
 C    0.1185528670   -2.7756866132   -0.0162244101
 O    0.0837409968   -3.9868082773   -0.0252933014
 N    1.2756175949   -2.0122501297   -0.0157478204
 C    1.1999903221   -0.7191605386   -0.0055759589
 O    2.3329891834    0.0102223397   -0.0053094005
 H    0.9242012201    1.7018695838    0.0146263208
 H   -2.1325109852   -0.2139861240    0.0138119144
 H   -1.9238399901   -2.5879050713   -0.0053580040
 H    3.0690363579   -0.6197415458   -0.0132550157