23

 C   -0.1546872869    1.5964580384   -0.0205129748
 C    0.0324032034    0.0891753437    0.0266196277
 C    1.0377804011   -0.5984219868   -0.9428481149
 C    1.3869034891   -1.5925426987    0.2018863411
 C    2.8130606146   -2.0869467267    0.4413141316
 C    3.7133514625   -0.9812848463    1.0132086855
 C    2.9833282710   -0.2491862581    2.1380624602
 O    1.8024069230    0.3703490719    1.6537247121
 C    0.8178622115   -0.5467776545    1.2067794115
 H    0.7992262425    2.1088971522    0.1253082546
 H   -0.5692572944    1.9036467008   -0.9870787324
 H   -0.8418074222    1.9393937545    0.7609964553
 H   -0.9376056941   -0.4162537534   -0.0470445004
 H    0.6463572394   -1.0194543716   -1.8722880841
 H    1.8733056463    0.0656814359   -1.1822008940
 H    0.7001414393   -2.4441829063    0.1517705633
 H    2.7815961358   -2.9154454599    1.1621380086
 H    3.2359397143   -2.4983759614   -0.4831945689
 H    4.6526924936   -1.4055413024    1.3857716238
 H    3.9739754668   -0.2506078095    0.2384407165
 H    2.7436438987   -0.9494901914    2.9575896927
 H    3.5956569886    0.5554878580    2.5560674381
 H    0.2472860359   -0.9271839184    2.0675141169