14

 N    0.9604200890    1.1260943869    0.0233736953
 C    0.4394195926   -0.1486285762   -0.0196759660
 N   -0.8268401561   -0.3787378728   -0.3001810936
 O   -1.0134766024   -1.7617162665   -0.1533340302
 C    0.1485877831   -2.3240590102    0.1864513438
 C    1.1132561500   -1.3781021154    0.2876905071
 O    2.3886652987   -1.6324046371    0.7453670998
 C    3.4680154692   -1.0930187175    0.1506208704
 N    3.4247751017   -0.2710190211   -0.8084278918
 H    1.8826139436    1.1595012819   -0.4010318544
 H    0.3222756741    1.8090241648   -0.3649817550
 H    0.1557762713   -3.3915771907    0.3392601333
 H    4.3597209942   -1.4872617307    0.6430164727
 H    4.3645995110   -0.0048339856   -1.0918654715