17

 C   -0.0107143220    1.4101521946    0.0096781896
 C    1.3626453996    2.0634478626    0.0176442508
 O    2.0168294775    1.9785836898    1.2709284021
 C    2.2065649574    0.7141010243    1.8164738505
 C    2.3368565983   -0.6162377452    1.0080690455
 O    2.1111329823   -1.3081855132    2.2922763810
 C    1.0674019826   -0.2644706810    2.2776793917
 C    0.7815318313   -0.7118500942    0.8085252958
 O    0.0391990507    0.0012406175   -0.1258080112
 H   -0.5504697301    1.6954434000    0.9261810352
 H   -0.5858890105    1.7656219304   -0.8508005239
 H    1.9796907419    1.6141712111   -0.7761505387
 H    1.2657716321    3.1337752454   -0.1888100475
 H    2.9765187449    0.8090908814    2.5834698711
 H    3.1476929265   -0.9862314965    0.3798484107
 H    0.4057519652   -0.2109931731    3.1427642249
 H    0.4568779124   -1.7516286540    0.7485459123