18

 C    0.0087006316    1.5685595759   -0.2102615713
 C   -0.0331498637    0.0751027565    0.0107280891
 C   -1.2018323418   -0.5769073516    0.1103289257
 C   -1.3287366174   -2.0607208963    0.3165984474
 O   -0.5688719217   -2.8231722857   -0.6187035985
 C    0.7590120792   -3.0658910784   -0.2329689484
 C    1.6087368558   -1.8695799639    0.0834896128
 C    1.2783786756   -0.5716418932    0.1444545130
 H    0.5611460871    2.0691476000    0.5949415246
 H    0.5256541211    1.8163725189   -1.1454686925
 H   -0.9948417354    1.9982771514   -0.2535193677
 H   -2.1278601830   -0.0147833392    0.0190117429
 H   -1.0383159396   -2.3361142935    1.3440680838
 H   -2.3700483836   -2.3687431759    0.1802817887
 H    0.8051247927   -3.7652474496    0.6242632923
 H    1.2098582043   -3.6016732032   -1.0798746629
 H    2.6520180242   -2.1303667901    0.2595242400
 H    2.0958797146    0.1215572879    0.3387519710