20

 C    0.6914086244    1.4894825594    0.0459066376
 C   -0.0220986223    0.1459032262   -0.0141835934
 C    0.3053419909   -0.7615737226   -1.2316942667
 C    1.0234300619   -1.7172128439   -0.2277250160
 C    2.5660761858   -1.7514678424   -0.3722087048
 N    3.3017935449   -2.4503609420    0.6687260059
 N    0.4844250445   -0.9161071569    0.9000186059
 C    0.5244229681   -3.1022156331   -0.2129273427
 N    0.1692441520   -4.2026101150   -0.2175449131
 H    1.7645124836    1.3908375005   -0.1506031602
 H    0.2738450626    2.1791418855   -0.6957274178
 H    0.5669684215    1.9500409419    1.0324244167
 H   -1.0959376561    0.3059602295    0.1349275609
 H   -0.5613385094   -1.1975563237   -1.7277977331
 H    0.9704951886   -0.3272988232   -1.9818906661
 H    2.8062690661   -2.2125600637   -1.3380091970
 H    2.9177282367   -0.7145152481   -0.4162620729
 H    3.1375831549   -2.0337643416    1.5802394539
 H    2.9990953325   -3.4186958679    0.7271512683
 H    1.1811430989   -0.6197335389    1.5771104445