24

 C   -0.0431221549    1.5589721304   -0.0522404757
 C    0.0635725763    0.0306775091   -0.0131088227
 C    0.6688913071   -0.5309198722   -1.3129140370
 C    0.7053578413   -2.0655727018   -1.3160002031
 C    1.4337341652   -2.6124757503   -0.0805399016
 C    0.8301232858   -2.0450335138    1.2131722583
 C    0.8073770205   -0.5017062957    1.2411917880
 C    2.2145583343    0.0887102889    1.4339408468
 H    0.9319817758    2.0303163942   -0.2145881414
 H   -0.7004963135    1.8814301464   -0.8669659123
 H   -0.4533388068    1.9553435753    0.8834795378
 H   -0.9614017980   -0.3650545601    0.0554488667
 H    0.0907095448   -0.1666458869   -2.1709637525
 H    1.6865654611   -0.1390302770   -1.4459703813
 H   -0.3248911033   -2.4487382596   -1.3241858144
 H    1.1793064268   -2.4327454162   -2.2336541748
 H    1.3856010118   -3.7073570258   -0.0647777842
 H    2.4991700625   -2.3546711294   -0.1406379045
 H   -0.2006939579   -2.4130651901    1.3092516564
 H    1.3762284859   -2.4242456817    2.0854170210
 H    0.2158206790   -0.1983710154    2.1163572743
 H    2.8767590491   -0.1157594644    0.5869892744
 H    2.1805638931    1.1733743873    1.5696363650
 H    2.6854285040   -0.3379071412    2.3261037170