22

 C   -0.0490058326    1.5150190606    0.0944028523
 C    0.0026505277   -0.0122942814    0.0046604625
 C    0.7158399839   -0.5169306871   -1.2545172718
 C    0.7681506725   -2.0456528787   -1.3456766884
 C    1.4794664867   -2.5228248735   -2.6013453845
 O    1.4725553640   -3.9601047314   -2.5884292778
 C    2.0718320790   -4.5480404450   -3.6517514160
 N    1.9544841795   -5.9083051259   -3.5576196681
 O    2.6018944352   -3.9547460200   -4.5617924286
 H    0.9585994143    1.9453272557    0.1075909646
 H   -0.5791113653    1.9444177480   -0.7630264922
 H   -0.5633161680    1.8447896907    1.0024278557
 H    0.5081446381   -0.4158510940    0.8918936189
 H   -1.0178488191   -0.4167035869    0.0278289015
 H    0.2105763402   -0.1136222295   -2.1430214847
 H    1.7373432180   -0.1126926279   -1.2786948151
 H    1.2813373004   -2.4562931125   -0.4672375872
 H   -0.2486268993   -2.4572599270   -1.3340344925
 H    0.9793186694   -2.1688971901   -3.5092224671
 H    2.5149152616   -2.1676512422   -2.6401362678
 H    1.7089530657   -6.3104005629   -2.6689280501
 H    2.5465372081   -6.4442763589   -4.1683523336