15

 C   -0.1175665102    1.5901700753   -0.0891212949
 C   -0.0147905637    0.0422821913   -0.0335940517
 C    0.7527736963   -0.4266746017    1.2436163104
 C    2.1889293098    0.0726675348    1.2976740554
 O    2.6567700127    0.6301022281    2.2540391296
 C   -1.3704862772   -0.5354857331    0.0033116217
 N   -2.4390661206   -0.9676692599    0.0704739978
 C    0.6736497345   -0.4521633370   -1.2424939893
 N    1.2441912648   -0.8180651362   -2.1774773020
 H    0.8825182202    2.0279937183   -0.1259449223
 H   -0.6745261283    1.9070792712   -0.9721598598
 H   -0.6305106787    1.9505778017    0.8051635325
 H    0.2218904612   -0.0766335867    2.1313562782
 H    0.7737563851   -1.5230740621    1.2592040468
 H    2.7949541242   -0.1343163940    0.3896288574