20

 C    0.0532338137    1.5445454582    0.1244743379
 C   -0.0090554396    0.0575628112   -0.0266705593
 C    0.6215720222   -0.8242843886   -1.1602370350
 C    1.4215611594   -1.5184648079   -0.0439340828
 N    0.6212474299   -0.8566098594    1.0403274233
 C   -0.7031724658   -1.5520302526    1.1776426779
 C   -1.2841858864   -0.8547920036   -0.0642345744
 C   -0.7742670195   -1.4646733795   -1.3877726025
 O   -1.4805398991   -0.8334382373   -2.4404073960
 H    1.0918182654    1.8915179492    0.1615828814
 H   -0.4451846290    2.0356324826   -0.7180873085
 H   -0.4399776123    1.8639623068    1.0490923550
 H    1.1411953718   -0.4476971972   -2.0449816731
 H    1.4169835845   -2.6147349464   -0.0135138248
 H    2.4603094503   -1.1768451759    0.0046767943
 H   -0.6495226694   -2.6471321512    1.1766969590
 H   -1.1908457833   -1.2312986698    2.1033245149
 H   -2.3180044362   -0.5081347712   -0.0682525862
 H   -0.8092328198   -2.5612612994   -1.4813541944
 H   -0.9941527669   -0.9884963480   -3.2574011665