21

 C   -0.4295261400    1.3886839150    0.0559011366
 C    0.3477730309    0.0770683455   -0.1151874085
 C    0.9203127419   -0.4562561758    1.1855596994
 C    1.9508365855    0.4152693616    1.8847353495
 C    2.7562614603   -0.2914117718    2.9393171697
 C    2.7321938509   -1.6026300481    3.1595946331
 C    1.8911803122   -2.5723855412    2.3787285409
 C    0.9005853148   -1.9054722217    1.4528867924
 O   -0.0603490194   -1.0368787792    2.0656366996
 H    0.2169352012    2.2058331421    0.3909905242
 H   -0.8844852804    1.6959283404   -0.8903133017
 H   -1.2286810248    1.2651262355    0.7930017612
 H   -0.3181345401   -0.6860220457   -0.5325714529
 H    1.1643344722    0.2150557575   -0.8358768703
 H    2.6280801087    0.8364807132    1.1268507447
 H    1.4417036684    1.2811566991    2.3299631689
 H    3.3990571232    0.3409218693    3.5469874795
 H    3.3540874806   -2.0267143237    3.9438777128
 H    2.5372290152   -3.2333548080    1.7816804059
 H    1.3466677797   -3.2390278205    3.0626214147
 H    0.4761545791   -2.5566249835    0.6861537503