23

 C    0.0479065589    1.3912823459    0.0524189976
 O    0.0396809551   -0.0155793781    0.0563257341
 C   -1.2621107873   -0.5592882846    0.0051802338
 C   -1.1538900570   -2.0861414454    0.0332592175
 C   -0.4357215753   -2.5470753917    1.3110046533
 C   -2.5382424024   -2.7653746567   -0.1095473016
 C   -3.2956737933   -2.3904212901   -1.4009209499
 C   -2.3636157195   -4.2738914297   -0.1199489551
 O   -2.9331245399   -5.0495300056    0.6022823036
 H    1.0915648159    1.7129425983    0.0874728615
 H   -0.4197946692    1.8007259512   -0.8573309617
 H   -0.4817840509    1.8062622948    0.9247018266
 H   -1.8596575787   -0.2079425539    0.8662175459
 H   -1.7713624851   -0.2131965862   -0.9074167828
 H   -0.5430640838   -2.3752608160   -0.8343065893
 H   -1.0356094862   -2.3124239471    2.1982304513
 H   -0.2602351801   -3.6272333445    1.3103625369
 H    0.5264133357   -2.0412990089    1.4072030094
 H   -3.1599418499   -2.5258306806    0.7612719909
 H   -4.2228441796   -2.9656776694   -1.4835255717
 H   -3.5638851319   -1.3318161858   -1.4160553166
 H   -2.6889216211   -2.5968974521   -2.2897958200
 H   -1.6563555044   -4.6362703138   -0.9061936236