18

 C    0.0134581862    1.5283435944    0.0333824925
 C   -0.0507569640    0.0049059308    0.0007502979
 O    0.7661704609   -0.5814412344    1.0204786520
 C   -1.4837352725   -0.5206068660    0.1064504238
 N   -1.4655350882   -1.9691899648    0.1100217310
 C   -2.6278823781   -2.6797059008   -0.0711829304
 N   -2.4970924132   -4.0453436895    0.1708019639
 O   -3.6834558490   -2.1670116445   -0.3964461636
 H    1.0519419917    1.8648036910   -0.0215208535
 H   -0.5388602177    1.9640304666   -0.8051033117
 H   -0.4265035532    1.9186312767    0.9597343620
 H    0.3847095548   -0.3646763581   -0.9347571482
 H    0.5091743658   -0.1852350771    1.8614561082
 H   -1.9551226449   -0.1152108311    1.0180766495
 H   -2.0903247117   -0.1815391252   -0.7370701830
 H   -0.7198828887   -2.3741051238    0.6567114995
 H   -1.5996023619   -4.4644927441   -0.0238277821
 H   -3.2770862863   -4.5707528301   -0.1947663478