19

 C   -0.1283498370    1.5286868122    0.0113423542
 C    0.0139401140    0.0104883987    0.0084437215
 O   -1.2433169098   -0.6233456020   -0.1433173852
 C    1.1823776072   -0.5160086444   -0.8884064341
 C    2.0516908336   -0.7209660540    0.3899322474
 C    0.7768243331   -0.5581023329    1.2204381978
 C    0.5183931061   -0.3229516518    2.6549195166
 N    0.2447869959   -1.6389823427    2.0412087625
 H    0.8341570488    2.0172447073    0.1896909568
 H   -0.5032957736    1.8846719604   -0.9572532238
 H   -0.8255516057    1.8499036449    0.7916272731
 H   -1.7619395601   -0.1334992261   -0.7894343099
 H    0.9026628473   -1.4657246539   -1.3489477566
 H    1.5636238370    0.1633743117   -1.6551837041
 H    2.5525580957   -1.6848805874    0.4933390496
 H    2.7794039783    0.0801959643    0.5490057027
 H    1.3411050103   -0.3117288600    3.3655749371
 H   -0.3224068657    0.3119299224    2.9270591283
 H   -0.7510684554   -1.7286359268    1.8456561959