18

 O   -0.0969252408    1.5219770136    0.0714659865
 C   -0.0849497141    0.1494119650   -0.2732882344
 C   -1.4307177404   -0.5409153266   -0.1005579080
 N   -2.1808502728   -0.2280191058    1.2109179060
 C   -3.2537453005    0.9241429413    1.1412012483
 C   -3.3434911673    2.0165811155    0.0600019005
 C   -2.7629578397    1.2458679434   -1.1177498850
 C   -2.7149363571   -0.0697777270   -0.8085614385
 C   -3.4752942881   -0.3625300817    0.4890353605
 H   -0.3932100725    1.5713083761    0.9871788951
 H    0.2379470877    0.0860053843   -1.3179762094
 H    0.6555067679   -0.3978433669    0.3309097497
 H   -1.2847136557   -1.6275255249   -0.0831552981
 H   -3.5834162017    1.1175270155    2.1583226149
 H   -4.3835125974    2.3697342491    0.0035417030
 H   -2.7141399228    2.8954438057    0.2355793873
 H   -2.0039449301    1.7175373685   -1.7308539034
 H   -4.1924753545   -1.1471241250    0.7034103450