15

 C    0.2080031693    1.2736743022    0.3270584883
 O    1.3179578217    1.8799060970   -0.3239090199
 C    2.0324894192    0.8703339633   -0.9900876274
 C    3.0912433693    0.0415317730   -0.2291477608
 N    2.4552289921   -0.4160384920    1.0245761361
 C    2.1892716227   -1.1570645272   -0.2267627786
 C    1.0982492657   -0.3711381587   -0.9876135318
 O   -0.0684217544    0.0376014770   -0.3202335139
 H    0.4380004842    1.1027035030    1.3835371075
 H   -0.6634396350    1.9292254612    0.2106853117
 H    2.3728415584    1.2371762891   -1.9605904715
 H    4.1685431456    0.0992754232   -0.3213334900
 H    3.1557121741   -0.9421328994    1.5450925313
 H    2.4319146387   -2.2084611323   -0.3167465545
 H    0.8381348085   -0.8022265094   -1.9565261865