19

 O   -0.1635402926    1.4568348978   -0.0982193395
 C   -0.0074119706    0.0509555505    0.0055230675
 C   -1.3979774245   -0.5695811361   -0.0397469565
 C   -1.3631139342   -2.0888167653    0.1003935386
 N   -2.7043543285   -2.6443836337    0.0462107014
 C   -2.9119596623   -3.9920976607   -0.0332700014
 N   -1.9654263783   -4.8381110707   -0.1916245838
 C   -4.3702027390   -4.3915573371    0.0418034809
 O   -4.7359858201   -5.5343864632   -0.0304887366
 H    0.7096854058    1.8590832616   -0.0841710284
 H    0.6038934891   -0.3472774994   -0.8202402239
 H    0.4948729633   -0.2279743319    0.9461924748
 H   -1.9952837410   -0.1267659277    0.7683553842
 H   -1.8805687933   -0.2916748699   -0.9833794336
 H   -0.7856679546   -2.5486382390   -0.7084746142
 H   -0.8618579192   -2.3825784945    1.0354474789
 H   -3.4536614676   -2.0765314476    0.4098180695
 H   -2.3811536068   -5.7679137544   -0.2744096441
 H   -5.0978614456   -3.5569724085    0.1691582061