18

 C   -0.0796503107    1.5316992334    0.0883060711
 C    0.0713185075    0.0462351600    0.0372571356
 N   -0.8443614800   -0.8927114439    0.7257376889
 C    0.6228567797   -0.9376518506    0.9872308115
 C    1.3051291465   -1.7362004664   -0.1531086321
 C    0.3384396121   -2.1882118068   -1.2016131126
 C    0.7356337052   -0.7227394949   -1.1716426472
 C    1.4033205855   -0.0601849743   -2.2329121580
 C    1.9627925570    0.5296270076   -3.1227442224
 H    0.8310473269    2.0252920178   -0.2640761763
 H   -0.9060267708    1.8668110648   -0.5494297683
 H   -0.2800804139    1.8676911965    1.1113254053
 H   -1.2687172836   -0.3789730758    1.4978436536
 H    1.0198844584   -0.8019766290    1.9849046612
 H    2.3289572396   -2.0813814459   -0.1040783905
 H    0.7824526515   -2.7405553828   -2.0227860335
 H   -0.6710921682   -2.4687207010   -0.9311970686
 H    2.4545789076    1.0399389913   -3.9128305777