18

 C    0.0519081814    1.5354422077   -0.1098500864
 C    0.0231563075    0.0416545050    0.0617025687
 O    1.3172650142   -0.6432509277   -0.0003288540
 C    0.5927752816   -0.6346855396    1.2100146138
 C    1.1217475359   -0.2567623481    2.6020548782
 N   -0.1958066539   -0.8127499278    3.1157601310
 C    0.2653102861   -1.8434249687    2.0979840370
 C    1.7255892779   -1.7085199164    2.6660158860
 O    2.8515477653   -2.0887085201    1.9474475214
 H    0.8543368415    1.9806564000    0.4831741825
 H    0.2070042834    1.8010524521   -1.1603691029
 H   -0.9017099096    1.9668448237    0.2120857175
 H   -0.7514679033   -0.4838112009   -0.4973921863
 H    1.5345970684    0.6877057365    2.9565810402
 H   -0.0415956132   -1.1941405372    4.0553064820
 H   -0.3159252474   -2.7356090994    1.8651066582
 H    1.8368632166   -2.0915095542    3.6858386075
 H    2.7667631974   -1.7605127550    1.0433422156