18

 C    0.1363058633    1.3870268363   -0.1192362056
 C    0.0470708025   -0.1043961512   -0.0441455231
 N    0.6001065833   -1.0459117111   -1.0820004105
 C   -0.0037231862   -1.9794113343   -0.0669201088
 C    0.1029503304   -3.4656859447   -0.2191729255
 O    1.4589780287   -3.8548854955   -0.3471382905
 C    0.4505158194   -1.0694368930    1.1135534327
 O   -0.8574967421   -1.0445680149    1.7569896208
 C   -1.1742093950   -1.0232464299    0.3364781414
 H    1.1782175949    1.7072320874   -0.2154833798
 H   -0.4213283832    1.7765538947   -0.9777138593
 H   -0.2841031797    1.8265234065    0.7906322724
 H    0.0185590961   -1.0192814252   -1.9247772746
 H   -0.3018885561   -3.9599163644    0.6704576697
 H   -0.4966844674   -3.7959992772   -1.0847899319
 H    1.8750474761   -3.2066890996   -0.9291959335
 H    1.3483124259   -1.1064895012    1.7281391973
 H   -2.2207003510   -0.9949952429    0.0264373189