18

 C    0.1402557275    1.2597486164   -0.0221421825
 O   -0.0382064488   -0.1453091347    0.0909104005
 C   -1.3703046184   -0.6104986598    0.0530865671
 C   -1.9716501126   -0.6509308061   -1.3860372685
 C   -1.3694318442   -2.0692639849   -1.5654011315
 C   -1.2689925428   -2.1805774951   -0.0168640111
 O   -0.1704312381   -2.7696807664    0.5902621771
 C   -2.1877006840   -0.0170519157    1.1159901186
 N   -2.8517197211    0.4436307271    1.9430380994
 H    1.2160079533    1.4370531311    0.0256720583
 H   -0.2438299599    1.6441797667   -0.9756829175
 H   -0.3530315396    1.7899613800    0.8014495313
 H   -3.0632689555   -0.6501848034   -1.3604984301
 H   -1.6322162449    0.1363628411   -2.0603350029
 H   -1.9735957797   -2.8176786785   -2.0797396947
 H   -0.3757261298   -2.0350171760   -2.0174634335
 H   -2.1691417224   -2.6354648925    0.4042056892
 H    0.5768691711   -2.1738263795    0.4483885009