17

 O    0.0915733627    1.4118441866   -0.0477284233
 C    0.0060615545    0.0267217866    0.0090113836
 C    0.2176909563   -0.6958774111    1.3672063802
 O   -0.5036512264    0.0381086245    2.3819949997
 C   -1.8620760290   -0.3291668100    2.1740052249
 C   -1.8120736956   -1.8558739147    2.0684790144
 C   -0.8204280388   -1.7847013322    0.9156221596
 C   -1.3899710333   -0.6531469836   -0.0130066403
 O   -2.2613386204    0.0848408231    0.8729742639
 H   -0.4950965269    1.7410131466    0.6455932354
 H    0.6589663803   -0.3900938836   -0.7643857865
 H    1.2138032915   -0.9366929762    1.7390507496
 H   -2.4894837061    0.1550099838    2.9197916728
 H   -1.4134835516   -2.3260761102    2.9692437645
 H   -2.7766324660   -2.2898353664    1.7989509346
 H   -0.4465773971   -2.6928727166    0.4520440130
 H   -1.9150734443   -0.8535267067   -0.9471460462