19

 C   -0.1465006112    1.4248269706   -0.2201148917
 C    1.2671000421    1.0147473870    0.0690118306
 C    0.1695617573   -0.0322807451    0.0591729228
 C   -0.2812815885   -0.7054919207    1.3077607867
 C   -0.3412750647   -0.0446183678    2.5418650337
 C   -0.7679761907   -0.7062011230    3.6884394873
 C   -1.1458065822   -2.0462330774    3.6303887650
 C   -1.0914522157   -2.7158353701    2.4114965645
 C   -0.6638956719   -2.0508496341    1.2655552979
 H   -0.6914540576    1.9688017018    0.5438444056
 H   -0.4099647605    1.6988553674   -1.2357806038
 H    1.9817423828    1.0049700694   -0.7466326987
 H    1.6929623728    1.2772234695    1.0314388204
 H    0.1581840751   -0.6837550825   -0.8091581904
 H   -0.0521039734    0.9995495064    2.6126967915
 H   -0.8054416721   -0.1717513823    4.6324106093
 H   -1.4784131422   -2.5610979077    4.5253511560
 H   -1.3822733868   -3.7596597816    2.3492022037
 H   -0.6249327527   -2.5821043996    0.3188995193