18

 C   -0.2050367811    1.5056351773    0.1290692074
 C   -0.0174310850    0.0086980982    0.0804476618
 N    1.2625418540   -0.5135096648   -0.3929217034
 C    0.8854951738   -0.7555017981    1.0118002967
 C    1.7287633219   -0.0713447912    2.0680308731
 C    0.4009108749   -2.1664703728    1.2731146830
 N    0.4488055166   -2.5985830836    2.5632863978
 O   -0.0045711398   -2.8773258264    0.3663698716
 H    0.7194200058    2.0230133387    0.3928321469
 H   -0.5194809626    1.8724960723   -0.8539505366
 H   -0.9808681699    1.7812209095    0.8516495170
 H   -0.8981433902   -0.5515974502   -0.2284461991
 H    1.0910481090   -1.3826814252   -0.8995717034
 H    2.1382040335    0.8614230756    1.6792673246
 H    1.1465653158    0.1689684944    2.9661968637
 H    2.5755009187   -0.7008764633    2.3625594643
 H    0.7306050493   -2.0082991205    3.3245065304
 H    0.0910816552   -3.5176478202    2.7648922241