19

 C   -0.0837218902    1.5441881312   -0.0400901125
 C    0.0598979607    0.0418048220    0.0086042724
 O   -1.0559121316   -0.5575764494   -0.5807950132
 C    1.4010105756   -0.6153410475   -0.1509460410
 C    0.7013901097   -0.6681650131    1.2143349480
 C    1.2976257941    0.0970091896    2.3909986184
 O    2.3641064056   -0.6029167846    3.0044442171
 C    0.0985083663   -1.9166734050    1.5924564884
 C   -0.4380321410   -2.9455173337    1.9204199505
 H    0.8116563728    2.0578530838    0.3147185431
 H   -0.2581482869    1.8468666405   -1.0775372916
 H   -0.9422415257    1.8717187839    0.5537631708
 H   -1.2288791249   -1.3965432016   -0.1339300161
 H    1.4428044143   -1.5340302344   -0.7244824091
 H    2.2910825576    0.0031657125   -0.2065014636
 H    1.7213715912    1.0432901221    2.0471339794
 H    0.5021702214    0.3296004921    3.1152220918
 H    2.0208838068   -1.4576694916    3.2887691188
 H   -0.8934785956   -3.8608123469    2.2090004185