15

 C   -0.1723938539    1.5273089512    0.0058811858
 C   -0.0500397290    0.0403967728   -0.0149741950
 C    0.0915531421   -0.7976759308   -1.0368209949
 C    0.1915225493   -2.2145615426   -0.5588012388
 O   -0.0040754771   -2.1411742574    0.8590082530
 C   -0.0574372652   -0.7854423286    1.2645598410
 C    1.0928375164   -0.4458257556    2.1362458034
 N    1.9849742523   -0.1533137621    2.8098220350
 H    0.6314688997    1.9783875760    0.5993803964
 H   -0.1281792802    1.9414605691   -1.0038207330
 H   -1.1188009335    1.8409447797    0.4635904826
 H    0.1407948646   -0.5227834841   -2.0830651100
 H   -0.5803062536   -2.8700334883   -0.9848826723
 H    1.1697576066   -2.6668424742   -0.7819829005
 H   -0.9705082484   -0.6198671451    1.8567754774