18

 C    0.0221838550    1.4853889565    0.0080073145
 C    0.0138669531   -0.0308572867   -0.0166356180
 O    0.7023506864   -0.4887643050    1.1552234417
 C    0.7948883195   -1.8168214030    1.3048483466
 N    0.3022200743   -2.7134166246    0.4571420291
 N    0.6458841467   -3.8690976437    1.0364382594
 N    1.3134365455   -3.7823057593    2.1778840182
 C    1.4307982105   -2.4709806107    2.3870854895
 C    2.1214680482   -1.8839747502    3.5709699232
 H    1.0465436063    1.8683471620    0.0047138403
 H   -0.4959096108    1.8747841437   -0.8732825112
 H   -0.4835317028    1.8621398120    0.9014797652
 H   -1.0068956754   -0.4318300668   -0.0142759441
 H    0.5173043767   -0.4256696019   -0.9073724841
 H    0.4077097172   -4.7547792454    0.6249974301
 H    2.9619398468   -1.2501737892    3.2681682441
 H    1.4420888065   -1.2566033207    4.1580338829
 H    2.5011369662   -2.6806226070    4.2137015625