19

 C    0.8619469766    0.5890723737    0.2577162782
 C   -0.4801422829    0.0793091093   -0.2208695848
 O   -1.5223284209    0.3582940438    0.3240841069
 C   -0.4577070222   -0.8628976059   -1.4303825699
 C   -0.1341054765   -2.2753325229   -1.0159298702
 C   -0.7608367620   -3.1531405251    0.1023609844
 C    0.5051848401   -3.8497399399   -0.4413944360
 C    0.0535976660   -3.5466935026   -1.8880182099
 O    1.2078883081   -2.5432246373   -0.4178996107
 H    1.5155096759   -0.2645143836    0.4680100531
 H    1.3467161251    1.1761594560   -0.5310968149
 H    0.7333613500    1.2042196024    1.1489948364
 H   -1.4508477702   -0.8503958991   -1.8879894439
 H    0.2833170512   -0.5370772195   -2.1689635023
 H   -0.6774256086   -2.7510304457    1.1122780859
 H   -1.7311057118   -3.6149232247   -0.0949489635
 H    1.0452447430   -4.7114270140   -0.0515612034
 H   -0.8418491479   -4.0459177605   -2.2664926420
 H    0.8575074369   -3.4871808445   -2.6228374333