21

 C   -0.0068182670    1.5509697410   -0.0002303109
 C   -0.0626657576    0.0515448410    0.1140833115
 C   -1.2676594628   -0.7209420107   -0.4114241210
 C   -1.1788914690   -2.1156923556    0.2395900991
 C   -0.3009989453   -3.2185708396   -0.4257861786
 C    0.5460893010   -3.3263549378    0.8743722219
 C   -0.1454940455   -2.0398240330    1.4159526164
 C    0.5891276291   -0.7384331238    1.1783388912
 O    1.1750275733   -0.6425481882   -0.1334259055
 H    0.9138704662    1.9366352606    0.4445966663
 H   -0.0310429231    1.8608115568   -1.0509889729
 H   -0.8623355550    2.0129371478    0.5039659665
 H   -2.1858262820   -0.2005252870   -0.1125076073
 H   -1.2649223778   -0.7686741117   -1.5067053663
 H   -2.1618300618   -2.4917097606    0.5309252029
 H   -0.8295551254   -4.1251281970   -0.7319300525
 H    0.2745356156   -2.8404678910   -1.2720424715
 H    0.3028214516   -4.2090939829    1.4710309796
 H    1.6299876770   -3.2728877730    0.7540522310
 H   -0.5296719056   -2.0832702931    2.4391022758
 H    1.1737898041   -0.2746202323    1.9709470344