23

 C   -0.1091386219    1.5178374123   -0.1299905939
 C    0.0562836563    0.0131071296    0.0120842806
 O    0.7017530180   -0.4594890032   -1.1730853397
 C    0.7959604526   -1.8581909225   -1.1841420225
 O    1.5231651658   -2.3669588855   -0.0989297341
 C    0.9253569900   -2.0050288577    1.1485637757
 C    1.7091243814   -2.7045074964    2.2477485404
 C    0.8446368333   -0.4635263019    1.2552472431
 C    2.2218006990    0.1995734843    1.3795927792
 H    0.8548412938    2.0069005271   -0.2891578671
 H   -0.7474744455    1.7440525700   -0.9883423552
 H   -0.5717013425    1.9391510695    0.7680827701
 H   -0.9471889302   -0.4475263799    0.0647881059
 H   -0.2209900717   -2.2983533278   -1.1881140033
 H    1.3325154894   -2.1389841857   -2.0930816561
 H   -0.1114700763   -2.3882068722    1.1576487822
 H    2.7668814044   -2.4332456318    2.2111307075
 H    1.3124101186   -2.4358982041    3.2318583189
 H    1.6350075170   -3.7886793353    2.1273682696
 H    0.2425772565   -0.2232001768    2.1424214289
 H    2.8381179116   -0.0266655662    0.5062799079
 H    2.1318996210    1.2857676514    1.4629294920
 H    2.7499112996   -0.1492264572    2.2708173098