14

 O   -0.0911470102    1.3752981527    0.0885928691
 C   -0.0304747535   -0.0071836254    0.0114707382
 C    1.0654793865   -0.6287483156    0.7096325516
 N    1.9384088755   -1.1446829669    1.2681602035
 C   -1.3560251880   -0.7848883141    0.0185060557
 N   -2.5046431201   -0.0262603937   -0.3580415806
 C   -2.2692201206    0.4977582538   -1.6059442609
 N   -1.2096909842    0.0847281540   -2.2105927229
 C   -0.5165493700   -0.7386057302   -1.2549487480
 H    0.2801734095    1.7378937894   -0.7259364504
 H   -1.4899256024   -1.6347897746    0.6754867197
 H   -3.0934205561    0.4312267208    0.3192181406
 H   -2.9820187623    1.1888655962   -2.0421542100
 H    0.0779009059   -1.5615611065   -1.6306507655