17

 N   -0.1044066986    1.2828667006   -0.1505764263
 C   -0.0556932031    0.0355410716    0.0089818770
 O   -1.1917179219   -0.6982137327   -0.1155210170
 C   -1.0539119998   -2.0866002833   -0.0152084120
 C   -2.4207917946   -2.7143294583    0.1715455719
 C   -2.2908191377   -4.2372578014    0.0533588999
 N   -1.5058981092   -4.6579466890   -1.1034151049
 C   -0.7165384548   -3.8190072866   -1.6172859150
 O   -0.4382189466   -2.5426612896   -1.2247787576
 H    0.8176536770    1.6895086866   -0.0065894891
 H    0.8273631236   -0.5663685342    0.2572027284
 H   -0.3736357024   -2.3418199951    0.8115057304
 H   -2.8342380583   -2.4118084428    1.1373623730
 H   -3.0772151009   -2.3239851715   -0.6127145533
 H   -1.8323830577   -4.6626036257    0.9565189292
 H   -3.2830511398   -4.6922546791   -0.0241874499
 H   -0.1291929953   -4.0620647494   -2.4999615848