15

 C    0.0193909569    1.4570091996   -0.0005351423
 C    1.2628976470    0.6499939379    0.0495510412
 C    1.9631569542    0.3619615177    1.4063797947
 C    0.8609541073   -0.3873746179    2.1010180998
 C   -0.1771429025   -0.5430927921    1.2616741321
 O   -1.1714284980   -1.2202875295    1.8772752536
 C   -0.6383303147   -1.4445908512    3.1277704322
 N    0.5550584436   -0.9725798503    3.3196145374
 N   -0.0902254998   -0.0299274997   -0.0404378005
 H   -0.3165367495    1.9485932148    0.9085023162
 H   -0.2599389043    1.9492626092   -0.9269375648
 H    1.8592243809    0.5699315130   -0.8525054382
 H    2.8645696129   -0.2416916152    1.2505486811
 H    2.2725503591    1.2825095541    1.9132857576
 H   -1.2638728932   -1.9924638605    3.8135789498