20

 C    0.5590500118    1.5697611317    0.3348581515
 C   -0.0895522934    0.2222517293   -0.0014543341
 C    0.4499848700   -0.3869788166   -1.2794693593
 C    1.7515437308   -1.1913209840   -1.2784888553
 C    0.4398006796   -1.8570452768   -1.5056079828
 C   -0.2635855100   -3.0009521433   -0.7822750730
 C   -0.5524250040   -3.4812195854   -2.1915442999
 N   -1.1508751905   -4.4633492689   -2.6889756743
 O    0.0967592154   -2.4210977573   -2.7985659344
 H    1.6424622911    1.4657975578    0.4537956666
 H    0.3821013394    2.3015094655   -0.4606810999
 H    0.1545653985    1.9822207575    1.2641359014
 H    0.0697714897   -0.4780683109    0.8286708275
 H   -1.1764830930    0.3482613278   -0.0895680248
 H    0.2882429172    0.2059971284   -2.1772231486
 H    2.4141157408   -1.0872589122   -2.1306572324
 H    2.2516509008   -1.3616046328   -0.3292712308
 H    0.3733610986   -3.6659363296   -0.1961881159
 H   -1.1491724712   -2.7330675378   -0.2026500012
 H   -1.1279730417   -4.4324791023   -3.7096515401