13

 N   -0.0964922709    1.1632754463   -0.5810378509
 C   -0.0293690711    0.0216706387   -0.0186120069
 C   -1.2844540859   -0.6734464606    0.3339425103
 C   -1.4859331961   -1.9938789391    0.1651300727
 C   -0.5064869943   -2.9168283901   -0.3792405761
 N    0.7803390752   -2.8446799317   -0.3638446652
 C    1.4516871252   -1.8077646290    0.2693299473
 N    1.1690561471   -0.5680181928    0.4122753456
 H    0.8492997506    1.5246891875   -0.7310460413
 H   -2.0972437562   -0.0368048512    0.6715968088
 H   -2.4747985445   -2.4052726029    0.3496755694
 H   -0.9195847934   -3.8118861088   -0.8517736706
 H    2.4171270442   -2.1310591463    0.6622053268