15

 C    0.0099112837    1.5745786393   -0.1034562220
 C   -0.0063899253    0.0810185231   -0.0004787479
 C    0.4635453795   -1.0763429687   -0.8637024374
 O    1.1024488668   -1.7603710480    0.2059713710
 C    0.4711980543   -0.8338575856    1.1527598273
 C   -0.7736261846   -1.6021244520    1.6012529738
 O   -1.0452494809   -2.0980938322    2.6512857874
 O   -1.5617168175   -1.7161301401    0.4807935178
 C   -1.0141911161   -0.8993183597   -0.5356363090
 H    1.0173902277    1.9758162056    0.0467482569
 H   -0.3341094713    1.8950396199   -1.0918205909
 H   -0.6526983035    2.0300434329    0.6407871239
 H    0.8895596475   -1.1608050691   -1.8566295659
 H    1.1447375224   -0.4962161707    1.9365125786
 H   -1.7301559528   -0.6295998845   -1.3008857537