19

 C   -0.0450300461    1.5308542897   -0.0259215857
 C    1.3388155779    2.1935675906    0.0221415570
 C    2.2290310403    1.9406658812   -1.2083575184
 C    2.7668894405    0.5351951822   -1.3458210126
 C    2.0525641502   -0.5905437797   -1.3454798064
 C    0.5517734638   -0.7021497916   -1.2071885985
 C   -0.0555435112   -0.0033713660    0.0229904640
 H   -0.6389532423    1.9080639973    0.8159099736
 H   -0.5678550779    1.8623437805   -0.9352557611
 H    1.1965017133    3.2768167762    0.1226663422
 H    1.8722188945    1.8657058855    0.9236994200
 H    1.6588717173    2.2071462968   -2.1118957315
 H    3.0729824572    2.6379939567   -1.1769040573
 H    3.8445421109    0.4500166373   -1.4697739444
 H    2.5883414741   -1.5294453619   -1.4691858791
 H    0.0674810300   -0.3005851734   -2.1109151078
 H    0.2802089546   -1.7626854187   -1.1747703864
 H    0.4682964744   -0.3459167672    0.9247144389
 H   -1.0963340116   -0.3356056553    0.1239804235