23

 C   -0.1070286018    1.4588821301   -0.1335324176
 O   -0.0522862896    0.0703517459    0.0935396708
 C   -1.3054865479   -0.6020332183    0.0280902171
 C   -1.7760356660   -0.7910151884   -1.4165244233
 C   -1.1181101950   -1.9401043377    0.7482083772
 C   -0.7624943676   -1.7921816267    2.2223397678
 C   -1.9030145278   -1.4117144025    3.1969162551
 O   -1.7575277174   -2.6453436963    3.9281979700
 C   -0.6943501178   -3.0888328814    3.0603805569
 H    0.8959681938    1.8537832445    0.0477080329
 H   -0.3966454317    1.7113767339   -1.1639660681
 H   -0.8114875207    1.9558685758    0.5522282762
 H   -2.0579149142   -0.0042844563    0.5733308766
 H   -2.7385807014   -1.3115356580   -1.4412060880
 H   -1.9053027972    0.1666908762   -1.9283018452
 H   -1.0464504987   -1.3836006692   -1.9777832841
 H   -2.0379087808   -2.5297206159    0.6453578430
 H   -0.3238689094   -2.4955448986    0.2325303047
 H    0.1204363755   -1.1593481152    2.3208739170
 H   -1.7262830292   -0.5353695042    3.8330104137
 H   -2.8995930114   -1.3205240485    2.7414164846
 H   -0.9610963027   -4.0089691833    2.5220350562
 H    0.2393832190   -3.2604080758    3.6104407663