18

 C   -0.0322797946    1.5295657199    0.0044776794
 C    0.0069042841    0.0193543644    0.0294907480
 O   -1.1561663333   -0.6002626943   -0.4685931313
 C    1.3235324376   -0.7134456004   -0.1761140848
 C    0.6332007297   -0.6962658840    1.1829905267
 O    1.1781006993    0.1097687718    2.1880731312
 C    0.0308193786   -1.9666202061    1.7284464763
 O    1.0781263870   -2.6114016043    2.4602899058
 H    0.8407994990    1.9522451957    0.5041503049
 H   -0.0536889646    1.8952661331   -1.0293634092
 H   -0.9310797008    1.8914589748    0.5133004331
 H   -1.1755496117   -0.4577378384   -1.4215933801
 H    1.3008599597   -1.6378188669   -0.7433068005
 H    2.2247883946   -0.1187488776   -0.2765741040
 H    1.7114045510   -0.4899680420    2.7263445594
 H   -0.8075274238   -1.7140336689    2.3931263502
 H   -0.3482540711   -2.5983414783    0.9182611061
 H    0.6804189793   -3.2560473685    3.0516128690