16

 C   -0.0013793837    1.4091876604    0.0217311805
 N    0.1223387958   -0.0409866348   -0.0028241409
 C    0.6382858531   -0.6322963601    0.9761540304
 O    1.1368855769   -0.0846714326    2.1372797097
 C    1.5808181033   -1.2653808083    2.8956380448
 O    2.0812027896   -2.1052577406    1.8906182344
 C    0.8425927834   -2.1424105834    1.1457648421
 C   -0.1629117893   -2.5404923605    2.2315225923
 C    0.3113142951   -1.9894731941    3.3486738271
 H    0.5651923903    1.8282491411   -0.8173218578
 H   -1.0513632241    1.6774445812   -0.1397187905
 H    0.3454902731    1.8759766551    0.9503997123
 H    2.3373061734   -0.9589015457    3.6127779830
 H    0.9175407525   -2.7260345338    0.2343286964
 H   -1.0974767614   -3.0522168619    2.0556571207
 H   -0.1235199080   -1.9387397621    4.3358960955