12

 C    0.0046279307    1.4795881810    0.1163581464
 O    1.2680458705    2.0277154444   -0.3364332185
 C    2.2746629335    1.2438816079   -0.7631643435
 N    2.3455911948   -0.0292157031   -0.8591691421
 C    1.1919042424   -0.6750138979   -0.4537163965
 N    0.9737115545   -1.9642707417   -0.4402538137
 O   -0.3032473319   -2.0994377223    0.0399045740
 N   -0.8804741252   -0.8775714153    0.3264648017
 C    0.0323259187   -0.0080797488    0.0251293659
 H   -0.1451327517    1.8291189042    1.1428285604
 H   -0.7769779782    1.9188285767   -0.5116521269
 H    3.1190567320    1.8635813950   -1.0519738772