16

 O   -0.0680289426    1.4157842229    0.0237884554
 C    0.0393503808    0.0445141267    0.0022981958
 C   -1.1477408358   -0.8778927455    0.1290955108
 C   -0.8184318640   -2.0152613653    1.0813251195
 C    0.6028254338   -1.8441389431    1.6045592771
 C    0.3199052774   -2.7994886928    0.4730452797
 N    0.8902028126   -1.8653853161   -0.5526629209
 C   -0.2084416088   -0.9973516189   -1.0689966239
 C    1.1603320038   -0.8583042088    0.5633933227
 H    0.6172821088    1.7843642271   -0.5450021719
 H   -2.1441551690   -0.4756164114    0.0033803363
 H   -1.5681845754   -2.5032096522    1.6895288249
 H    0.9306119906   -2.0226029633    2.6202393033
 H    0.3921536392   -3.8762311757    0.3862416484
 H   -0.4927061514   -0.9533805351   -2.1135391312
 H    2.1824981200   -0.4862904285    0.6391904439