20

 C   -0.1064730632    1.5461662137    0.0722502597
 C    0.0081433611    0.0290029394   -0.0147773023
 C    0.5935931914   -0.4301760542   -1.3554771401
 C    0.6686125717   -1.9514239832   -1.5196966967
 N    1.6719653309   -2.6006877960   -0.6865949731
 C    1.7069084962   -2.6651635822    0.6784223575
 O    2.4607776946   -3.4170121373    1.2684235034
 C    0.7471278031   -1.7419265854    1.4424824991
 O    0.8102757510   -0.3781331723    1.0866346416
 H    0.8813786807    2.0077567669   -0.0211764558
 H   -0.7472722920    1.9332510306   -0.7254858050
 H   -0.5301145589    1.8389975285    1.0360155621
 H   -0.9964577663   -0.4180076802    0.0969537135
 H   -0.0373589664   -0.0329735136   -2.1601868179
 H    1.5949818501   -0.0013924588   -1.4762751445
 H   -0.3273301249   -2.3879933216   -1.3474388177
 H    0.9308194329   -2.1845455785   -2.5549691276
 H    2.2958675030   -3.2592939268   -1.1290084919
 H   -0.2822858733   -2.1277463062    1.3429530335
 H    1.0394333683   -1.8178906326    2.4913106721