19

 O   -0.0168125501    1.4083402130    0.1350730733
 C    0.0160249035    0.0093415388   -0.0095771277
 C    1.0334808878   -0.6133894793    0.9468758547
 O    1.3970315846   -1.9243805463    0.5656420987
 C    0.2720551816   -2.6911397057    0.1670500497
 C   -0.6709044843   -1.8793625669   -0.7065652861
 C   -1.3876577626   -0.6435398106   -0.0771156897
 C   -1.5271133703   -0.0783270481   -1.5193327012
 C   -0.0769992938   -0.6344746671   -1.4432092062
 H    0.8671644198    1.7519004943   -0.0339678214
 H    1.9610968215   -0.0273439355    0.9395810450
 H    0.6343277827   -0.5853652304    1.9756129620
 H    0.6739546523   -3.5486433122   -0.3825245293
 H   -0.2678709143   -3.0833916957    1.0472707412
 H   -1.3227591500   -2.5131955398   -1.3143338908
 H   -2.1359680260   -0.6517688928    0.7179263873
 H   -2.2108371250   -0.6183401607   -2.1799972878
 H   -1.6336840671    1.0010686688   -1.6097546025
 H    0.6851237597   -0.6336856337   -2.2242461492