21

 C    0.4517215439    1.2007800600   -0.6135499032
 C    0.3525139807   -0.2495856257   -0.0879941819
 C    1.1699418376   -1.1429945149   -0.9307039131
 N    1.8183672113   -1.8252787577   -1.6006936983
 N    0.7020670451   -0.4597618823    1.3223981255
 C    2.0310087399    0.0217234298    1.6880385122
 C   -0.3585223586   -0.0671280265    2.2572845289
 C   -1.4300336233   -1.1580994110    2.3471741663
 O   -0.8572470619   -2.4022395401    2.6766269752
 H    1.4826752780    1.5602705369   -0.5993079011
 H    0.0889137314    1.2505540316   -1.6433531066
 H   -0.1614246610    1.8667644164   -0.0009351534
 H   -0.6846070210   -0.5816613696   -0.2087398888
 H    2.1168984821    1.1201013413    1.7145653839
 H    2.2875974549   -0.3616149826    2.6789981856
 H    2.7683386676   -0.3644325233    0.9781678032
 H    0.1046886506    0.0333774297    3.2429898393
 H   -0.8152691073    0.9072480982    2.0141631573
 H   -2.1451753668   -0.8994378257    3.1356937507
 H   -2.0045973627   -1.2152551869    1.4056161036
 H   -0.0559954907   -2.4612239678    2.1375676046