15

 C   -0.0361283734    1.4250694422   -0.1522430981
 N    0.0972725442   -0.0163857178   -0.0618582820
 C    0.6476518443   -0.5181749836    0.9663661381
 N    0.7447719836   -1.9323694173    0.9884293064
 N    1.2727413443   -2.6632474184    1.9459456328
 N    1.7571491804   -2.0847247429    2.9727326181
 C    1.6817236891   -0.6758798482    2.9919205650
 N    2.2195661035   -0.1607204329    4.1123837413
 N    1.1729374605    0.1016271771    2.0804399425
 H    0.4704540768    1.7800049037   -1.0581685019
 H   -1.0959619718    1.6848783126   -0.2642718421
 H    0.3685881208    1.9651196558    0.7109112303
 H    0.3763918078   -2.4452767260    0.1991383744
 H    2.5967970650   -0.7813521159    4.8061043425
 H    2.2201259949    0.8340295416    4.2525273528