14

 C   -0.0236977010    1.4884594087    0.0150573539
 C   -0.0050979051   -0.0093725633    0.0004831035
 N    0.1445651932   -0.6247462856   -1.1868426256
 C    0.1546989983   -1.9423364224   -1.1478964507
 C    0.0164045462   -2.6354569638    0.0681899908
 N   -0.1294787252   -1.9572841253    1.2174470295
 N   -0.1397374407   -0.6341164647    1.1784484921
 C    0.0267243250   -4.0575497916    0.1158271753
 C    0.0405786799   -5.2604306457    0.1136688609
 H    0.9082516157    1.8810677380   -0.4039042794
 H   -0.8381293427    1.8614053758   -0.6140687798
 H   -0.1504081076    1.8539583410    1.0339193250
 H    0.2733722794   -2.4822627557   -2.0842113665
 H    0.0507745546   -6.3227467453    0.1290574412