16

 O    0.1438329883    1.4023303810   -0.2253290333
 C    0.0242442614    0.0312474659    0.0129746863
 C    0.2344879491   -0.5776269496    1.4496805915
 C   -1.1063482132   -1.3035484878    1.3033069717
 C   -2.2302409342   -0.2796811755    1.1531352195
 C   -2.1873338137    1.0108092039    1.7826089532
 N   -2.0992871829    2.0625508880    2.2613704384
 C   -1.3517442310   -0.6570318574   -0.0413422224
 O   -1.9103132064   -1.2375511418   -1.1546269511
 H   -0.3446722032    1.8848564771    0.4530379976
 H    0.6847024556   -0.4639327764   -0.7043152229
 H    1.0954488144   -1.2451088942    1.5066885879
 H    0.2890859165    0.1499434019    2.2637401211
 H   -1.3399043521   -2.3091557394    1.6279663551
 H   -3.2194610086   -0.7196388545    1.0819758892
 H   -2.1974860099   -0.5377495813   -1.7534399816