23

 C    0.9916374313    1.1989149067   -0.6745419489
 C    0.6999789228   -0.2357568085   -0.2919861501
 C    1.8036549378   -1.1959838440    0.0823430473
 C    0.7760524407   -0.7700555900    1.1241964534
 C    1.2495560024    0.1294493055    2.2570074310
 C   -0.3053839320   -1.7195825963    1.5768524673
 C   -0.5470618457   -3.0847231739    0.9513859117
 C    0.0425272510   -2.9761843028    2.3343764583
 O    1.3733292208   -3.3246312542    2.5894895180
 H    1.8349841067    1.6128963697   -0.1155916097
 H    1.2419010517    1.2684451695   -1.7390133772
 H    0.1245570651    1.8449452806   -0.4962373655
 H   -0.0989536504   -0.6863118229   -0.8763065407
 H    1.7846499130   -2.1958462348   -0.3386781755
 H    2.8041775109   -0.7866665680    0.1900377078
 H    2.0372759442    0.8185340859    1.9429375803
 H    0.4209948036    0.7277631689    2.6541689192
 H    1.6420496676   -0.4766516463    3.0803910108
 H   -1.1990427512   -1.2001164158    1.9190648789
 H   -1.5711397918   -3.4241428229    0.8362993451
 H    0.1192720607   -3.4160758314    0.1619032725
 H   -0.5775539040   -3.2606034335    3.1783454870
 H    1.9322749446   -2.8195876712    1.9893925692