19

 C   -0.0526344068    1.4813728631   -0.0125188516
 C   -0.0286637637    0.0262416473   -0.0065581095
 C   -0.0111454965   -1.1798701450   -0.0066366653
 C    0.0327534058   -2.6023135582    0.0180256826
 C   -0.3254443990   -3.4712165183   -1.1660298879
 C   -1.1354340414   -3.6228852293    0.0850397353
 C   -0.3745597112   -4.4401115932    1.1177885364
 O   -0.1811209887   -5.7853726541    0.7349967565
 C    0.8384631569   -3.4503215050    1.0207272354
 H    0.7622934799    1.8923839055    0.5941565038
 H    0.0593358379    1.8808633793   -1.0269627013
 H   -0.9932231803    1.8703014242    0.3943896616
 H   -0.8255387304   -2.9532136959   -1.9765973364
 H    0.3500067080   -4.2634135357   -1.4761508896
 H   -2.1987480485   -3.4199387571    0.1070623288
 H   -0.8484103560   -4.3760733815    2.1059929696
 H    0.3318210283   -6.2226791110    1.4221556905
 H    1.7672354181   -3.8772627919    0.6294439639
 H    1.0410448976   -2.9331677732    1.9603835972