12

 C   -0.0331587081    1.5478256631   -0.0043881535
 C   -0.0110853438    0.0185909451    0.0167611660
 C    0.7093838393   -0.5359671127    1.2397844420
 O   -1.3321984071   -0.5171255405    0.0523605653
 H    0.9821569246    1.9571589997   -0.0318222477
 H   -0.5638809986    1.9208762284   -0.8884586459
 H   -0.5408254809    1.9334094525    0.8857548884
 H    0.5104212174   -0.3376724089   -0.8881917632
 H    0.2224049199   -0.1878586016    2.1565024531
 H    0.6824202398   -1.6288763840    1.2330514094
 H    1.7543430111   -0.2124695005    1.2552418802
 H   -1.8181868136   -0.1557743505   -0.6955396240