15

 C    0.0241945037   -1.1896220096   -0.0151515675
 C    0.0372690130    0.0108300902    0.0409830694
 C    0.0496681781    1.4434292037    0.0839876544
 C    0.5178994308    2.2455432708    1.2670303225
 N    1.5446922769    1.5091983657    2.0030342005
 C    2.4577682705    1.5819165959    0.8121477316
 C    1.3541468652    2.2546290627   -0.0236837408
 C    1.5471782532    3.2429584335   -1.0262168498
 N    1.7082832772    4.0572786560   -1.8342126401
 H    0.0066210753   -2.2508236032   -0.0535434209
 H   -0.7575301595    1.9314774693   -0.4567065637
 H   -0.0862704333    3.0280163927    1.7105098762
 H    1.9120544996    2.0627422687    2.7687408275
 H    3.3053421203    2.2533889651    0.9652750326
 H    2.8061587992    0.6073653086    0.4606394883