17

 C    0.0602890057    1.5171500351   -0.1861736388
 C   -0.0134167761    0.0029051677    0.0653129541
 C   -1.4268507238   -0.5208632879    0.0362144336
 N   -2.2626989269   -0.1145845112    1.0102972058
 C   -3.5083839747   -0.5581153255    0.9872066414
 C   -3.9487992055   -1.4273788347   -0.0239889405
 O   -5.2250401816   -1.8581224298   -0.0134555093
 N   -3.1452457200   -1.8404006086   -0.9899701191
 C   -1.8874302941   -1.3838868190   -0.9538497695
 H    1.0910946257    1.8754995023   -0.1085106855
 H   -0.3133909853    1.7696342504   -1.1838990790
 H   -0.5480437609    2.0521732289    0.5480120950
 H    0.5867487127   -0.5321753391   -0.6788017410
 H    0.4211214955   -0.2198456737    1.0467636723
 H   -4.1881345489   -0.2373354187    1.7714201710
 H   -5.3234573539   -2.4392975600   -0.7807327347
 H   -1.2263868477   -1.7247856262   -1.7467324259