12

 N   -0.0280863628    1.4045775430    0.0103847038
 C    1.2875409220    1.8214936265   -0.0002195129
 C    2.1447883554    0.7358248361   -0.0146442604
 C    1.2848842785   -0.3883892875   -0.0124590887
 C   -0.0307343215    0.0302838286    0.0027599026
 C   -0.7796057526   -1.1661000231    0.0034368080
 N    0.0199764321   -2.2141560304   -0.0102032693
 O    1.3450904118   -1.7302324390   -0.0204982345
 H   -0.8264381701    2.0128934814    0.0216103433
 H    1.5215398641    2.8747798411    0.0033310337
 H    3.2210712621    0.7724111985   -0.0249914370
 H   -1.8462930490   -1.3362562553    0.0129436515