19

 C   -0.0356303632    1.4147149349   -0.0444637475
 O    0.3512221101    0.0561080012   -0.1158445538
 C    0.7930791303   -0.5208321445    1.0912488626
 C    2.0983589295    0.0745681876    1.6040952474
 C   -0.2818191189   -0.7687280177    2.1870082976
 O    0.0082118390   -2.1823857234    2.1876420549
 C    0.7915442055   -2.0757662857    0.9971360111
 C    0.1085306122   -2.6179538702   -0.2471544418
 O   -0.9980008081   -3.0841194387   -0.2666801626
 H    0.8170828389    2.0831008160    0.1339975252
 H   -0.4788423403    1.6644228676   -1.0106591958
 H   -0.7863677272    1.5854918605    0.7404502167
 H    1.9709487818    1.1174994513    1.9101522874
 H    2.4497352639   -0.4856446837    2.4750725545
 H    2.8668755467    0.0327111786    0.8260357625
 H   -0.1116948655   -0.3146845878    3.1689160403
 H   -1.3043567641   -0.5647988738    1.8476862039
 H    1.7762752488   -2.5556759471    1.0959253914
 H    0.7426077405   -2.5567423551   -1.1603517439