18

 C   -0.0723526002    1.5123487311   -0.0327273186
 C    0.0599236482    0.0044414426    0.0802026047
 O    0.9019294957   -0.5191954785   -0.9938735524
 C    1.9356217519   -1.2098426578   -0.2745861350
 C    1.1433534534   -1.9886851524    0.8160500605
 C    0.8332554501   -0.5284024446    1.3099389490
 C    2.2571022747   -0.2412138887    0.8600688845
 N    3.2177788007    0.3859189857    1.3831956437
 O    4.4017077297    0.2327808037    0.6280066621
 H    0.8977871927    2.0011098911    0.0920543816
 H   -0.4704766713    1.7801688451   -1.0156072435
 H   -0.7587369010    1.8948906892    0.7304236578
 H   -0.9270772946   -0.4698024984    0.0058324476
 H    2.6633338337   -1.6424118376   -0.9539501478
 H    0.2999856371   -2.5848392466    0.4585901292
 H    1.7755558089   -2.5492413937    1.5057454424
 H    0.4574988759   -0.2908684351    2.3021028047
 H    5.0300593644    0.7577194650    1.1355159295