21

 C   -0.3603482431    1.4629309155    0.0341291033
 C    0.0555768248    0.0143650818    0.0052053847
 C    1.1475128520   -0.4589118761   -0.9906372899
 C    1.8266600325   -1.2803917685    0.1492553379
 C    0.7412561138   -0.8061175262    1.1540494924
 C    1.1784762694   -0.2522792414    2.4836346732
 O    1.6676289818   -1.3436171017    3.2556430210
 C   -0.5401543443   -1.6549807657    1.1085037957
 O   -1.0800813082   -0.8859320994    0.0079759559
 H    0.5104194034    2.1232410603    0.0995284965
 H   -0.9025584636    1.7091511535   -0.8862478988
 H   -1.0239504652    1.6678055579    0.8794475970
 H    0.7427720739   -1.0320174994   -1.8273175772
 H    1.7722794969    0.3485529296   -1.3829785522
 H    1.8833676600   -2.3611531616    0.0001935706
 H    2.8259261583   -0.9208316479    0.4069137140
 H    1.9595197871    0.5117646808    2.3356384458
 H    0.3280996326    0.2388491835    2.9846193130
 H    1.9433430490   -1.0074042393    4.1135957114
 H   -0.4161054548   -2.7152502187    0.8573554812
 H   -1.1726721062   -1.5733265568    2.0023671346