15

 O   -0.0912946530    1.4707396971    0.0602974837
 C    0.0303864845    0.0609643731    0.0414278272
 C   -1.3849156259   -0.5107545986   -0.1040158016
 C   -1.4110625466   -2.0031279500   -0.1217603877
 C   -1.4729352211   -2.9339961018   -1.1349701231
 N   -1.4341492022   -4.1872780443   -0.6022324259
 N   -1.3508932458   -4.0957089488    0.6927236255
 N   -1.3334316810   -2.7803814138    0.9898021183
 H    0.7905914013    1.8522601127    0.0979465196
 H    0.6514493730   -0.2871486265   -0.7976347258
 H    0.4914312228   -0.3186183426    0.9678080226
 H   -2.0016593944   -0.1189783440    0.7131484868
 H   -1.8179063774   -0.1306675010   -1.0335392138
 H   -1.5477329933   -2.7719254557   -2.1983947914
 H   -1.2867265509   -2.4963284260    1.9557563155