11

 O    0.1265840568    1.3653275782    0.0420715925
 C    0.0810556642    0.0289749144   -0.0254669266
 C    0.0180321186   -0.7548219735   -1.1696765632
 N   -0.0056956652   -2.0205945432   -0.6410084712
 N    0.0381873599   -2.0165304684    0.6877591883
 N    0.0914673743   -0.7618344994    1.0687596696
 C   -0.0175119658   -0.4606161784   -2.5398431718
 C   -0.0485621643   -0.2206757527   -3.7197387379
 H    0.1649604319    1.5984214864    0.9790995962
 H   -0.0505313057   -2.8951750467   -1.1406696278
 H   -0.0753941848    0.0049108131   -4.7571091982