15

 O   -0.0281252661    1.4558073689   -0.0550062793
 C    0.0285563062    0.0365317285    0.0450059554
 C   -1.3697834777   -0.6487125820   -0.0175614756
 N   -1.4003220341   -1.2859485812   -1.3420480515
 C   -2.4910041884   -1.8540522495   -1.9385820300
 O   -2.4782210787   -2.4075472494   -3.0168036678
 C   -0.1128554825   -1.2713894516   -1.8859576088
 C    0.7526467336   -0.5999522552   -1.1189569070
 H   -0.1768110986    1.6726642954   -0.9826620870
 H    0.5001539841   -0.1507071480    1.0134397737
 H   -1.4691711388   -1.4079785559    0.7654954459
 H   -2.1668201073    0.0894060637    0.0980230088
 H   -3.4000164698   -1.7480403823   -1.3161242379
 H    0.0366776701   -1.7850870675   -2.8243766018
 H    1.7997656079   -0.4424640039   -1.3313916271