15

 O   -0.1235856856    1.4928274889   -0.4958721888
 C   -0.1119413812    0.1052427959   -0.1869495370
 C   -1.5079886088   -0.4065061293    0.1623328046
 N   -2.4379752881   -0.0755550618   -0.8964988108
 C   -3.4046043434   -0.9074428718   -1.3328577816
 O   -3.6576732425   -2.0208239451   -0.9042504074
 C   -4.2241842073   -0.3222649742   -2.4871362129
 O   -4.0391916977    0.7728146596   -2.9516199652
 H   -0.2738540519    1.9815809067    0.3202679622
 H    0.2515260284   -0.3951463616   -1.0897997334
 H    0.5833548200   -0.1262528010    0.6321859511
 H   -1.5125798581   -1.4925748357    0.2909268905
 H   -1.8368178245    0.0358798376    1.1153339895
 H   -2.3381560898    0.8171468401   -1.3614551544
 H   -5.0088576895   -1.0172429483   -2.8464701465