21

 C   -0.0854138472    1.5675420116   -0.1987365664
 C    0.0117622636    0.0622247430   -0.0313538697
 C   -1.2462125558   -0.6885354177   -0.4230265638
 C    1.3409257675   -0.6017762997   -0.2032019467
 N    0.7179975945   -0.5256894708    1.1168896539
 C    1.3341070842    0.3031820580    2.1132503218
 C    0.6458944241    0.3928455141    3.4488981727
 C    1.9224653956   -0.4021061903    3.3066093292
 H    0.8561298627    2.0768306267    0.0166065381
 H   -0.3647092417    1.8117393172   -1.2292947469
 H   -0.8565262306    1.9848266134    0.4591663019
 H   -1.4784152706   -0.5383540064   -1.4837468298
 H   -1.1272384575   -1.7588281292   -0.2390088654
 H   -2.1060018839   -0.3385699860    0.1602251685
 H    1.4186536506   -1.5952107036   -0.6397703871
 H    2.1985491813    0.0423785043   -0.3963445367
 H    1.8639287522    1.1948710530    1.7746759254
 H    0.6744519609    1.3365966555    3.9820325421
 H   -0.2764090887   -0.1659541948    3.5564981685
 H    1.8392782292   -1.4824223078    3.3187028195
 H    2.8336827693   -0.0060794406    3.7409919109