19

 O   -0.0152747093    1.2961547192   -0.3939876284
 C   -0.0552053369   -0.0427290352    0.0904540850
 C   -1.4805809119   -0.5074367171    0.0912256155
 C   -2.5356748859    0.1646549546    0.9535715496
 C   -3.7314422858   -0.6829937302    0.5712977278
 C   -3.6183822874   -1.1503139929   -0.8683436576
 C   -3.3012102096   -2.1065067414    0.2637571438
 C   -1.7906585062   -1.9892275701   -0.0612200260
 C   -2.1085492570   -1.0305074177   -1.1908505382
 H    0.8840655565    1.6217480483   -0.2925771406
 H    0.5519358888   -0.7112863075   -0.5415108766
 H    0.3533217974   -0.1007489202    1.1124568929
 H   -2.2981323899    0.0952983062    2.0222028857
 H   -2.6597598530    1.2198363898    0.6909742197
 H   -4.7151316530   -0.5101123398    0.9919109835
 H   -4.4339298100   -1.1645532295   -1.5779093885
 H   -3.8260422684   -2.9941695995    0.5886821677
 H   -1.0497624408   -2.7759059889   -0.0057733691
 H   -1.6534776678   -0.9303047080   -2.1666588362