25

 C   -0.0794380109    1.5556328662   -0.2986422484
 C   -0.0358142200    0.0242420814   -0.3319876539
 C    1.0669908026   -0.5705639991   -1.2314025218
 C    2.4727298807   -0.1944695371   -0.7351212155
 C    0.9250014029   -2.0817066858   -1.3297662682
 C   -0.2396263493   -2.6961524913   -2.0861826801
 C    1.1451669728   -2.8330512396   -2.6296802029
 O    1.4052391471   -2.1455372307   -3.8152566755
 C    2.7767931996   -2.1036629543   -4.1514512913
 H    0.8253288458    1.9843889426    0.1429228075
 H   -0.1838209290    1.9692855312   -1.3083633568
 H   -0.9300282267    1.9088865169    0.2930232737
 H    0.0905561276   -0.3616798462    0.6894767287
 H   -1.0049698181   -0.3524914254   -0.6789165949
 H    0.9366112500   -0.1626222494   -2.2425122674
 H    3.2496739315   -0.6534259347   -1.3536193911
 H    2.6344160935    0.8870022108   -0.7503021005
 H    2.6258347133   -0.5391712839    0.2950593425
 H    1.2344516499   -2.6165210018   -0.4328999460
 H   -0.7422369069   -3.5704646810   -1.6878874207
 H   -0.8850767290   -2.0099954132   -2.6255219440
 H    1.6295982912   -3.8095605607   -2.5744371056
 H    3.3729470750   -1.5665223155   -3.4012741791
 H    3.1937636938   -3.1162802031   -4.2635566330
 H    2.8567223927   -1.5827382663   -5.1085896257