25

 C    0.0609017526    1.5425181327    0.1388644315
 C   -0.0548284731    0.0196234466    0.2400067802
 C   -1.4332129287   -0.5094340515   -0.1841134122
 C   -1.5249577877   -2.0201495136   -0.1088538350
 C   -2.0210877043   -2.7141746100    1.1480610578
 O   -2.5379463056   -1.9498247945    2.2026370840
 C   -2.8438119619   -2.7869625884   -0.1129306248
 C   -4.1618263586   -2.0375051807   -0.1752706396
 C   -2.8576288414   -4.1141076989   -0.8501565462
 H    1.0516841965    1.8914142737    0.4465395845
 H   -0.1076380610    1.8829934829   -0.8889143722
 H   -0.6801980939    2.0396955287    0.7747424599
 H    0.7206439409   -0.4504959185   -0.3790529129
 H    0.1538601862   -0.2983987860    1.2708756550
 H   -2.2000015027   -0.0549362601    0.4511965186
 H   -1.6440638139   -0.1755282186   -1.2092938613
 H   -0.7071661831   -2.5278600234   -0.6189052063
 H   -1.5115648818   -3.6247352462    1.4665925000
 H   -1.7984940644   -1.5365972240    2.6606540024
 H   -4.1752806286   -1.1708184699    0.4856145934
 H   -4.3725798434   -1.7017022359   -1.1972848530
 H   -4.9837802695   -2.6947475084    0.1312163164
 H   -3.6391359397   -4.7751570202   -0.4567489351
 H   -3.0534857548   -3.9671358694   -1.9191631744
 H   -1.9003492583   -4.6373799162   -0.7588654507