19

 C    0.0236982460    1.4821864195   -0.2460744553
 C    0.0461590017   -0.0026670734    0.0469061642
 O   -1.1227330538   -0.6622896140   -0.3766644513
 C    1.3435773234   -0.7915087394   -0.0150977199
 C    0.6342423584   -0.5518283594    1.3182385155
 N    1.1458392441    0.3508725130    2.3230924489
 C   -0.0741060672   -1.7403417874    1.9621941751
 C    0.8663899066   -2.5865670427    2.6979474042
 N    1.6318879706   -3.2309675232    3.2767686226
 H    0.9518218819    1.9829536433    0.0416057406
 H   -0.1035045412    1.6443819360   -1.3229990027
 H   -0.8103710550    1.9655392946    0.2710146175
 H   -1.1096667466   -0.6972551664   -1.3397878714
 H    1.3032195093   -1.7858810655   -0.4481636457
 H    2.2670761366   -0.2505602591   -0.1962603516
 H    1.8905432408   -0.1072897713    2.8437078446
 H    1.5537789557    1.1785641368    1.9047105993
 H   -0.8327700944   -1.3718813748    2.6608982781
 H   -0.5842695669   -2.3344155663    1.2022054074