18

 C    0.0557218010    1.4704546109   -0.3662968687
 N    0.0437740818    0.0346291054   -0.0976196027
 C   -1.0213342725   -0.4791618781    0.8059748175
 C   -0.1390430130   -1.6902531379    1.2320328424
 C   -0.3946428828   -1.4710300254    2.7297018548
 C   -0.3353136166   -0.0258360346    2.1765928008
 C   -0.4882849708    1.1827214982    2.9249362008
 C   -0.6228649210    2.1763348023    3.5928169990
 C    0.7788166076   -0.4378000106    1.1071420694
 H    1.0199909258    1.7395689150   -0.8101215907
 H   -0.7228471458    1.6995356872   -1.1015320800
 H   -0.1069853863    2.1001879323    0.5202753712
 H   -2.0852347432   -0.4604130828    0.5627505829
 H   -0.0227149902   -2.6100678865    0.6630466378
 H   -1.3640487644   -1.7942504481    3.1189533738
 H    0.4088127210   -1.7535152726    3.4155567461
 H   -0.7394688547    3.0611197033    4.1680726679
 H    1.8620086940   -0.3697188279    1.2231288977