15

 N   -0.1682255266    1.5283330707    0.0113113217
 C   -0.0866374018    0.1179744132   -0.0051732672
 C   -0.0214916434   -1.0010409741   -0.9603522183
 O    1.3863886452   -1.3956726445   -0.6525087581
 C    1.0133896921   -0.8535089577    0.5860911974
 N    0.7890050114   -1.5773483198    1.6018823296
 C   -0.6940262310   -1.4473580533    1.7398401117
 C   -1.0927980847   -0.8978220262    0.3414067304
 O   -2.4093169563   -0.6600916827    0.0041346444
 H    0.4297785285    1.9519053832   -0.6902142289
 H   -1.1224357188    1.8287417525   -0.1582185978
 H   -0.3512292494   -1.1763263778   -1.9780461528
 H   -1.0635526456   -2.4596020066    1.9388550711
 H   -1.0578718731   -0.7855328074    2.5395397079
 H   -2.8830842264   -1.4992648494   -0.0154748012