16

 C    0.0051523593    1.4846186913   -0.0123807999
 N   -0.0326382692    0.0446492360    0.1251598783
 C   -1.2916252443   -0.6247755578    0.5080562480
 C   -0.4602973785   -1.6641755012    1.3035821686
 O   -0.1850670826   -2.8683835567    0.6559064972
 C    0.6785255893   -0.5788753123    1.2564611596
 C    2.0431215161   -1.0170405155    0.9790405016
 N    3.1172273121   -1.3758622096    0.7485424619
 H    1.0297367041    1.8089503736   -0.2186168106
 H   -0.6209101843    1.7870657379   -0.8573681389
 H   -0.3535152153    2.0124236025    0.8906609458
 H   -1.9334617223   -0.0151861928    1.1650648644
 H   -1.8869912539   -1.0057619661   -0.3276759511
 H   -0.8147359955   -1.9183384296    2.3020640012
 H    0.1643950633   -2.6736291901   -0.2221857394
 H    0.6746866816    0.0339059805    2.1735795535