19

 C   -0.7955598957    1.2604602623   -0.1760342390
 C   -0.0604953513   -0.0740369757   -0.1194714263
 C    1.1296980006   -0.2254487070   -1.0800530414
 O    1.8710335933    0.9837154502   -1.0638260532
 C    1.8900296078   -1.4069641955   -0.4578976635
 O    1.5372975428   -1.4741544320    0.9233194334
 C    0.5834631310   -0.4549653271    1.2394907955
 C    1.2050659351    0.6573473683    1.9653744127
 C    1.6892289839    1.5448989274    2.6152889309
 H   -0.1143486190    2.0879988724    0.0246335261
 H   -1.2395778205    1.4112742413   -1.1649675835
 H   -1.6036581126    1.2894342742    0.5617486117
 H   -0.7578125434   -0.8871185787   -0.3555418528
 H    0.7958426309   -0.4605559399   -2.1012931793
 H    2.7090617712    0.8329807471   -1.5111007409
 H    1.6148509242   -2.3549651441   -0.9402315664
 H    2.9761914244   -1.2772584997   -0.5570419352
 H   -0.1641191149   -0.9131337032    1.8985238291
 H    2.1295648522    2.3347429699    3.1719930219