19

 C    0.4507175484    1.3059165089    0.1893141686
 C   -0.3858296845    0.1031201610   -0.2499861905
 N    0.1530665958   -0.5598161567   -1.4301511717
 C    0.7248810839   -1.7891499354   -1.3976755028
 O    0.8120491086   -2.4742446388   -0.3902996462
 C    1.2603855698   -2.2775004238   -2.7468279727
 N    1.8303416535   -3.5864867131   -2.5620781368
 C    2.4078962146   -4.2721471767   -3.5741612888
 O    2.4983250081   -3.8665991788   -4.7163287107
 H    1.4687685930    0.9982856560    0.4443874849
 H    0.5102228899    2.0618417573   -0.6013900039
 H    0.0026345425    1.7782835782    1.0689372753
 H   -0.4150304062   -0.6552218936    0.5345652942
 H   -1.4179339502    0.4117165785   -0.4548237606
 H    0.1537067875   -0.0552093754   -2.3030186940
 H    0.4484557224   -2.2992555278   -3.4859922096
 H    2.0089521954   -1.5721983047   -3.1318504748
 H    1.7768865769   -3.9485928792   -1.6191771172
 H    2.7942422505   -5.2565132261   -3.2444906029