16

 C    0.1038479924    1.5435668224   -0.0591813207
 C   -0.0222036524    0.0583096515   -0.0038628130
 C    0.3842686902   -1.0526697859   -0.9560561179
 C    0.8716608624   -1.0226238669    0.5227955714
 N   -0.1880473796   -1.7751733510    1.2627177789
 C   -1.1651219821   -0.8999957150    0.4420573843
 C   -0.9032886359   -1.8836351200   -0.7563031824
 C   -0.4972626314   -2.8924171023    0.3219399130
 O   -0.4934049866   -4.0668919921    0.4879409528
 H    1.1014187935    1.8318208082   -0.4074656654
 H   -0.6271819886    1.9822026002   -0.7475365250
 H   -0.0472428423    1.9924832874    0.9287613055
 H    1.0575554433   -1.0345649209   -1.8016764581
 H    1.9103807575   -1.0188707307    0.8245327087
 H   -2.1352658774   -0.6734776553    0.8767803991
 H   -1.5685158130   -2.0958888197   -1.5890165613