14

 N   -0.0536365259    1.2773548002    0.0074650589
 C    0.0681837170   -0.0705745278    0.0000746343
 O    1.1012793449   -0.6989994609   -0.0126020975
 C   -1.3296315945   -0.7339164835    0.0105854092
 O   -2.3621653062   -0.1046110795    0.0235089208
 O   -1.2389591897   -2.0594481395    0.0026976485
 C   -2.5106530159   -2.7511802394    0.0113331677
 C   -2.2664195188   -4.1809445908    0.0011771572
 C   -2.1023077344   -5.3696956955   -0.0069000389
 H    0.7737965093    1.8488806406    0.0029139138
 H   -0.9707973477    1.6918345126    0.0189235718
 H   -3.0732852051   -2.4455917299    0.8998761273
 H   -3.0904873558   -2.4360001857   -0.8626802379
 H   -1.9498623872   -6.4209123009   -0.0141743052