23

 C    0.5553790106    1.6129893926   -0.1574723936
 C    0.0870916762    0.1732407459    0.0760419457
 C    0.5755717390   -0.7724442434   -1.0288475170
 O    1.9157172397   -1.0883731190   -0.6682471374
 C    1.9997328372   -1.1819402446    0.7538840221
 C    3.3366077344   -0.5923829806    1.1874797391
 C    0.6872775899   -0.5323855237    1.3191459142
 C    0.8673993060    0.3379614442    2.5604201412
 O   -0.2618385831   -1.5709803509    1.6109088980
 H    1.6377007337    1.6642040366   -0.3104837174
 H    0.0785818278    2.0178471304   -1.0561452032
 H    0.2944074146    2.2708442129    0.6761503667
 H   -1.0022550389    0.1480593457    0.1695052484
 H   -0.0457255638   -1.6780726682   -1.0664314683
 H    0.5991324510   -0.3155197541   -2.0226002994
 H    1.9744413140   -2.2456813328    1.0445545047
 H    3.3993195009    0.4754234867    0.9611048356
 H    3.5043792113   -0.7331898776    2.2596538713
 H    4.1428268539   -1.0974760306    0.6482020737
 H    1.5587497886    1.1675351433    2.3973991537
 H   -0.1000814867    0.7439535867    2.8692546475
 H    1.2587895973   -0.2588752257    3.3929638782
 H    0.1171986764   -2.1352254539    2.2933908961