16

 O    0.2114464903    1.3598653274   -0.0731023851
 C    0.1582177671   -0.0052456209   -0.0619094095
 C    0.4170903255   -0.9847005673    1.1170909790
 N   -1.0478301406   -0.8662536052    1.5701472280
 C   -1.1050446946   -0.9395386804    0.0694015456
 C   -1.8496161279   -0.8784729020   -1.2431910492
 C   -0.8232567232   -0.8693274963   -2.1127472664
 C    0.4769440341   -0.9208311721   -1.2698792669
 C    0.1076916566   -1.8957417216   -0.1008627688
 H   -0.1880153751    1.6731847795    0.7488714181
 H    1.2288942535   -1.0305618376    1.8428076470
 H   -1.3575122585   -1.7496082099    1.9859283100
 H   -2.9120212445   -0.8363577298   -1.4290789214
 H   -0.8680819068   -0.8368265263   -3.1921405375
 H    1.4374912764   -0.9300228890   -1.7849375873
 H    0.0455450576   -2.9835940286   -0.1195440656