18

 C   -0.1205360668    1.5456101279   -0.0548093526
 C    0.0310971268    0.0624456154   -0.0236890042
 C    0.0783885725   -1.0347830841   -1.0148537616
 N    1.2933679162   -1.6286209763   -0.4455636228
 C    0.9457305495   -0.9229079385    0.8310446801
 C    2.0388012460   -0.5980759213    1.8027699964
 C   -0.4113855834   -1.5264362638    1.2832404252
 O   -0.8079087694   -1.9408612160    2.3391346895
 C   -1.0615542016   -1.0624898763    0.0238646077
 H    0.8252319123    2.0310563050   -0.3184320763
 H   -0.8689553156    1.8435163142   -0.7958050019
 H   -0.4408374555    1.9343685408    0.9176211803
 H   -0.1366698905   -1.0219517176   -2.0771519196
 H    1.2528479736   -2.6474329093   -0.3545942225
 H    2.8314774776   -0.0165276944    1.3242277796
 H    1.6446348534   -0.0375022197    2.6556538906
 H    2.4815051491   -1.5212355625    2.1920200652
 H   -2.1094380041   -0.9766003733   -0.2286458530