22

 C   -0.1497915884    1.5298978839    0.0063002347
 C    0.0495616063    0.0106460875   -0.0121082173
 C    0.7532874649   -0.4806462113   -1.2815791842
 C    1.0453771203   -1.9737419948   -1.1689112827
 C    1.9765853071   -2.2281281180    0.0107240763
 N    1.5507760523   -1.5505794551    1.2311436627
 C    2.2285287113   -1.9788634121    2.4439248133
 C    0.7299907590   -0.4495067076    1.2884622871
 O    0.5023603714    0.1289535439    2.3402505769
 H    0.8116822497    2.0511734054   -0.0566373597
 H   -0.7608488851    1.8440627273   -0.8457622622
 H   -0.6370395132    1.8388184651    0.9314742026
 H   -0.9451244447   -0.4598296126    0.0202931235
 H    0.1316977956   -0.2641575079   -2.1572985207
 H    1.6932395822    0.0712265764   -1.4211396374
 H    0.1066786567   -2.5232345215   -1.0252686518
 H    1.5116820535   -2.3652167812   -2.0787478294
 H    2.0356909934   -3.3030432248    0.2239937866
 H    2.9996452333   -1.9077956270   -0.2475516029
 H    3.3136070649   -1.8291839909    2.3602600844
 H    1.8474884358   -1.3906968344    3.2764862470
 H    2.0454153434   -3.0445782102    2.6269131832