20

 O    0.1374144076    1.4105008518   -0.1330503149
 C    0.0926548111    0.0134691759    0.0578483969
 C   -1.3480303829   -0.5012679234   -0.0016519210
 O   -1.9595333421   -0.0218290779   -1.2093086131
 C   -1.4617744845   -2.0087008536    0.1308813491
 C   -1.1477284054   -2.6682675476    1.5065702418
 C   -2.3497151040   -3.6245512637    1.2796769501
 C   -2.8787308445   -2.6454240536    0.1965499950
 H   -0.5132936808    1.5893697049   -0.8251036179
 H    0.6934109843   -0.5180347023   -0.7046363573
 H    0.5400496349   -0.2038345739    1.0340241231
 H   -1.9212422323   -0.0166852046    0.7987810169
 H   -1.5973352039   -0.5351041841   -1.9415446803
 H   -0.8658167973   -2.4883926900   -0.6583922931
 H   -0.1585879916   -3.1103656760    1.6460927406
 H   -1.3344072898   -1.9711619163    2.3303512209
 H   -2.0317648132   -4.5771486011    0.8463909952
 H   -2.9971301456   -3.8337769593    2.1340495006
 H   -3.6079291414   -1.9384887577    0.6039364784
 H   -3.2891881585   -3.0715332078   -0.7215338108