20

 C   -0.0517682238    1.5011357498    0.0504410298
 C   -0.0189427956    0.0026806000   -0.0102936905
 C   -0.0284310528   -0.7183054091   -1.1347624584
 C    0.0270540352   -2.2291051831   -1.0353597160
 N    0.0846837679   -2.7084987454    0.3619559576
 C    1.1124864249   -1.8973855400    1.1126744871
 C    0.0455380417   -0.7995913804    1.2956145124
 O    0.1375851567   -0.0349824170    2.4678023967
 C   -0.9603088419   -1.9782720456    1.1681535172
 H    0.8020334742    1.8948256957    0.6129575132
 H   -0.0385415881    1.9322009250   -0.9537366430
 H   -0.9545381571    1.8732290109    0.5550718426
 H   -0.0667831360   -0.2527196690   -2.1170986779
 H   -0.8480287443   -2.6854464373   -1.5174024079
 H    0.9041960961   -2.6214860069   -1.5674259831
 H    1.3620469435   -2.3999184795    2.0518226486
 H    2.0203422153   -1.6491997745    0.5578580752
 H   -0.6146344841    0.5648218095    2.5099366693
 H   -1.9111594900   -1.8017467664    0.6581522773
 H   -1.1225982118   -2.4988731167    2.1170116197