19

 C   -0.0166946225    1.5379548141    0.0495278084
 C    0.0244629679    0.0336678307   -0.0060453136
 C    0.5782030537   -0.8719139670   -1.1481404652
 C    1.5833496519   -1.5148618246   -0.1745432913
 C    0.8491313306   -0.8145632432    1.0138752253
 O   -0.0377146163   -1.6395447237    1.7523072666
 C   -1.3449396759   -1.6176549649    1.1755522982
 C   -1.2442306565   -0.8363656490   -0.1257232660
 O   -0.6646364983   -1.6100463240   -1.2053477452
 H    0.9912945868    1.9659676461    0.0231937373
 H   -0.5775315485    1.9542288920   -0.7941761129
 H   -0.4955856049    1.8832384206    0.9735608453
 H    0.9042626738   -0.5364275537   -2.1352219295
 H    1.6153415395   -2.6058905049   -0.1540076879
 H    2.5939639445   -1.1158837668   -0.3107489609
 H    1.4913621802   -0.2810111608    1.7195468380
 H   -1.6865549956   -2.6435886459    0.9964352393
 H   -2.0462573159   -1.1304496654    1.8688760893
 H   -2.1838029145   -0.3628437396   -0.4303690052