20

 C   -0.0402931605    1.4539064043   -0.0385967522
 N    0.0411153776    0.0055468397    0.0365053665
 C    0.8375674726   -0.4212987059    1.1740812467
 C   -1.2930686948   -0.5983592070    0.0179689452
 C   -1.2816158336   -2.0869959511   -0.1822082505
 N   -1.2050346786   -2.6014514614   -1.4103035055
 N   -1.2244179551   -3.9326404703   -1.2225486246
 C   -1.3187671770   -4.2886992764    0.0811455563
 C   -1.3616706102   -3.1102895898    0.7938943447
 H    0.9679364308    1.8773329171   -0.0890029232
 H   -0.5797899528    1.7507738659   -0.9436734995
 H   -0.5549190785    1.9116007903    0.8302426776
 H    0.4038769810   -0.1145847997    2.1478136953
 H    0.9372005482   -1.5094861785    1.1763494123
 H    1.8399528410    0.0125761132    1.1027145174
 H   -1.8552453965   -0.3671679128    0.9454447501
 H   -1.8438195599   -0.1467347477   -0.8127619693
 H   -1.1853812471   -4.5370586027   -2.0255290607
 H   -1.3511531177   -5.3222318639    0.3876265424
 H   -1.4416352890   -2.9975553130    1.8631254610