19

 N   -0.2956650776    1.3591430370   -0.0928167432
 C   -0.0237125647   -0.0595204053    0.0179064639
 C    0.9565596558   -0.4918696749    1.1592998633
 N    2.2326889542    0.2064137672    0.9337550666
 C    0.4006221433   -0.0286163425    2.4433364247
 N   -0.0708377242    0.3025693348    3.4455922837
 C    1.0940471483   -2.0190577174    1.1701904566
 C    1.4931106786   -2.7761769702    2.3811816953
 N    0.1306883034   -2.9055990713    1.8299487170
 H   -0.8464326913    1.6740535462    0.7005472208
 H    0.5817280480    1.8709361208   -0.0566275923
 H   -0.9642346002   -0.6046738976    0.1398236625
 H    0.4284008115   -0.4136278838   -0.9185234946
 H    2.8915212658   -0.0237142469    1.6725142153
 H    2.6382370235   -0.1376921093    0.0664113987
 H    1.4256785853   -2.3887261580    0.1998774622
 H    2.1140436083   -3.6620161578    2.2853221247
 H    1.6197389917   -2.2257775235    3.3098552855
 H   -0.5147579597   -2.3628895276    2.4018074993