19

 C    0.2642517858    1.0831107103   -0.5417340222
 C    0.1695342179   -0.1580336457    0.3460243133
 O    0.2601481859    0.1980986868    1.7333288090
 C   -1.1861109245   -0.8517786411    0.2322647675
 C   -2.0204072556   -1.1960734852   -0.9785987399
 C   -1.2305560342   -1.8721414402   -2.1377117031
 O    0.1626290341   -1.9262901084   -1.8005200646
 C   -0.7298268301   -2.9064489113   -1.2427050891
 C   -1.5075737405   -2.2954431340   -0.0344391262
 H    1.2130238020    1.6056837004   -0.3712654162
 H    0.2187209052    0.8069900487   -1.5980736677
 H   -0.5517442360    1.7781899584   -0.3192865937
 H    0.9740401201   -0.8514098208    0.0890152001
 H    1.1189755191    0.6101336613    1.8696357566
 H   -1.8363557056   -0.4654619696    1.0168875932
 H   -3.0383907481   -0.8468501469   -1.0971116246
 H   -1.4957254568   -1.8870652977   -3.1878359610
 H   -0.4898030275   -3.9502128264   -1.4037177609
 H   -2.0833327115   -2.9081353786    0.6474412196