18

 O   -0.2160421604   -0.0153822164    0.2430135839
 C   -0.0570264891    1.1319782949   -0.0893574035
 C    1.1667481905    1.9689682265    0.1113741080
 C    1.5484200684    3.0051105230    1.1312862985
 C    1.1606153820    2.9393006921    2.6113091398
 C    2.5407921132    2.4256204733    3.1736606923
 C    2.1335800712    1.1725482121    2.3334893829
 C    0.6850585035    1.4804912801    2.8040388275
 N    2.3392208413    1.7486342384    0.9597792751
 H   -0.8216143445    1.6628432529   -0.7037103102
 H    1.4847131624    2.2762744798   -0.8921323637
 H    1.9947748061    3.9266408682    0.7643329311
 H    0.6331242795    3.7948094214    3.0311728079
 H    3.4481958537    2.9482513153    2.8629336784
 H    2.5302713473    2.2586035480    4.2522416073
 H    2.5992203102    0.1956085792    2.4436783322
 H    0.5717263418    1.2413266254    3.8629655010
 H   -0.1714478871    1.1007262460    2.2591669315