17

 N   -0.0959793574    1.3220858099   -0.1402298018
 C   -0.1362270555   -0.0583527430   -0.0709268206
 C   -1.1896658306   -0.9312955063   -0.0462928443
 C   -2.6337540638   -0.5666651177   -0.1141125274
 O   -2.7991464678    0.5016412381   -1.0590537285
 C   -0.5933859051   -2.2393928248    0.0898839056
 N   -1.3164571259   -3.4357233775    0.2348820268
 C    0.7522935785   -2.0553864715    0.1350605430
 O    1.0399142355   -0.6999146904    0.0397043958
 H    0.7535895014    1.6697061754   -0.5659405041
 H   -0.9261844263    1.6734849500   -0.6026101024
 H   -3.2345363480   -1.4397262363   -0.4141781070
 H   -3.0150458640   -0.2483200443    0.8701127156
 H   -3.6790249043    0.8703025474   -0.9326359193
 H   -2.0880317927   -3.4984890180   -0.4193201217
 H   -0.7299264957   -4.2527295047    0.1180354305
 H    1.5992443218   -2.7088710962    0.2438474197