18

 C   -0.3003787719    1.6190417184   -0.0198282540
 C   -0.0267403808    0.1267899308   -0.0927996585
 C    1.0316161810   -0.3268505819   -1.1277941860
 C    1.8559381820   -0.6880390644    0.1036524341
 O    2.9224645253   -1.1469822249    0.3526159272
 O    0.8953585214   -0.2759054376    0.9977334688
 C   -1.2933695882   -0.6970916232   -0.0365804544
 C   -1.3035779809   -2.0888970087    0.4713511807
 N   -1.9167992430   -0.9996065936    1.2584120772
 H    0.6337382682    2.1872650464   -0.0222089877
 H   -0.9017634702    1.9337335124   -0.8786340131
 H   -0.8546980978    1.8636226921    0.8906593210
 H    0.7584879359   -1.1801281297   -1.7504025596
 H    1.4715635589    0.4585535846   -1.7450441520
 H   -2.0073130965   -0.4251089260   -0.8129211537
 H   -2.0058169509   -2.8057248510    0.0561960826
 H   -0.3715588299   -2.5132361782    0.8312744637
 H   -1.2669524727   -0.7419862154    2.0001063136