17

 C    0.2595841138    1.5104337442    0.2375438863
 O    1.2829617999    0.5379322258    0.0227140732
 C   -0.0670852426    0.0807618971    0.1529722101
 C   -0.4087888778   -0.6936014289    1.3607022662
 O   -0.1478006683   -0.1519945546    2.6549700063
 C   -0.4158182051   -1.4869639097    3.1758297937
 C   -1.9467396011   -1.6457083028    2.9818823113
 C   -1.6202486230   -1.6482343563    1.4885457245
 C   -0.1930390835   -2.1194242769    1.7527681840
 H    0.2708474250    1.9857322943    1.2157098452
 H    0.0404039719    2.1620874549   -0.6072534385
 H   -0.5005945476   -0.3054534533   -0.7699452907
 H    0.1031270939   -1.7026167134    4.1066692134
 H   -2.2973063965   -2.6267417738    3.3121276950
 H   -2.5737713469   -0.8492413870    3.3939890793
 H   -2.2619061501   -1.8892080676    0.6503186293
 H    0.4176449279   -2.9165937120    1.3536169916