21

 O   -0.2401781361    1.5248079497    0.2783078133
 C    0.0142447989    0.1486066536   -0.0072008894
 C    0.8884022725   -0.4543195954    1.1236475256
 C    1.6048008006   -1.7525420264    0.8281485682
 C    1.0454146547   -2.9579829435    0.7300893057
 C   -0.4408056109   -3.2224222375    0.8331057266
 C   -1.1192633720   -2.9687820188   -0.4958403966
 C   -1.4963769541   -1.7650960442   -0.9249160818
 C   -1.3929080036   -0.4714911827   -0.1520875276
 H    0.6067364611    1.9657378688    0.3991402615
 H    0.5493938331    0.0514969449   -0.9644573644
 H    1.6464198256    0.2991258924    1.3715531323
 H    0.2591129562   -0.5481341202    2.0180825160
 H    2.6797260219   -1.6762733099    0.6802760460
 H    1.6773696173   -3.8130134131    0.5012703812
 H   -0.6181399135   -4.2525473776    1.1573379137
 H   -0.8765960552   -2.5665233931    1.5968639555
 H   -1.2420079063   -3.8268036360   -1.1526059903
 H   -1.9237950413   -1.6881300148   -1.9221444032
 H   -1.8162843813   -0.5859443121    0.8541449530
 H   -1.9988857677    0.2901361161   -0.6503126051