17

 C   -0.0690054952    1.5370056121    0.0271451952
 C   -0.0372794141    0.0390429916    0.0019833015
 C    0.4145257730   -0.7729821033   -1.2318464295
 C   -0.5744927224   -1.8050546373   -0.7271424792
 C   -0.5448825046   -1.8127802581    0.7643733031
 C    0.4594399214   -0.7738943381    1.2397007993
 C    1.8725928723   -1.1054424021    1.3675718102
 N    2.9970233844   -1.3646446493    1.4413452648
 N   -1.3719132295   -0.7881551338    0.0443953161
 H    0.9501680962    1.9396862315    0.0209983178
 H   -0.5965661022    1.9255241170   -0.8491195395
 H   -0.5796026170    1.9042309423    0.9227811377
 H    0.0544183267   -0.3043014380   -2.1512717872
 H    1.4722453232   -1.0328849096   -1.3306847060
 H   -1.0675715558   -2.5924861639   -1.2846943986
 H   -1.0009521226   -2.5929294904    1.3613553926
 H    0.1028055261   -0.2999138606    2.1589709816