23

 C   -0.1172804967    1.4337450778    0.1701013529
 C   -0.0766580218   -0.0930446845    0.0510315455
 C    0.6452956316   -0.5753180294   -1.1991836508
 C    2.1751669678   -0.3099966738   -1.3427690462
 C    2.3312312573   -1.7222856749   -1.9368736734
 O    3.4223556823   -2.4486050398   -1.4200837550
 C    3.6329783627   -3.6905254271   -2.0727939709
 C    0.9304560237   -2.1044629453   -1.3491625497
 O    1.0656576539   -2.7925493548   -0.1244179134
 H    0.8921434913    1.8585704361    0.2039566066
 H   -0.6362926361    1.8869425445   -0.6823416014
 H   -0.6379820548    1.7467188331    1.0805707966
 H    0.4120617751   -0.5299136735    0.9283640325
 H   -1.1001573143   -0.4900598766    0.0479138447
 H    0.1204904945   -0.2224846673   -2.0957562540
 H    2.5072725063    0.5320710105   -1.9529356522
 H    2.6680771438   -0.2566764539   -0.3672893242
 H    2.3430815927   -1.7292552069   -3.0349634833
 H    3.8321072431   -3.5448299498   -3.1441647129
 H    4.5061809563   -4.1543044026   -1.6083435964
 H    2.7697768051   -4.3605786036   -1.9623087890
 H    0.2406947706   -2.6633132056   -1.9915785549
 H    2.0166648257   -2.8783961428    0.0329743191