13

 C   -0.0027947120   -1.1869791524   -0.0371724137
 C   -0.0051375046    0.0137895175    0.0166503915
 C    0.0129874069    1.4431938535    0.0635811376
 C    0.3773424505    2.2677280558   -1.1700632800
 C    1.2782485586    2.3193936233    0.0191033764
 O    1.0396836460    3.3554730640    0.9534183920
 C   -0.2258375661    3.1429569540    1.4059390242
 N   -0.8653648588    2.1208954221    1.0035025574
 H   -0.0095589781   -2.2480382417   -0.0771550800
 H    0.7479702312    1.7080113151   -2.0205427676
 H   -0.2506252936    3.1217079284   -1.4003266203
 H    2.3022031497    1.9718109350    0.0111806740
 H   -0.5910677597    3.8888483555    2.1005672885