17

 C   -0.1496641118    1.4954316846    0.0435448326
 C    0.0610760556    0.0153997009    0.0120916501
 N    0.5774814094   -0.5453812508   -1.0572090600
 O    0.6420283292   -1.9208446752   -0.7661807908
 C    0.1603259583   -2.1233095995    0.4698423127
 C   -0.2322849206   -0.9402354084    1.0255421913
 N    0.2275574969   -3.4140898591    0.9550463031
 C   -0.9625677090   -4.0436163002    1.5193845746
 C   -0.4033633189   -4.5061024563    0.2166282216
 H    0.4129228571    1.9529935189    0.8638777607
 H    0.1797211602    1.9399139281   -0.8975222192
 H   -1.2066588770    1.7376783592    0.1954031096
 H   -0.6487507718   -0.7761439285    2.0047384264
 H   -0.7945988899   -4.6190464889    2.4241397717
 H   -1.8881040127   -3.4740641480    1.4928107778
 H   -0.9482128094   -4.2490316580   -0.6870626399
 H    0.1792620044   -5.4199201388    0.1644193878