16

 N    0.3850780983   -1.0721854178   -0.7026495444
 C    0.2022067716    0.0142923262   -0.3203013416
 C   -0.0716351214    1.3081320132    0.1291433321
 C    0.8640006728    2.2205122676    0.5989002168
 N    1.4118847606    3.1692416653    1.0286443265
 C   -1.4727285647    1.8526084682    0.1422913296
 C   -1.8855410850    2.5389376779    1.4941288217
 N   -1.4520019820    3.8777545572    0.9029089169
 H   -1.9800710623    4.7144087957    1.1442081700
 H   -0.4358081263    4.0022561877    1.0878111801
 C   -1.6153488614    3.2826554035   -0.4932022237
 H   -2.1830130420    1.1168453837   -0.2296681875
 H   -2.9587822886    2.5729475252    1.6884428556
 H   -1.3202834324    2.2819814777    2.3881738261
 H   -0.8356874076    3.6156577131   -1.1759166613
 H   -2.6116960297    3.5283406855   -0.8642992267