16

 O   -0.4182104396    0.3479157838    1.9944998394
 C   -0.0292663746   -0.0172038719    0.7158827321
 C   -0.5438670283   -1.2484653732    0.0356423985
 C   -0.9561955660    0.1309905443   -0.4891397473
 C   -2.3327445266    0.5998114241   -0.2916258877
 C   -3.1571408199    1.2887827342   -1.1205558984
 O   -4.3450817573    1.5059566939   -0.4678167711
 C   -4.1765865873    0.9357089214    0.7359887100
 N   -3.0207320649    0.3819200183    0.9095918798
 H   -1.3845077658    0.2664643598    2.0460428635
 H    1.0100402581    0.2489884300    0.5491117955
 H    0.1246684715   -1.8445158098   -0.5764760088
 H   -1.3138110425   -1.8095639515    0.5548131972
 H   -0.5051090791    0.4566626177   -1.4206747711
 H   -3.0809194892    1.6764172443   -2.1208541768
 H   -5.0020266385    0.9906286844    1.4280326253