20

 N   -0.0792158311    1.2979229200   -0.6341847027
 C   -0.0179248414    0.1277367299   -0.1517014212
 C   -1.2819414561   -0.6935297230   -0.0111390298
 C   -1.9026639289   -0.6925426116    1.4027007122
 C   -1.1642489983   -1.4504562139    2.5191365151
 C    0.2153077045   -0.8970698278    2.9147904569
 O    1.3386911809   -1.5145222941    2.2868246018
 C    1.3031735028   -1.6359832287    0.9056182081
 O    1.1924392917   -0.3889431545    0.2362999215
 H    0.8520215817    1.7205909693   -0.6400626215
 H   -1.9928815817   -0.2226044158   -0.6920529473
 H   -1.1352333634   -1.7206465889   -0.3626428041
 H   -2.0325594289    0.3522430836    1.7108890135
 H   -2.9112108504   -1.1124035819    1.3144980674
 H   -1.7984044348   -1.4059618189    3.4122499928
 H   -1.0690806100   -2.5170296155    2.2787441621
 H    0.2467405487    0.1889415686    2.7466020072
 H    0.3928460203   -1.0659691413    3.9798664807
 H    2.2738923312   -2.0447726776    0.6172149763
 H    0.5080719532   -2.3129910480    0.5725271111