21

 O   -0.1484726417   -0.0694488054   -0.2198113211
 C   -0.0068192451    1.1224809322   -0.1284092409
 C    1.3191589952    1.8457879153   -0.1340920467
 C    1.3840989971    2.9120628854   -1.2441685545
 C    2.6506444583    3.7328754826   -1.2026449580
 C    4.1243591602    3.2292338413   -1.3397310522
 C    4.2234192251    4.7706351567   -1.1693478448
 C    3.0444423563    4.8892507623   -2.1742407888
 C    3.1612737224    4.6475625901   -0.0414688647
 H   -0.8918588213    1.7972409389   -0.0366069568
 H    1.4294943429    2.3410726404    0.8415520374
 H    2.1208287086    1.1090419596   -0.2349058957
 H    1.3018623920    2.4234412666   -2.2235663884
 H    0.5187258183    3.5835206297   -1.1585737603
 H    4.5156292483    2.6190310424   -0.5204941942
 H    4.4119225513    2.8217669791   -2.3135081341
 H    5.1328456161    5.3709762148   -1.1488644775
 H    3.2498141894    4.6067017293   -3.2110396066
 H    2.4399245397    5.7997041636   -2.1202927484
 H    2.5665702878    5.5403513932    0.1745263616
 H    3.4802264390    4.1480858919    0.8781708846