17

 O   -0.0704063828    0.5887316738   -1.3655689290
 C   -0.0871542624    1.3406494304   -0.4212321936
 C   -1.3634778732    2.0094703476    0.0788003015
 C   -1.2143214872    2.4936048815    1.5310875576
 C   -0.0266012862    3.4357141460    1.6017182419
 C    1.1841050959    3.1258976562    2.4028984103
 N    1.2183881364    2.9920467404    0.9455815927
 C    1.1820913187    1.6388490654    0.3833339350
 H   -1.5614763477    2.8658505401   -0.5800102621
 H   -2.1930753601    1.3103241094   -0.0585298990
 H   -2.1243425181    2.9989738498    1.8671036290
 H   -1.0719198746    1.6333062968    2.1944635367
 H   -0.2601729159    4.4804314896    1.4017089543
 H    1.7979984106    3.9227432424    2.8138217532
 H    1.1700270214    2.2127605413    2.9976147015
 H    1.2356385101    0.8566671703    1.1604331407
 H    2.0431264153    1.4896964292   -0.2731328508