12

 O    0.0016182273    0.0219426400    0.1943395332
 C    0.0214413671    1.1977584134    0.0001265428
 O   -1.1103583550    1.9759851151   -0.0713544525
 C   -0.7326795769    3.2879904530   -0.4364113834
 C    0.3627310525    3.9566070497    0.3806547138
 O    1.0754619548    2.9692901195    1.1143091521
 C    1.1986361804    2.1714813198   -0.1134162810
 C    0.6718835944    3.3384021289   -0.9673318053
 H   -1.5392173685    3.8618591682   -0.8714015302
 H    0.3437352328    4.9697039179    0.7633563739
 H    2.1842626430    1.7335401273   -0.2429384687
 H    1.0198353882    3.7124493673   -1.9195883048