14

 O    0.0049719907    1.4174380933   -0.1181214293
 C    0.0862137508    0.0732940112    0.0216446167
 C    1.1123486619   -0.8511335572   -0.0544716004
 N    0.6568853204   -2.1504393291    0.1840611110
 C   -0.6232523440   -1.9760018099    0.3539959692
 C   -1.9750657225   -2.4688776417    0.8435699575
 C   -2.3819159320   -0.9420338713    0.7951025015
 N   -1.0324138028   -0.6813016970    0.2466670607
 H    0.8835540681    1.7540139754   -0.3212364627
 H    2.1488074415   -0.6550440887   -0.2860754412
 H   -2.5353941283   -3.1138282114    0.1623711618
 H   -1.9884114563   -2.9050684155    1.8450551951
 H   -3.1916412751   -0.6734989426    0.1132163179
 H   -2.5475984225   -0.4849951553    1.7734193622