23

 C   -0.3493142722    1.4059795780    0.3635094903
 C   -0.1389900513   -0.0941480571    0.5691038602
 N    1.1044534556   -0.4159262966    1.2766633603
 C    1.0442554573   -1.7166351557    1.9282049121
 C    0.1279465324   -1.7051900060    3.0783385359
 N   -0.5994371567   -1.7106340675    3.9758597478
 C    2.3417867838   -0.1961742063    0.5012217596
 C    3.5365344975    0.0449495251    1.4322887876
 C    2.6518502968   -1.2854500397   -0.5435601924
 H    0.3854243592    1.8462391321   -0.3168885977
 H   -1.3384506942    1.5835287953   -0.0699003457
 H   -0.2887018030    1.9328111876    1.3197383489
 H   -0.9624254216   -0.4707139166    1.1847627151
 H   -0.2140399331   -0.6222421438   -0.3995790577
 H    0.7299416493   -2.5408538568    1.2615372926
 H    2.0359138359   -1.9838959896    2.3045096031
 H    2.1724030325    0.7388764365   -0.0408209354
 H    3.8318600541   -0.8608844370    1.9737600302
 H    4.4073140397    0.3673655583    0.8529448818
 H    3.2974315985    0.8177414646    2.1669063788
 H    1.8003597625   -1.4679555258   -1.2062662321
 H    3.4971312467   -0.9801511320   -1.1680311596
 H    2.9240812803   -2.2358367270   -0.0711592037