17

 N   -0.0219277495    1.3310741188   -0.0899999371
 C   -0.0055681994    0.0617360579   -0.0578978545
 N   -1.1871931317   -0.6797107840    0.0547373189
 C   -2.4327513749   -0.0119598394    0.1183009610
 C   -3.5628269210   -0.6331574192    0.4470933725
 C   -3.5715694481   -2.1016856693    0.7681245952
 C   -2.4340726378   -2.8057891575    0.0161592008
 C   -1.1001391084   -2.0825860429    0.0870044502
 O   -0.0341608537   -2.6573231045    0.1132919185
 H    0.9256459317    1.6897240179   -0.1872716155
 H    0.8651673437   -0.5907174746   -0.1118508087
 H   -2.3520776713    1.0448006269   -0.0941172492
 H   -4.4816594785   -0.0615136034    0.5005170225
 H   -3.4614558092   -2.2519435580    1.8522350341
 H   -4.5284380518   -2.5585312849    0.4966912549
 H   -2.2652018875   -3.8269133583    0.3619052115
 H   -2.6907070526   -2.8608661954   -1.0510031153