21

 C    0.0332615014    0.9412623940    0.2401556182
 O   -0.4462380593   -0.1702737029   -0.5012494391
 C    0.4577896351   -0.6337375169   -1.4403793324
 C    1.6331820012   -1.4834354752   -0.9893735479
 O    1.7814164015   -1.6513774167    0.3758877946
 C    2.3048167587   -2.9217519050    0.7327769976
 C    0.4557017290   -2.1306841944   -1.6975628845
 O   -0.3480007250   -2.9522939962   -0.9274878275
 C   -1.7155278336   -2.9171992541   -1.3067093735
 H    0.9309077339    0.6772576607    0.8093514443
 H    0.2587011176    1.7936276412   -0.4185438700
 H   -0.7653719793    1.2290990885    0.9278608618
 H    0.6243014948    0.0329720577   -2.2899749829
 H    2.5680473419   -1.4059507578   -1.5497559558
 H    3.3005549201   -3.0817641419    0.2921720468
 H    2.3958734766   -2.9301183875    1.8214657030
 H    1.6349565421   -3.7273736839    0.4138725571
 H    0.5943997581   -2.4568721843   -2.7311949402
 H   -2.2424555288   -3.6125899795   -0.6491588940
 H   -2.1317652451   -1.9112853434   -1.1869570102
 H   -1.8495933809   -3.2437785423   -2.3491130956