18

 C    0.0905070547    1.4173299678    0.0572304339
 N   -0.0078636462   -0.0303330498    0.0462215927
 C   -1.1387543990   -0.6128490573    0.0455506189
 C   -2.4949307814    0.0609701747    0.0553072753
 N   -1.1144659652   -2.0223519655    0.0344031343
 C    0.1901053098   -2.6857946753    0.0245680495
 C   -2.2464447234   -2.8109295655    0.0326879486
 O   -2.2441710549   -4.0221187769    0.0235222602
 H    1.1476600473    1.6950779099    0.0552670754
 H   -0.3720772201    1.8821530845   -0.8245514304
 H   -0.3651042794    1.8681355892    0.9498494926
 H   -3.0838786579   -0.2040030900   -0.8280939109
 H   -3.0782357870   -0.2178347020    0.9381709492
 H   -2.3708971669    1.1426201638    0.0633719464
 H    0.7637761157   -2.3978160245    0.9076832166
 H    0.0057743751   -3.7580743179    0.0160839087
 H    0.7580120705   -2.3826823212   -0.8571773835
 H   -3.1803892917   -2.2313411439    0.0405228325