20

 C   -0.0155169100    1.4787859236    0.0115051610
 C    0.0087922850   -0.0254130206   -0.0010633765
 C    0.6396224497   -0.9674805414   -1.0808421019
 C    0.0222917185   -1.9233417027   -0.0170119930
 C    0.6293093112   -0.9856151887    1.0686693873
 C   -1.2002875323   -0.9916377637   -0.0150177089
 C   -2.4793634648   -1.0063370927    0.7445698874
 C   -2.4720042889   -0.9933986575   -0.7869995036
 H    1.0000210575    1.8891916356    0.0193384470
 H   -0.5277478539    1.8729759573   -0.8735277327
 H   -0.5353933244    1.8580506077    0.8985972683
 H    0.1702574035   -0.9611942711   -2.0680034704
 H    1.7317205808   -0.9586347886   -1.1502253454
 H    0.0240852511   -3.0138767173   -0.0262036954
 H    1.7206900605   -0.9780406609    1.1486749137
 H    0.1504869293   -0.9959384700    2.0512444326
 H   -2.7879112446   -1.9225407206    1.2391308147
 H   -2.8024882323   -0.1014174497    1.2510966798
 H   -2.7903141600   -0.0800179906   -1.2812407537
 H   -2.7757170360   -1.9010845179   -1.2999183504