17

 C    1.0435721979    0.9384054251   -0.5353479355
 C    0.0412771461   -0.0394851105    0.0346961007
 C   -1.1577298366   -0.3220920722   -0.8448899513
 O    0.5938686107   -1.2107087747    0.6715881573
 C   -0.0950306915   -0.2600172666    1.4930732743
 C    0.7011515278    0.4843194609    2.5400854540
 N    2.0238266598    0.1655993595    2.5652184565
 O    0.1670960051    1.2870847366    3.2803040410
 H    1.8770539950    1.1089566325    0.1466836522
 H    1.4387302210    0.5557127152   -1.4825711471
 H    0.5590272518    1.8986415868   -0.7395030329
 H   -0.8325808895   -0.6865671469   -1.8252888873
 H   -1.8032722782   -1.0788458087   -0.3935714134
 H   -1.7425648366    0.5899203935   -1.0024806008
 H   -1.0674618153   -0.5779473386    1.8672300642
 H    2.3537499806   -0.6051741538    2.0077942959
 H    2.5986785719    0.5451234920    3.2990062921