17

 C    0.3139593464    1.4248613257    0.1033303744
 C   -0.0747874418   -0.0627730717    0.0167766110
 C   -1.5550555708   -0.2569611074    0.2770061715
 O   -2.2892417826   -0.9288392718   -0.4031695865
 C    0.3306814116   -0.6695603781   -1.3063982820
 O    1.6888203300   -1.0498943545   -1.4485866732
 C    0.7169110328   -2.0945049383   -1.4751655348
 C    0.6738007394   -3.0492994935   -0.3232711884
 O    1.1336006391   -2.8335567941    0.7701801724
 H    1.3971082853    1.5341452643    0.0115642434
 H   -0.1593655260    2.0085166452   -0.6933240411
 H    0.0090386935    1.8519813249    1.0635049185
 H    0.4522846816   -0.6012166379    0.8159363149
 H   -1.9340304120    0.2757518740    1.1790362664
 H   -0.1021605433   -0.1936408797   -2.1880059664
 H    0.5502584369   -2.5496625323   -2.4517336612
 H    0.1491068299   -4.0014040445   -0.5557962590