17

 C   -0.0699109597    1.5988498405    0.0860873175
 C    1.4619856485    1.3987889980    0.0308137389
 O    1.2689851006    0.1474753199    0.7558599973
 C    0.0018128333    0.0553516565    0.0385635295
 C    0.3656861658   -0.4856087119   -1.4230006809
 O    1.7904468752   -0.4322192631   -1.4844942364
 C    1.9624120472    0.9834764323   -1.4314776338
 C    0.9713902190    1.4357761637   -2.5141951796
 C   -0.0088998652    0.5338321984   -2.5090022793
 H   -0.3727948777    1.9337880846    1.0798883363
 H   -0.5902199968    2.1599208489   -0.6854118808
 H    2.1362477407    2.0900257332    0.5403387385
 H   -0.7401319754   -0.5563977006    0.5556069308
 H    0.0323693566   -1.5118105219   -1.5825821207
 H    3.0118291828    1.2294755895   -1.5984047532
 H    1.0438258547    2.3474421288   -3.0915770510
 H   -0.9267321095    0.5343791930   -3.0811344730