19

 C   -0.0378635281    1.5425469071    0.0713010638
 C    1.5093870066    1.4474639494   -0.0484245632
 C    2.0893235440    1.1079699064    1.3397376293
 C    1.6558206447   -0.3384552090    1.6431242124
 O    2.4426900844   -1.2391293270    0.8950165141
 C    2.3044620218   -1.0243845798   -0.5142271360
 C    1.2951598434    0.0788815932   -0.7827378254
 C   -0.0226475951   -0.0023682390    0.0428839000
 O    0.2798456628   -0.5176270771    1.3461642836
 H   -0.4569615076    2.0129406864    0.9646556173
 H   -0.4988323377    1.9621153353   -0.8273878120
 H    2.0511921712    2.2453220446   -0.5602018057
 H    3.1826842782    1.1466016216    1.3512791390
 H    1.7169362968    1.8005410764    2.1020317615
 H    1.7882665094   -0.6225708038    2.6882198092
 H    3.2873401100   -0.7713268930   -0.9381415561
 H    1.9798777130   -1.9674441349   -0.9740823847
 H    1.1012883054    0.2047826695   -1.8499077340
 H   -0.8827005232   -0.5588099063   -0.3346979330