15

 C   -0.0179106010    1.5359561025   -0.0270857923
 C   -0.0106491838   -0.0146119362   -0.0076479186
 C    0.7600032672   -0.5429195208    1.2298939369
 C   -1.3915584594   -0.5139821975    0.0210401861
 N   -2.4843040280   -0.8794203906    0.0929808806
 C    0.6698427178   -0.5326025114   -1.2860518666
 O    0.1562217475   -1.2271200263   -2.1185713188
 C    2.0768721784   -0.1009762749   -1.4419440776
 N    3.1764961273    0.2332820522   -1.5689302228
 H    1.0059064086    1.9166678945   -0.0654137455
 H   -0.5724016384    1.9173572896   -0.8876442711
 H   -0.4931370206    1.9069995840    0.8837007025
 H    0.2837655544   -0.1695432634    2.1391960068
 H    0.7570017309   -1.6349659171    1.2602298001
 H    1.7941143790   -0.1897105446    1.2083423002