21

 C    0.5284989936    1.5815309640   -0.4297564608
 O    0.4977194373    0.1738069551   -0.2959049262
 C    0.9237628568   -0.5126300075   -1.4079823303
 C    0.3599675104   -0.4768376630   -2.8739555019
 C    1.4894395493   -1.5511409651   -2.8597756793
 C    2.3501984649   -0.5373062849   -2.0549928138
 C    0.8957430433   -2.0607715001   -1.4938851495
 C    1.7286360688   -2.9125725363   -0.5440709873
 O   -0.4243604354   -2.5729800272   -1.5313034703
 H    1.5490742991    1.9517630500   -0.6028373472
 H   -0.1121283563    1.9228085123   -1.2546304149
 H    0.1541342268    1.9993877112    0.5071956394
 H   -0.6574825660   -0.8302251728   -3.0189782845
 H    0.5799383439    0.4231559179   -3.4527992153
 H    1.8198442937   -2.1575988185   -3.7008677572
 H    2.6355089843    0.3620265213   -2.6047823041
 H    3.1834284404   -0.9129351857   -1.4618123948
 H    2.7618915132   -2.5812802533   -0.4397666440
 H    1.2639900708   -2.9103811539    0.4461214726
 H    1.7550323883   -3.9507042303   -0.9000678607
 H   -0.3677591272   -3.5256412330   -1.6536512798