14

 C    0.0314922338    1.5289542012   -0.0377600304
 C    0.0051099651    0.0294008910   -0.0546428517
 C   -1.1329893175   -0.7280219066    0.0271141384
 N   -2.3824243637   -0.2560858796    0.1330534158
 C   -1.0680458198   -2.2272457908    0.0029783511
 O   -2.0956379194   -2.8735295209    0.0777093985
 O    0.1265957287   -2.7642078554   -0.0999282322
 N    1.4399695063   -1.8085268797   -0.1933938154
 N    1.2058206253   -0.6284688585   -0.1595469753
 H    1.0603238605    1.8832597271   -0.1162481401
 H   -0.5380879207    1.9534096077   -0.8742320699
 H   -0.3957891998    1.9311062389    0.8895982328
 H   -2.5940783355    0.7247496066    0.1644812022
 H   -3.1159962433   -0.9486689308    0.1844242063