20

 C   -0.2957326986    1.4909586008    0.1118028510
 C    0.0902743477    0.0130370885   -0.0333344273
 C    0.9152874197   -0.4861365936    1.1071369865
 C    1.1358607260   -1.8230739877    1.7098872745
 C    2.5851004980   -1.5374129249    2.1463300963
 C    2.5019150193   -1.1691187830    3.6483597768
 C    1.5460775886   -0.0735287450    3.1498364242
 C    2.2554590459   -0.0362208635    1.7625702877
 N    0.3699944595   -0.7693806927    2.4753758897
 H    0.5929858984    2.1298329255    0.1545893617
 H   -0.9049976210    1.8235579090   -0.7337284959
 H   -0.8689899893    1.6499729570    1.0300543718
 H   -0.8140121861   -0.6050027449   -0.0936008463
 H    0.6389419042   -0.1417250396   -0.9720233053
 H    0.6398106328   -2.7700270819    1.5337412193
 H    3.3969633574   -2.1153458862    1.7091819082
 H    2.1240451914   -1.9118686365    4.3566695998
 H    3.4411731086   -0.7396873958    4.0113049449
 H    1.2469361257    0.7886548703    3.7440351326
 H    2.9920004819    0.6875556843    1.4224857798