19

 C   -0.1435739640    1.5322582254    0.0859327566
 C   -0.0476163894    0.0023024786    0.0202259819
 C    1.1910468949   -0.5076847774   -0.7802430963
 O    1.8820723968   -0.8729764910    0.4310450535
 C    0.7135832798   -0.6274726005    1.2093676652
 C    0.7761734252   -0.2236806720    2.6411517474
 C    0.2275573615   -1.5889804686    2.2376082939
 C   -1.3228757375   -0.6044390994   -0.3179099614
 C   -2.3847475790   -1.0986406081   -0.5911212724
 H    0.8283556977    1.9588315543    0.3495485291
 H   -0.4572447899    1.9385500482   -0.8801650231
 H   -0.8746249547    1.8441137893    0.8371071940
 H    0.9886382614   -1.3756574168   -1.4166889154
 H    1.7314719070    0.2570556077   -1.3482092206
 H    1.7596165782   -0.1936928995    3.0985504438
 H    0.0837590130    0.5289141914    3.0046890678
 H   -0.8409386282   -1.7634402091    2.3110667597
 H    0.8505870844   -2.4550973452    2.4330997924
 H   -3.3189501373   -1.5397740373   -0.8373130760