17

 C    0.1847973288    1.4909790767    0.0014916521
 C    0.1272330497    0.0032642604   -0.0751069788
 C    0.0305763245   -0.8760560335   -1.1223561067
 C   -0.0341824888   -0.5837820163   -2.5926120584
 O    0.8328182133    0.4720039048   -3.0031584263
 N   -0.0134436641   -2.1916258853   -0.6630865587
 C    0.0502193127   -2.0900809317    0.6339229574
 O    0.0476259625   -3.0942634232    1.5285403142
 N    0.1375769489   -0.8066581424    1.0629723361
 H    1.0389570538    1.8394248924    0.5962327777
 H    0.2909125840    1.8929603496   -1.0071205959
 H   -0.7204999098    1.9188090421    0.4513983697
 H    0.1741710533   -1.5173220747   -3.1341187138
 H   -1.0362808318   -0.2553879229   -2.8929962065
 H    1.7164028751    0.2426319245   -2.6955432481
 H   -0.0172162327   -3.9095682379    1.0155533486
 H    0.2217696007   -0.5081213528    2.0200402972