21

 C   -0.7395529576    1.3577595740    0.0782751513
 C   -0.0358069830    0.0154503372   -0.0543925548
 O   -0.9494038177   -0.9966465656   -0.4713989272
 C    1.2996276884   -0.0231742699   -0.8682244565
 C    1.9324120506   -0.9078968875    0.2457345253
 O    3.2385741232   -0.6269157663    0.6849950854
 C    0.7451119757   -0.5386018490    1.1482590327
 C    0.8747749708    0.0883475270    2.5094549534
 C    0.2096484761   -1.2566614240    2.3431174683
 H   -0.0592473387    2.1344129859    0.4394864562
 H   -1.1302542251    1.6843392832   -0.8938131111
 H   -1.5845802534    1.2830825610    0.7706007349
 H   -1.3216617523   -0.7237889938   -1.3174934935
 H    1.2390267812   -0.4465765634   -1.8737979000
 H    1.7834160108    0.9580361775   -0.9189389141
 H    1.9344788988   -1.9680671194   -0.0211830416
 H    3.2650275695    0.2994740425    0.9490907439
 H    1.8669439805    0.1086065235    2.9505310327
 H    0.2550165485    0.9451101084    2.7533170515
 H   -0.8684278555   -1.3130115344    2.4497200953
 H    0.7440081391   -2.1371435870    2.6857259280