16

 C   -0.1268382908    1.6204439356    0.4256878313
 C   -0.0711543298    0.1219982560    0.0578423815
 C    0.8083654230   -0.5980249669    0.9823850482
 N    1.4809753678   -1.1620345259    1.7344310472
 C   -1.4721320155   -0.5241531118    0.0383582915
 C   -1.6690038631   -1.9783214778    0.3214826907
 N   -2.1245334232   -0.9696412080    1.2819746916
 C   -2.3586736096    0.1161756694   -0.9142041642
 N   -3.0276114251    0.6305088845   -1.7040193308
 H    0.8748163333    2.0545398297    0.4030911421
 H   -0.7564250337    2.1510115745   -0.2918730495
 H   -0.5433396395    1.7598027028    1.4264887797
 H    0.3546708200    0.0213751092   -0.9482612019
 H   -2.4609047278   -2.5104431555   -0.1952616336
 H   -0.7816105780   -2.5604181360    0.5515842900
 H   -1.4644727780   -0.8986764597    2.0552436462