18

 C    0.0881852379    1.4707768885    0.2030648314
 C    0.0209151078   -0.0414153209   -0.0375558610
 C   -1.4043914163   -0.5815180332    0.0098965711
 C   -1.6802511909   -2.1203397416   -0.0878233367
 C   -2.7906266718   -1.9883445136    1.0163642391
 O   -2.9444260488   -2.9426240372    2.0205944264
 C   -2.0912503474   -0.6782402400    1.3799260564
 O   -1.8733749288   -0.1871503489    2.4556150590
 H    1.1216442170    1.8281164530    0.1663622122
 H   -0.4805819680    2.0180266102   -0.5570948507
 H   -0.3258036730    1.7233404988    1.1829320635
 H    0.4629361880   -0.2897303696   -1.0103609838
 H    0.6216665364   -0.5615233576    0.7187080089
 H   -2.0468386189   -0.0412149412   -0.6964805441
 H   -2.0007648023   -2.5103881606   -1.0539129227
 H   -0.8337949176   -2.7009959198    0.2879544366
 H   -3.7587392910   -1.8037417670    0.5323377740
 H   -2.4980851225   -2.6011782993    2.8059647604