21

 C   -0.0047154358    1.4569167397   -0.2926228919
 C    1.5232088786    1.3006983468   -0.0530831202
 C    1.1481565671    0.1220073216    0.8994279623
 C   -0.1440493965   -0.0575494022    0.0442536842
 C    0.1241183069   -1.0129411197   -1.1589043805
 C    0.3389368257   -0.3306334243   -2.5276480878
 C    1.8184736868   -0.3427281154   -2.0865184831
 C    2.3305709311    0.8758907867   -1.2986364896
 O    1.5147300494   -1.4511828405   -1.1961679779
 H   -0.4525531879    2.0567706691    0.5052546161
 H   -0.3634659450    1.8450025528   -1.2473357276
 H    2.0301689547    2.1536686766    0.4082759978
 H    1.8295425885   -0.7226099829    0.9772189515
 H    0.9001689937    0.5004594759    1.8949948728
 H   -1.0563189504   -0.3595246849    0.5647890246
 H   -0.5471187703   -1.8751645070   -1.1259350531
 H    0.1804829286   -1.0391885867   -3.3429520122
 H   -0.1566568556    0.6094649390   -2.7619869639
 H    2.5552170604   -0.6303054223   -2.8443279373
 H    2.4034472881    1.7254626798   -1.9922324078
 H    3.3559890619    0.6494735478   -0.9790415066