19

 C   -0.3272895619    0.9816880031    0.7470677917
 C   -0.1095286256   -0.0727510031   -0.2925381925
 C   -1.0924036864   -0.8016366866   -0.8797730072
 C   -0.5120421732   -1.9991621973   -1.6467855877
 C    0.6772200942   -2.2188477990   -0.7924843639
 C    1.2146936643   -0.8278231357   -0.4129945548
 C   -0.7491039820   -2.7751336321   -0.3806819660
 C   -1.8759227395   -1.7733776848    0.0530259575
 O   -2.1162012797   -1.4637953857    1.3871851645
 H    0.2578631351    0.7981875583    1.6588017190
 H   -0.0004216860    1.9625345274    0.3748273083
 H   -1.3858737201    1.0709284345    1.0072646435
 H   -0.6968870767   -2.2767327950   -2.6756310573
 H    1.3770345467   -3.0223354271   -1.0169506994
 H    1.9332498350   -0.4829855802   -1.1712136912
 H    1.7350805199   -0.7777413074    0.5529824499
 H   -0.8557843848   -3.8549626143   -0.2986462968
 H   -2.8305030012   -2.1327536593   -0.3455202796
 H   -1.2785982780   -1.2091049056    1.7895029220