19

 C   -0.0691832448    1.5760258694   -0.1779154364
 C    0.0167563866    0.0826430429    0.0363860340
 O   -1.1618417338   -0.6154664948   -0.2817004674
 C    1.3002465266   -0.6774834256   -0.2005081959
 O    2.4713255302    0.0997799453   -0.2401081810
 C    2.9664213527    0.2446140548    1.0961103620
 C    1.7568822386    0.1207957893    2.0583997073
 O    1.3460625081    1.3379490384    2.6576476090
 C    0.7227599999   -0.6039992977    1.1937986145
 H    0.9136560347    2.0472903545   -0.0988959299
 H   -0.4324099071    1.7814541622   -1.1923581967
 H   -0.7713652426    2.0415142133    0.5212265365
 H   -1.3101071347   -0.5241242320   -1.2302862501
 H    1.3115657731   -1.5814646370   -0.8036947569
 H    3.7052365831   -0.5428097803    1.3040631861
 H    3.4556386380    1.2185128438    1.1845790827
 H    2.0236152955   -0.5157641135    2.9068763797
 H    0.9968450685    1.9153158185    1.9727680309
 H    0.1841450373   -1.4425329314    1.6167654018