14

 N   -0.0608064411   -1.1664187449    0.0197333278
 C   -0.0387160639   -0.0086363013   -0.0010481089
 C   -0.0137546442    1.4063352508   -0.0229658926
 C   -0.6560087928    2.5124624196    0.8155244785
 O    0.5540576352    3.2344256415    0.9735809306
 C    1.1923458793    2.3889704105   -0.0339503012
 C    1.0657749629    3.1137820872   -1.3621612768
 O   -0.3544244912    3.2506160644   -1.5476165488
 C   -0.9884396498    2.3857903214   -0.6531144427
 H   -1.3506115489    2.4639790444    1.6459494472
 H    2.1787404674    2.0411503516    0.2682904291
 H    1.5116900336    4.1108798336   -1.3230259087
 H    1.5061504274    2.5410601548   -2.1906787657
 H   -1.9741585938    2.0596681463   -0.9611344578