17

 C    0.2414964805    1.6268254127   -0.1971832589
 C   -0.0295799138    0.1332501610    0.0452837971
 C    0.4300447656   -0.6734536264   -1.1655263704
 O   -0.2765953082   -1.3821548194   -1.8328484606
 C    0.6849359071   -0.4045351849    1.2591451772
 C    0.3971039993   -1.5749341812    1.9413101498
 N    1.3097980919   -1.6774311836    2.9339365574
 N    2.1877605323   -0.6585535356    2.9578031851
 C    1.8143192735    0.1128007719    1.9408290086
 H    1.2985693119    1.8072916668   -0.4200786167
 H   -0.3468337344    1.9944952007   -1.0424257145
 H   -0.0201447118    2.2125051712    0.6882581452
 H   -1.1065978047   -0.0378556452    0.1402136330
 H    1.5185736461   -0.5642752660   -1.3837374890
 H   -0.3730791416   -2.3156480091    1.7927304812
 H    1.3871869367   -2.4030596999    3.6265334806
 H    2.3619941898    1.0206430069    1.7365205850