13

 C   -0.2472338596    1.5361975445    0.0738439292
 C    0.0247987256    0.0678350331   -0.0444182900
 N    0.0983835828   -0.4408206777   -1.2199520493
 O    0.3564932682   -1.8288977653   -1.2972927973
 C    0.5289180494   -2.6464215191   -0.2140663132
 O    0.7438508171   -3.8082733857   -0.3754639257
 C    0.4339028437   -2.0051382745    1.1690936119
 O    0.5686593822   -2.6200129261    2.1934867088
 N    0.1797549495   -0.6474805073    1.1248034943
 H    0.5704971529    2.0387360668    0.6015221184
 H   -0.3455651645    1.9646644179   -0.9227370702
 H   -1.1719064340    1.7133471810    0.6335491907
 H    0.1086129667   -0.1781755877    2.0189274624