15

 O    0.6460869062    0.0300133677   -0.7597804467
 C    0.1989783053    0.9721604124   -0.1522487318
 C    1.0389950380    2.1992499580    0.1667527732
 C    1.2158547565    3.0558548000   -1.0819755115
 C    2.5934252393    3.4527618212   -1.5264066754
 N    1.8381168329    2.4780405243   -2.2964481718
 C    0.0837058784    3.9739499815   -1.4068119064
 O   -0.8839352369    4.1272781453   -0.7036130827
 H   -0.8596689517    0.9932723429    0.1784414370
 H    0.5654658171    2.7984427698    0.9483934564
 H    2.0151562859    1.8486279154    0.5143520559
 H    2.7524960588    4.4075536579   -2.0211194841
 H    3.4123779555    3.1270104214   -0.8901630270
 H    2.1180706457    1.5209146718   -2.0888459364
 H    0.2051818190    4.5057109504   -2.3746348588