14

 N   -0.2060401431    1.2604824643   -0.5133444473
 C   -0.0997141921   -0.0504674040   -0.1626688669
 C   -1.0550236823   -1.0350761245    0.0003848908
 C   -2.5451612907   -1.0058171541   -0.1841761415
 C   -2.9690887360   -0.1453798291   -1.2887126645
 C   -3.2971599158    0.5891051215   -2.1831278710
 N   -0.3797239239   -2.1450786296    0.4159885916
 N    0.8506290941   -1.9584358265    0.5257250425
 O    1.0892966141   -0.5378945864    0.1374290580
 H    0.6430373193    1.6945766232   -0.8422808290
 H   -1.0380247646    1.4923644463   -1.0396109157
 H   -2.8850137027   -2.0319321196   -0.3648196382
 H   -3.0526781214   -0.6770063509    0.7342386790
 H   -3.6191855648    1.2044341593   -2.9870812077