18

 C    0.3301645121    1.3291146690    0.1351259964
 N    0.0234396460   -0.0752555324   -0.0362327367
 C   -0.4477303960   -0.6829765638   -1.1915043532
 C   -0.6277296082   -2.0172415731   -0.9332393639
 C   -0.2728217798   -2.2511562069    0.4319627802
 C   -0.2957191430   -3.4993144030    1.2537462749
 O    0.7856026085   -3.5147370339    2.2133111589
 C    0.1160971078   -1.0265405639    0.9374451445
 O    0.5633900846   -0.6916808141    2.1700346915
 H    0.7975916645    1.7182304602   -0.7729667330
 H   -0.5692226890    1.9182525269    0.3488716963
 H    1.0243669697    1.4420954465    0.9691155476
 H   -0.6012908911   -0.1013069638   -2.0855492295
 H   -0.9779506992   -2.7556185318   -1.6392358776
 H   -1.1960514860   -3.5813549018    1.8751045974
 H   -0.2615882727   -4.3951265895    0.6187682334
 H    1.6040303205   -3.5156645381    1.7027686115
 H    0.7375066712   -1.5418035965    2.6112721212