15

 O   -0.0443240634   -0.0157979346    0.0425177201
 C   -0.0132120166    1.1871994907   -0.0348591275
 N   -1.0870084496    2.0714659340   -0.1397722767
 C   -0.4737566774    3.3839911073    0.0179175750
 C    0.7924902605    3.3951399141   -0.8849648898
 C    1.5010912407    4.3265880314    0.1256394497
 C    0.7464545915    3.3032967351    1.0023298893
 C    1.1667292314    2.1535097380    0.0055241456
 H   -1.9719369493    1.8327106195    0.2817581334
 H   -1.1636750609    4.2263889416    0.0309359872
 H    0.8087579826    3.4292339541   -1.9752232611
 H    2.5917089233    4.2749493717    0.1483732329
 H    1.1552366425    5.3641847314    0.1680338573
 H    0.7178709945    3.2325950163    2.0911632203
 H    2.1732831402    1.7416112995    0.0121126244