17

 C   -0.1513574715    1.5831491785   -0.0021568748
 C    0.0229650657    0.0746158084    0.0125068121
 C    1.1922748452   -0.6474343861   -0.7376933220
 C    2.1659660728   -0.1590264675    0.3755019142
 C    0.8811205955   -0.6479542547    1.1173264853
 C    0.9070831599   -1.8839536384    0.1640014286
 C    0.6373680917   -0.6462394518    2.5379634573
 N    0.4321555196   -0.6347295476    3.6763855068
 H    0.7825344852    2.1345413306    0.1280049241
 H   -0.5920602798    1.8976263090   -0.9542492865
 H   -0.8353259071    1.8938452880    0.7945079983
 H   -0.9463576303   -0.4132767691   -0.1373630173
 H    1.3762369952   -0.6523931947   -1.8112234066
 H    3.0606099985   -0.7638082101    0.5384803454
 H    2.3960574640    0.9043193226    0.4283295759
 H   -0.0451832041   -2.3986121253    0.0174595802
 H    1.7316007495   -2.5835514319    0.3151243391