19

 C    0.0046924847    1.5428649968    0.2224309292
 C    1.3637717969    2.1639784796   -0.1998811021
 C    2.3933429579    1.0272882834   -0.2982271076
 O    2.2718087531    0.2183110498    0.8895361713
 C    1.2585602002   -0.7118411301    0.5355589629
 C    1.6202439753   -1.2512065456   -0.8644616286
 C    0.5706506402   -0.3395777547   -1.4737787203
 C    2.0364434819    0.0681038877   -1.4489718117
 C    0.0196864604    0.0446013948   -0.0945632676
 H   -0.1522035089    1.6789506313    1.2977125568
 H   -0.8302451807    2.0383837565   -0.2839042323
 H    1.2884628530    2.6612713255   -1.1739376066
 H    1.6911620421    2.9156019589    0.5242029672
 H    3.4207447111    1.3949647364   -0.3565236678
 H    1.0811327858   -1.3897387927    1.3689228540
 H    1.9941153923   -2.2220219989   -1.1587130406
 H    0.0120511794   -0.4563327337   -2.3947973888
 H    2.5825050375    0.1061311440   -2.3828227063
 H   -0.9240425123   -0.4518746890    0.1431483790