16

 O   -0.1908460505   -0.0424056681    0.0715460068
 C   -0.0350131641    1.1673051336    0.0283996994
 C    1.2020581283    1.8813584329   -0.0613019329
 C    1.4534903017    3.3745187102   -0.0679158655
 C    1.6880149521    4.0246830857    1.3378587136
 N    3.1521546588    3.5737584108    1.3225887290
 H    3.8212043178    4.3286228883    1.4620615257
 H    3.3820067290    2.8062649761    1.9564084127
 C    2.9646989620    3.0472058585   -0.1395357889
 C    2.5817320193    1.5213468974   -0.0699007449
 O    3.3225003657    0.5624213257    0.0363240117
 H   -0.9271539168    1.8487899945    0.0539620871
 H    0.9656613555    4.0303363622   -0.7909212969
 H    1.6726323008    5.1166605058    1.3719524433
 H    1.1469256439    3.6017667164    2.1837229409
 H    3.7030866465    3.4733950900   -0.8168371811