17

 O    0.3980174272    1.0303194831   -0.4677023483
 C   -0.1821758315   -0.0960217701    0.1418957962
 C    0.1678047730   -0.4151419525    1.6222154565
 C   -1.3449425537   -0.6399039893    1.9010084057
 C   -1.6495807966    0.1241971839    0.5557881082
 C   -1.7742491157   -2.0754415072    1.8178322071
 O   -1.1713736946   -2.9552981514    1.2414911169
 C   -3.1037012536   -2.4573716366    2.4902494349
 O   -3.7777399627   -1.6929741266    3.1282221350
 H    1.2708020211    0.7873028780   -0.7919658120
 H   -0.0775827023   -0.9941101592   -0.4793005380
 H    0.8331804995   -1.2581952432    1.8167125469
 H    0.5298592107    0.4810540501    2.1315824682
 H   -1.7771063594   -0.1817954218    2.7903780121
 H   -1.8349730951    1.1815072107    0.7564524710
 H   -2.4354055249   -0.2648472705   -0.0950326529
 H   -3.3698526515   -3.5236085874    2.3290597925