14

 O   -0.0714548267    0.0109471178    0.0868605078
 C   -0.0277966562    1.2054275510    0.1245170040
 O   -1.1311579079    1.9698463819    0.3577429309
 C   -0.8534459425    3.3752113885    0.2538282605
 C    0.6661509531    3.5170831300    0.2219012690
 O    1.2615601132    3.5453802535    1.5359942629
 C    1.9606989240    2.3028454680    1.2949171346
 C    1.1952607360    2.0985977592   -0.0321545386
 H   -1.3182825034    3.7549521351   -0.6629636397
 H   -1.2859876827    3.8816393808    1.1201529492
 H    1.0123660679    4.3446986686   -0.4043518355
 H    3.0373256862    2.4619209771    1.1640309860
 H    1.7914228088    1.5628481421    2.0832395367
 H    1.7687392602    1.8511917864   -0.9231904478