25

 C   -1.3459144233   -0.8490109861   -0.2848784223
 C   -0.0363953736   -0.0970222551   -0.0138634859
 C    0.6830649568   -0.4483495389    1.3080164125
 C   -0.1513829528    0.0076045311    2.5379449407
 C   -0.5065780765    1.4219798062    2.5236784035
 C   -0.7845294257    2.5920271758    2.5132592991
 C    1.0857211936   -1.9424528390    1.4290144380
 C    1.8717407548   -2.4274478669    0.1996421489
 C    1.9101308711   -2.2291365252    2.6961692896
 H   -2.0928527447   -0.6625371498    0.4934719134
 H   -1.7819117800   -0.5222510325   -1.2340597432
 H   -1.1962557970   -1.9316537662   -0.3495395034
 H    0.6533646716   -0.2623255401   -0.8477247549
 H   -0.2416181009    0.9785132282   -0.0041537830
 H    1.6126543630    0.1386504478    1.3243469215
 H   -1.0661627414   -0.5960416817    2.6053374293
 H    0.4084532054   -0.1933636079    3.4566733546
 H   -1.0364512701    3.6233254014    2.5105727572
 H    0.1634915663   -2.5372910558    1.4938699196
 H    1.2841972760   -2.3800623134   -0.7203692530
 H    2.7764293247   -1.8254264595    0.0504544448
 H    2.1877136974   -3.4670064499    0.3343484821
 H    1.3496256768   -2.0532902850    3.6178855120
 H    2.2335265285   -3.2749851808    2.7120455112
 H    2.8120831001   -1.6056037169    2.7275602679