23

 C    0.1172677178    1.4083773698   -0.1230046854
 O    0.0303037173   -0.0013906050   -0.0306692327
 C    0.6343102289   -0.5375866326    1.1036972179
 C    0.3708295562   -2.0434279323    1.0879304040
 C    0.5371992238   -2.7776509180    2.4392861031
 C    1.4967995865   -2.1569494038    3.4758218634
 C    2.8358635196   -1.6320281881    2.9338553215
 C    2.7290646544   -0.2618763642    2.2568249995
 O    2.0255067109   -0.2613384890    1.0301956037
 H    1.1560349042    1.7444711042   -0.2077193188
 H   -0.4352088396    1.7010122458   -1.0185330724
 H   -0.3409404947    1.8938572064    0.7529951886
 H    0.2271673729   -0.0524915544    2.0143424104
 H   -0.6423895418   -2.2023934237    0.7077471972
 H    1.0563141694   -2.4533520111    0.3395801002
 H   -0.4434045627   -2.8768218495    2.9190844137
 H    0.8637373850   -3.8019922351    2.2259857914
 H    0.9926861861   -1.3314363132    3.9962608708
 H    1.6882340714   -2.9131294458    4.2458216759
 H    3.5421886118   -1.5258669890    3.7673520110
 H    3.2823555489   -2.3485406122    2.2331243709
 H    2.2673860475    0.4526197753    2.9610720867
 H    3.7278299863    0.1145382857    2.0136683593