18

 C    0.1553042108    1.5307025875    0.1036903918
 C   -0.1736012714    0.0454250799   -0.0841628660
 C    0.6028186884   -0.5778851484   -1.2277004320
 O    2.0563329613   -0.5553649843   -1.0432789917
 C    2.1413149482   -1.9426945261   -1.3727346003
 C    1.4268170068   -2.7766299995   -0.3411373926
 C    0.6476316263   -2.0950254123   -1.4476821717
 O   -0.1291244882   -2.7666585937   -2.3698339983
 H    1.2224922326    1.6624484157    0.3026157206
 H   -0.0921272388    2.1072825757   -0.7942719781
 H   -0.4049835200    1.9569393256    0.9410224865
 H    0.0356924076   -0.5023872661    0.8414734688
 H   -1.2439017769   -0.0816908547   -0.2960299328
 H    0.3626547074   -0.0786576913   -2.1769564165
 H    2.9572286166   -2.2771917340   -2.0015003624
 H    1.5229681677   -3.8483678345   -0.4910247325
 H    1.3836935418   -2.4494618996    0.6937767664
 H   -0.8424228802   -3.2117131703   -1.8995529992