21

 C   -0.1005588913    1.4991526277    0.1413185646
 C    0.0408523721   -0.0216995910    0.0381343746
 C   -1.3092537037   -0.6844116264   -0.2172033090
 C    1.2196343646   -0.4392957492   -0.9041880853
 C    2.1453362183   -0.5727322978    0.3367896552
 C    0.8802076638   -0.6225943070    1.2104044902
 O    0.9310050048    0.1241929918    2.4230567907
 C    0.4960570381   -0.4494282345    3.5601987750
 O    0.4812880684    0.1199637868    4.6096889798
 H    0.8598264938    1.9910833529    0.3192035238
 H   -0.5183713029    1.8986139270   -0.7890635679
 H   -0.7676508167    1.7785200075    0.9623493045
 H   -1.7502991151   -0.3270839432   -1.1544465483
 H   -1.2139490117   -1.7734381282   -0.2890191241
 H   -2.0194181224   -0.4595305036    0.5872752223
 H    1.0365735259   -1.4001751019   -1.3928590918
 H    1.5141503808    0.2879933058   -1.6637257242
 H    2.8241114511   -1.4262924424    0.3877925702
 H    2.7123030322    0.3406426144    0.5297593255
 H    0.5705718978   -1.6520805591    1.4294803730
 H    0.1634071523   -1.4959531896    3.4113425212