17

 O   -0.9553148004    0.9484035519    0.6709959028
 C    0.0453435940    0.8352754723    0.0115994976
 C    1.2140426134    1.8163613641    0.0506819424
 C    1.2643939460    2.6892060406   -1.2139605263
 C    1.2872870058    1.9288762485   -2.4583340856
 C    1.3019527053    1.2984678207   -3.4809854058
 C    1.3976633057    2.5409854607    1.3976310972
 C    2.6208194598    1.6178748308    1.5629815707
 O    2.4275816329    1.0466175965    0.2432776035
 H    0.2183704539   -0.0265049486   -0.6652004185
 H    0.3954226336    3.3607378962   -1.1975825512
 H    2.1588161168    3.3201820144   -1.1459055644
 H    1.3183523400    0.7428712760   -4.3858467294
 H    1.6307388353    3.6034698729    1.3107689032
 H    0.5740476350    2.3990704083    2.0968489089
 H    3.5943811904    2.1117454658    1.6455906713
 H    2.5353283623    0.8574137188    2.3471501435