23

 C   -0.2824425941    1.4787105883   -0.1410512351
 C    0.0375388073   -0.0098881758   -0.0201692483
 O   -1.1692659480   -0.7658857656    0.1311689526
 C    0.8863440087   -0.5621400630   -1.1763561334
 O    1.4847003960   -1.7483356268   -0.7016031897
 C    1.6292808045   -1.6985143053    0.7404668280
 C    0.9456059610   -2.9478973470    1.3028229602
 C    3.1239570480   -1.6881225190    1.0721201940
 C    0.9221316559   -0.3881648001    1.1758868167
 H    0.6275467068    2.0834561960   -0.2017881768
 H   -0.8761472006    1.6759113628   -1.0421081079
 H   -0.8659516105    1.8102397567    0.7222470636
 H   -1.6680937537   -0.6996170701   -0.6900512571
 H    0.2824149010   -0.8024895299   -2.0605358160
 H    1.6437676994    0.1808065793   -1.4798010740
 H    1.3775129137   -3.8456216258    0.8501921934
 H    1.0799456254   -3.0116617436    2.3880570877
 H   -0.1224969310   -2.9195849743    1.0794113834
 H    3.6185677038   -0.8308643723    0.6045676332
 H    3.2833371264   -1.6279628210    2.1542327508
 H    3.6029608121   -2.6004921186    0.7047734404
 H    1.6545108953    0.4038254166    1.3592135181
 H    0.3216315927   -0.5152397414    2.0787608661