17

 C   -0.1353807156    1.4253005670   -0.0806417850
 C   -0.0297909707   -0.0260229822   -0.0501493430
 C    0.0682663345   -1.2265206003   -0.0337480827
 C    0.1610741204   -2.6881424370    0.0036216004
 O   -1.1336677102   -3.2944920371    0.0342729848
 C    0.9088411927   -3.2367989597   -1.2083110608
 C    0.6506368907   -4.6160620838   -1.6795052570
 N    0.1968644485   -3.4509929934   -2.4689536382
 H    0.8447690354    1.8919019205    0.0661085707
 H   -0.5304110234    1.7759342830   -1.0400838064
 H   -0.7984504866    1.7935499081    0.7097506176
 H    0.7232471090   -2.9802683431    0.9062303386
 H   -1.7222283160   -2.6966076650    0.5041639237
 H    1.9046487291   -2.8134620613   -1.3155513217
 H    1.4545696180   -5.1914552534   -2.1296849484
 H   -0.0990584712   -5.1962534248   -1.1515908165
 H   -0.7969337945   -3.3206698874   -2.2864028762