20

 O    0.0269840857    1.4514271086    0.0265730452
 C    0.0416690593    0.0362581193   -0.0512034179
 C   -1.3306595753   -0.5567445259    0.0937469728
 C   -1.8516316573   -1.6404060609   -0.7672154339
 N   -2.4009773542   -0.2844155483   -0.9669610563
 C   -3.3992992627   -0.0863517993    0.1489176684
 C   -2.3133250612   -0.2736332584    1.2122668175
 C   -2.3776126722   -0.8812172394    2.5842689911
 C   -2.0782678572    0.5911850894    2.4098112750
 H   -0.6306778741    1.7474482058   -0.6139681088
 H    0.4847041110   -0.3100311947   -0.9980435102
 H    0.6947308011   -0.3093872381    0.7592001974
 H   -1.2337198255   -1.9728288275   -1.5963894234
 H   -2.4917478637   -2.4093866283   -0.3392308376
 H   -3.8126416354    0.9246348511    0.1053112571
 H   -4.2196815384   -0.8128977319    0.1286908790
 H   -3.3520977418   -1.1637985138    2.9699540301
 H   -1.5700086708   -1.5377001603    2.8933243738
 H   -1.0689172746    0.9423903557    2.5912906095
 H   -2.8515439827    1.3054625668    2.6761799412