17

 C   -0.1978529070    1.4426015547    0.3083611844
 C    0.1260314514   -0.0250560501    0.1207582990
 O    1.1581483627   -0.2544496498   -0.8728079789
 C    2.0538116945   -0.8278916886    0.0984924525
 C    0.9981750498   -0.7165933777    1.2070084144
 O    1.4107500607    0.0873547558    2.2945814389
 C    0.8779305516   -0.1658561591    3.5090504084
 N    1.1284522131    0.5996437909    4.4784974452
 H    0.6830298329    2.0026335514    0.6291107292
 H   -0.5591379953    1.8593526405   -0.6364225254
 H   -0.9814896673    1.5712372950    1.0626148447
 H   -0.7788063874   -0.5925127484   -0.1354076212
 H    2.3696445093   -1.8419850466   -0.1716508980
 H    2.9369247234   -0.2037912497    0.2789385801
 H    0.5994196423   -1.6696130718    1.5687471848
 H    0.2561449211   -1.0721100333    3.5307212235
 H    0.6735318541    0.2548742368    5.3211052783