19

 C   -0.0958001043    1.5382869638    0.0721562341
 C    0.1416003958    0.0652755047    0.0163524540
 O   -0.7652929792   -0.8014518335    0.7179683192
 C    0.6377017871   -0.9123752142    1.0005213880
 C    1.2546282667   -1.8004849842   -0.1020750921
 C    0.5604077637   -3.1179316041   -0.4790121914
 O    0.1423032091   -2.9584524375   -1.8341724327
 C   -0.2312474118   -1.5957897967   -2.0357655756
 C    0.7207810377   -0.7718502752   -1.1568605237
 H    0.7990612169    2.0865372056   -0.2398490224
 H   -0.9152602599    1.8258328489   -0.5966861422
 H   -0.3612107360    1.8456812289    1.0871275955
 H    0.9428598028   -0.7914866211    2.0342836131
 H    2.3422734265   -1.8680292900   -0.0513603120
 H    1.2224292101   -3.9873716196   -0.4469769313
 H   -0.3024521557   -3.3014780240    0.1758327004
 H   -0.1313048848   -1.3903182410   -3.1049342451
 H   -1.2755879097   -1.4305522328   -1.7366396822
 H    1.5041120449   -0.2549821480   -1.7137527633