19

 C    0.7268517525    1.3741106283   -0.0055558273
 C   -0.0265389555    0.0485587242   -0.0029570710
 C    0.5683838301   -1.0346415534   -0.9638884593
 C    1.1526463610   -1.7245729078    0.2658933395
 C    0.3006669036   -0.8803241219    1.2139409932
 O    1.3945330039   -3.1079902444    0.3936451240
 C    2.5307616105   -2.2182717755    0.4697460878
 C    3.4823013564   -2.2639257448   -0.6054901811
 C    4.2903263307   -2.2746134089   -1.4959485910
 H    1.8025499034    1.2187415264    0.1368716299
 H    0.5918106526    1.9022166380   -0.9555323692
 H    0.3757224337    2.0310794715    0.7975464205
 H   -1.0951861770    0.2257711088   -0.1452298833
 H   -0.1968084655   -1.6499021417   -1.4451879686
 H    1.2804984245   -0.6955930151   -1.7208877803
 H    0.8031551645   -0.4218904908    2.0702531389
 H   -0.5694773864   -1.4387278155    1.5710221663
 H    2.9575238269   -2.1377744629    1.4692957129
 H    5.0032572300   -2.2960494246   -2.2829882523