18

 C    0.3767410405    1.5314839281    0.1459402683
 C    0.4137616873    0.0165198317   -0.0316887111
 C    0.7719864691   -0.4222118176   -1.4401715342
 O    0.9882705598    0.3606551532   -2.3378403625
 C    0.8520094009   -1.9072773209   -1.6695628256
 C    0.7673594163   -2.4070521233   -3.0860437845
 C    2.0939018778   -2.4770100508   -2.3785491825
 C    3.1920147428   -1.6317632666   -2.7611300497
 N    4.1156643629   -1.0031401854   -3.0589004829
 H    1.3495884369    1.9733721120   -0.0827989060
 H   -0.3527952620    1.9847298248   -0.5297816909
 H    0.1085917112    1.7926341462    1.1731482760
 H    1.1345677114   -0.4518248262    0.6538842761
 H   -0.5537770963   -0.4409363840    0.2218090675
 H    0.4655675029   -2.5373731413   -0.8759509780
 H    0.2544030611   -3.3414508704   -3.2781400405
 H    0.6621383638   -1.6336034679   -3.8376563168
 H    2.4103095138   -3.4526981515   -2.0244775924