25

 C   -0.0215640008    1.5990181859    0.1537013450
 C    0.0322251753    0.0676268136    0.0751399146
 C    0.7689448274   -0.5146666272    1.2885320299
 C   -1.3700611908   -0.5646084613   -0.0586101143
 C   -2.1075081750   -0.2049160760   -1.3208744123
 C   -3.0570983835    0.9584383581   -1.4427913575
 C   -3.5786287299   -0.4288774947   -1.7008348563
 C   -3.1761010979   -0.8835771327   -3.1070416276
 C   -1.6763178913   -0.6472393487   -2.7321727304
 H    0.9853723737    2.0224206012    0.2339788909
 H   -0.5005787299    2.0334707787   -0.7275671439
 H   -0.5877591795    1.9246084123    1.0352346121
 H    0.6022171146   -0.2037358642   -0.8253398955
 H    0.2376432639   -0.2773463368    2.2183405435
 H    0.8513407569   -1.6048682914    1.2225919676
 H    1.7812533725   -0.1054694402    1.3727415301
 H   -1.2593385403   -1.6574869129   -0.0112175848
 H   -1.9763489094   -0.2815194306    0.8136270161
 H   -3.3655191551    1.4020305877   -0.5009870876
 H   -2.9678356420    1.6726441428   -2.2601725745
 H   -4.3773072036   -0.8535229046   -1.1029433010
 H   -3.3916307971   -1.9368205405   -3.3005339583
 H   -3.5784013980   -0.2901817091   -3.9354187971
 H   -1.1267123108    0.0924439396   -3.3243325705
 H   -1.1027392193   -1.5782423290   -2.7255551182