21

 C    0.0511438200    1.4405456665   -0.4421566871
 C    1.5155747584    1.5593721064    0.0919096600
 C    1.7521252928    2.4283756480    1.3518916845
 C    2.0355266668    1.4302556062    2.5026927026
 C    1.3002478546    0.1391385397    2.1020206328
 C   -0.2354194629    0.2053331856    2.3168619215
 O   -0.8534977401   -0.3201084436    1.1493149585
 C   -0.0170240536   -0.0417624248    0.0441026769
 C    1.4382831280    0.0730677945    0.5671223298
 H   -0.6793222344    2.1041987057    0.0296785855
 H   -0.0404255082    1.5448149782   -1.5262651772
 H    2.2461164200    1.7626320109   -0.6929113241
 H    2.5776403095    3.1338595818    1.2220218896
 H    0.8631719536    3.0294745158    1.5726929834
 H    3.1109917855    1.2297367267    2.5675588063
 H    1.7233556886    1.8123676678    3.4808181920
 H    1.7110045043   -0.7452422239    2.5947770423
 H   -0.5762162986   -0.3906569769    3.1681794942
 H   -0.5548725377    1.2456718075    2.4895135582
 H   -0.2440433904   -0.7767459722   -0.7306213450
 H    2.1857304939   -0.6333679700    0.2057303654