16

 C   -0.0000535740    1.5469125575   -0.1492619741
 C    0.0704645367    0.0487775759    0.0945207532
 O    0.2268677040   -0.4254714420    1.2061256865
 N   -0.0541681058   -0.7271721727   -1.0260555225
 C   -0.0198096128   -2.1209437621   -1.0467804236
 C    0.1370755856   -3.0169687906   -0.0187415677
 N    0.0893175456   -4.2514497581   -0.6409952927
 C   -0.0882841522   -4.0422643079   -1.9700156885
 N   -0.1590354894   -2.7589754578   -2.2531944397
 H    0.9255866268    2.0053061356    0.2092052837
 H   -0.1479938856    1.8176787215   -1.1976506966
 H   -0.8193313488    1.9612935209    0.4443503003
 H   -0.1823366057   -0.2982758836   -1.9287613960
 H    0.2702104610   -2.8836577025    1.0371941150
 H    0.1724246701   -5.1423831843   -0.1817741983
 H   -0.1591612655   -4.8490655096   -2.6831227490