23

 C   -0.1127971089   -1.2419658140    0.0208910067
 C   -0.0801201296   -0.0399499737    0.0142704756
 C   -0.0165970028    1.4169073249    0.0193103526
 C    1.4215643375    1.9817569233   -0.0275662629
 C    2.1549452911    1.5972249112   -1.3232237568
 C    3.5730320891    2.1826551915   -1.3707513026
 C    3.5590977676    3.7062702495   -1.1834878664
 C    2.8251325970    4.1011049983    0.1061086932
 C    1.4095919337    3.5086955698    0.1519854105
 H   -0.1533917979   -2.3027612901    0.0258019720
 H   -0.5855977906    1.8106346597   -0.8344060874
 H   -0.5210064512    1.7941405831    0.9188034617
 H    1.9730793481    1.5438555364    0.8168117859
 H    2.1837164004    0.5072978715   -1.4227857716
 H    1.5784238007    1.9747560997   -2.1811314982
 H    4.1796778065    1.7254582718   -0.5766625649
 H    4.0556538078    1.9195573389   -2.3188322875
 H    4.5821096039    4.0991635454   -1.1741034749
 H    3.0548886352    4.1708439056   -2.0426248342
 H    3.3955682019    3.7372661482    0.9720323129
 H    2.7794383579    5.1919296408    0.2011862335
 H    0.8016098517    3.9576165390   -0.6473893593
 H    0.9199643508    3.7715396390    1.0979078321