21

 C    0.1739494367    1.5281520164    0.1440408168
 C   -0.1009395806    0.0200345741   -0.0393902890
 C   -1.6017617054   -0.3052111889   -0.1509291937
 C   -2.3772630698    0.0223417404    1.1009073279
 C   -3.4055067994   -0.8756953739    1.6403433202
 O   -2.1127957079   -0.8025232941    2.2440699144
 C    0.6420141719   -0.4512173652   -1.2931314906
 C    2.0806149081   -0.8969214208   -1.1035362288
 O    0.1089589707   -0.4580467855   -2.3796594443
 H    1.2469789708    1.7382968201    0.1907742759
 H   -0.2450669796    2.0987343728   -0.6911589108
 H   -0.2699484066    1.8967290783    1.0723449960
 H    0.3093584291   -0.5107493255    0.8283960661
 H   -2.0260586394    0.2360153674   -1.0036719142
 H   -1.7192334792   -1.3721880078   -0.3686304649
 H   -2.4708549119    1.0815579449    1.3454624284
 H   -4.2238412643   -0.4719158698    2.2351979361
 H   -3.6268484313   -1.8072995354    1.1207647126
 H    2.6417283088   -0.1862115499   -0.4882612391
 H    2.0910541414   -1.8538789565   -0.5673910810
 H    2.5663916980   -1.0233410813   -2.0718514582