15

 C   -0.7752374332    1.5210206346    0.1501003372
 O   -0.6742209970    0.1645463447    0.5600531071
 C   -1.3843273740   -0.7476590355   -0.2289322609
 C   -0.7035809901   -1.0653649757   -1.5661679609
 O    0.2503371249   -0.4642504361   -1.9828526813
 C   -1.6098528537   -2.0754952142    0.5210576814
 N   -1.0703261113   -2.1142053534    1.7584118421
 O   -2.2173011559   -2.9819399428   -0.0156950985
 H   -0.2424306409    2.1136725856    0.8965287347
 H   -0.3176796699    1.6759096863   -0.8309111881
 H   -1.8262984297    1.8448577615    0.1229043747
 H   -2.3964018436   -0.3782641707   -0.4748416316
 H   -1.1778128147   -1.9040657435   -2.1138443612
 H   -0.5865157604   -1.3085545575    2.1174797874
 H   -1.1650784906   -2.9517504334    2.3076199178