17

 C   -0.1056561846    1.4880676327    0.0412632922
 C    0.0004237767    0.0011790056   -0.0383208890
 C   -0.0214606691   -0.8549295639   -1.1103891674
 C    0.1096539815   -2.1887449193   -0.6180370218
 C    0.2178477543   -2.1010571402    0.7570828305
 N    0.1493495802   -0.7783942022    1.0934733601
 C    0.1447224778   -3.3892526485   -1.4754246265
 N    0.0430148528   -4.6022344221   -0.8172441731
 O    0.2866659317   -3.3295339845   -2.6842108519
 H    0.7801128107    1.9416842569    0.5032390394
 H   -0.2035244590    1.9047571579   -0.9632981462
 H   -0.9792653273    1.8111650059    0.6211157234
 H   -0.1229016055   -0.5858606990   -2.1496590844
 H    0.3776748793   -2.8574191055    1.5089793201
 H    0.2210193194   -0.4194466679    2.0304371327
 H   -0.4542909339   -4.6350475359    0.0580815644
 H   -0.0944934349   -5.3946942401   -1.4266242326