18

 C   -0.0389923978    1.5610656557    0.0703529298
 C    0.0357730019    0.0572497000   -0.0502647114
 C    0.6806099742   -0.6739713208   -1.2092167311
 C    1.6469682141    0.0673987714   -2.1328238900
 C    2.9367556585    0.1455964386   -1.2903623138
 O    2.5135949007    0.1084994082    0.0823918109
 C    1.3546153917   -0.6766300235    0.1539002930
 C    1.4445496966   -1.8466139627    0.9861908579
 N    1.4942166863   -2.7866144890    1.6588897709
 H    0.9241788932    2.0304987562   -0.1375525322
 H   -0.7847494140    1.9708509139   -0.6188644096
 H   -0.3296740825    1.8440796541    1.0864260867
 H   -0.8202968622   -0.4717356471    0.3608842976
 H    0.1964976814   -1.5724163305   -1.5714127415
 H    1.8042669362   -0.4832690462   -3.0631241282
 H    1.2779014802    1.0634382741   -2.3945584463
 H    3.5943196116   -0.7096510763   -1.4988347009
 H    3.5060056797    1.0678729239   -1.4284707619