17

 C    0.0470332676    1.5188904301    0.0106001453
 C    0.0107021183    0.0281713700    0.0024245273
 C    0.8435064233   -0.9900084711   -0.7639673489
 C    0.8399287238   -0.9982245308    0.7617028310
 C   -0.3487791547   -2.0003853308    0.7466251977
 C   -0.3452849056   -1.9921820452   -0.7653024586
 C   -1.2067197155   -0.9687942862   -0.0057561450
 C   -2.6032601590   -0.7703230855   -0.0079423859
 C   -3.7935436665   -0.5794444560   -0.0096438260
 H    1.0823360095    1.8775434151    0.0132260500
 H   -0.4498300937    1.9355375353   -0.8729223175
 H   -0.4510283152    1.9259782391    0.8978984998
 H    1.6599191300   -0.8282630506   -1.4549224625
 H    1.6530906614   -0.8439494230    1.4581753566
 H   -0.6878112867   -2.7574813170    1.4405515535
 H   -0.6811028562   -2.7416842989   -1.4689667116
 H   -4.8423335808   -0.4164499947   -0.0111789454