12

 N    0.0636264933    1.2885355963    0.1540863654
 C   -0.0643038897   -0.0574016583    0.0591484496
 N   -1.1635046170   -0.7521660787    0.0257694151
 C   -0.6761815190   -2.0537974136    0.0022279118
 N   -1.0908511257   -3.3143922435   -0.0381320753
 N    0.0867396390   -3.9731045221   -0.0498787380
 N    1.2292294905   -3.2465936941   -0.0180307014
 C    0.7139797196   -2.0400568525    0.0146892804
 O    1.1477238615   -0.7478376409    0.0524490823
 H    0.9346691171    1.6849990545   -0.1608385528
 H   -0.7691065214    1.8123730724   -0.0635160407
 H    0.1202944117   -4.9777136496   -0.0693781263