19

 C   -0.0047552411    1.5269314881   -0.0075233971
 C    0.0037635860    0.0203670935   -0.0729716589
 C    0.7455296802   -0.7233466222   -1.1335154343
 N    1.2486949014   -0.6727935431    0.2516909780
 C    1.1339999605   -1.9217594008    1.0242240800
 C    1.3190579050   -3.1484385995    0.1375541143
 N    0.3543387750   -3.1039135652   -0.9562824600
 C    0.1752934861   -1.9851305564   -1.7256510685
 O   -0.3936137913   -1.9991491425   -2.8003309069
 H    0.9471790522    1.9312925740   -0.3612182786
 H   -0.8098351043    1.9355956200   -0.6269507020
 H   -0.1590384728    1.8701349901    1.0211808858
 H   -0.9110814350   -0.4627142615    0.2745766716
 H    1.3224372221   -0.1483876189   -1.8539096448
 H    1.9020356946   -1.9135729934    1.8053904164
 H    0.1567059617   -1.9904231277    1.5201857173
 H    2.3517067805   -3.1890760605   -0.2390374358
 H    1.1472550079   -4.0575537944    0.7209421639
 H    0.0770582713   -3.9661990495   -1.4031907905