17

 O   -0.0208912543   -0.0453087265    0.0805157417
 C   -0.0013515408    1.1662404082    0.0399716130
 N   -1.0977457836    1.9860106611   -0.0042076008
 C   -0.8656246479    3.4219304851    0.0735433769
 C    0.6754325329    3.5392019436    0.0309177284
 C    1.4284740664    3.7518189360    1.3619463584
 N    0.8858458658    2.7525538840    2.3105933178
 C    1.9353395945    2.3530485001    1.3433216229
 C    1.2211796825    2.0778714630    0.0035676287
 H   -2.0151552047    1.5821301376    0.1053069975
 H   -1.3400337388    3.9398095196   -0.7686445123
 H   -1.2665757864    3.8387680465    1.0047811383
 H    1.0373058839    4.1790281609   -0.7734697461
 H    1.8937040639    4.6633799331    1.7162864985
 H    1.3449872087    2.9017074469    3.2079423662
 H    2.8746484189    1.9361206430    1.6821884279
 H    1.8975724389    1.8234850978   -0.8124446470