16

 C   -0.2840080052    1.5803845276    0.0562711213
 C    0.0670597041    0.0887883250   -0.0362566365
 C    0.9984675373   -0.3188358798   -1.1995945308
 C    1.7455145739   -1.5207749247   -0.6113967046
 O    1.8404062801   -1.2549081228    0.8019710299
 C    0.9110261594   -0.3577481989    1.1963163475
 O    0.7957063854    0.0312383555    2.3179101688
 C   -1.1537709967   -0.7269624004   -0.0606491755
 N   -2.1103393923   -1.3747066106   -0.1029608016
 H    0.6325053321    2.1762941624    0.0480339946
 H   -0.9119177069    1.8838691644   -0.7845756070
 H   -0.8143910648    1.7783187896    0.9895178518
 H    0.4671856760   -0.5585602570   -2.1212111526
 H    1.6927944569    0.5029626707   -1.3980498801
 H    1.1978336262   -2.4581379601   -0.7539748313
 H    2.7606182745   -1.6369987909   -0.9933673539