14

 N   -0.1228996276    1.2060816060   -0.1145863145
 C   -0.0804668241   -0.0423799822   -0.0572458761
 C   -1.0992063575   -1.1394134891    0.1332998560
 C   -0.8947351464   -1.9684176146   -1.1708345702
 C    0.5220958172   -2.2329819981   -0.6392510887
 C    1.4874030147   -3.1574326805   -1.1424749564
 N    2.2331973286   -3.9305976381   -1.5696888365
 C    0.1268166002   -1.9220781089    0.7524480578
 N    1.0539129355   -0.9735089783    0.0420187808
 H    0.8183545411    1.5987479186   -0.1930959822
 H   -2.0833407865   -0.9682452201    0.5569503173
 H   -1.4768246051   -2.8918249839   -1.1703112078
 H   -1.0038442214   -1.4431806366   -2.1229585786
 H    0.3570849814   -2.3670533441    1.7092648191