17

 C   -0.1579884226    1.4215472810   -0.0659658783
 C   -0.0107518802   -0.0635231657    0.0392979695
 N   -0.1159937304   -0.8244068552   -1.0528193115
 N    0.0232650161   -2.0855220963   -0.5675933216
 C    0.2473429107   -3.3691689144   -1.1891976569
 C    0.2403342162   -4.2521335895    0.0909454928
 O    0.5005059927   -3.3640828168    1.2118435578
 C    0.2573346620   -2.1152679625    0.7574871244
 C    0.2308994685   -0.8246762961    1.2252136955
 H    0.7202938079    1.9390935024    0.3352893191
 H   -0.2815814010    1.7072844992   -1.1127158228
 H   -1.0289641893    1.7799799270    0.4944021656
 H   -0.5501170965   -3.6436212850   -1.8839193244
 H    1.2061648719   -3.3976419831   -1.7212178728
 H   -0.7404920742   -4.7144295190    0.2428904356
 H    1.0093779533   -5.0252921408    0.0896497947
 H    0.3550393649   -0.4715434453    2.2341566835