24

 C   -0.0928699643    1.5741774059   -0.1792868283
 C    0.1107530034    0.0589667073   -0.0797839625
 C    0.9223215866   -0.3954225871    1.1543619127
 C    0.6333286135   -1.9028615344    1.3857984927
 C    1.2255489760   -2.4937163514    2.5842585290
 N    1.6774594767   -2.9760541520    3.5328566904
 C    2.4324387825   -0.0352881860    1.0282855333
 C    3.1055721507    0.1972257191    2.3905117695
 C    3.2353133495   -1.0374797183    0.1833276717
 H    0.8534975907    2.1167693225   -0.2631677968
 H   -0.6919017973    1.8260733297   -1.0596944310
 H   -0.6185756454    1.9583905035    0.7017110918
 H   -0.8761347770   -0.4201548266   -0.0529693189
 H    0.5979330812   -0.3106580938   -0.9916711239
 H    0.5256747777    0.1425949863    2.0252483027
 H   -0.4508633759   -2.0463573593    1.4570334847
 H    0.9640883680   -2.4876841106    0.5201408744
 H    2.4648899133    0.9244902931    0.4980346888
 H    3.1328207889   -0.7123291104    2.9957846633
 H    4.1377410422    0.5363808464    2.2524460736
 H    2.5772634999    0.9662341645    2.9641619205
 H    2.7670580648   -1.2318042024   -0.7877845092
 H    4.2386861985   -0.6467771649   -0.0120859219
 H    3.3582784160   -1.9954177909    0.6998201436