16

 C   -0.1254798694    1.6455504725    0.1424011835
 N   -0.2939830598    0.3025930919   -0.4000471466
 C   -0.1811290330   -0.7962197003    0.5589670401
 C   -1.5058195080   -0.3996819876    0.0076694330
 C    1.3060487974    2.0647102905    0.0382836006
 C    2.3281778033    1.5702966868   -0.7072394258
 O    3.4254765467    2.2861568037   -0.4684471379
 N    3.0521324754    3.2832574760    0.4819120223
 N    1.8330660816    3.1226995840    0.7481178253
 H   -0.7581746690    2.3284191118   -0.4391194274
 H   -0.4511483386    1.7329978665    1.1935674867
 H    0.3212378902   -1.6884657541    0.1979015966
 H    0.0229776957   -0.5447004405    1.5981505053
 H   -2.1897032879    0.1149677866    0.6804546928
 H   -1.9861761487   -0.9959401536   -0.7622805909
 H    2.4001055441    0.7553814658   -1.4066533673