12

 O   -0.1418978706   -0.0036192069    0.0014157484
 C   -0.0301988289    1.1950230217    0.0083787643
 C    1.2488959104    1.9323744546    0.0009183458
 C    1.3821332632    3.2638361015    0.0095420885
 C    2.8351167849    3.6147735664   -0.0023271780
 O    3.5196145093    2.3701370170   -0.0185344633
 C    2.6174421243    1.3236746282   -0.0173553225
 O    2.9624922090    0.1832448683   -0.0293880065
 H   -0.9209607357    1.8633738568    0.0214950112
 H    0.5882063812    4.0010426943    0.0229912002
 H    3.1152471296    4.2013579124   -0.8873502172
 H    3.1329499432    4.1880184056    0.8856518392