18

 C    0.1860458074    1.2414692107   -0.1556783806
 N    0.3439168125   -0.2055910475   -0.0927834608
 C    0.5459563039   -0.7656474602    1.0130232656
 O    0.6877838773   -0.2639475559    2.2957531943
 C    0.9957744914   -1.6051604942    2.8157690332
 C    0.8280429130   -2.1621114281    1.4057956264
 C    0.1851292875   -3.4062740566    0.8354294156
 C    1.6170015684   -3.0852112956    0.5053581873
 O    1.9976325049   -2.6344940142   -0.7473973646
 H    0.9356591278    1.6563760591   -0.8377815315
 H   -0.7974693914    1.4801039419   -0.5748059758
 H    0.2831493215    1.7371409967    0.8166344918
 H    2.0012774280   -1.6293114697    3.2434869365
 H    0.2517040013   -1.9152146160    3.5541058531
 H   -0.0090788422   -4.2235089957    1.5232182727
 H   -0.5657854376   -3.2556751501    0.0662244270
 H    2.3860423008   -3.7048406908    0.9581506097
 H    1.4960753858   -1.8242105139   -0.9438923198