12

 O   -0.3965621110    0.0448319371    0.1582172141
 C   -0.2221052286    1.2276681113    0.1197709585
 C    1.2001400594    1.8456624355    0.0241518592
 C    2.2536047058    0.7075209771    0.1189283021
 O    2.9630654773    0.4240226098   -0.8015453219
 C    1.3499009519    2.5606855545   -1.3469331846
 O    0.4961480211    2.5097356093   -2.1833330180
 C    1.4008805967    2.7997440160    1.1069927703
 N    1.5602378758    3.5569887104    1.9667658767
 H   -1.0418549784    1.9683509689    0.1465026163
 H    2.2844944626    0.1930000907    1.0964971060
 H    2.3009833575    3.1085343895   -1.4759232487