20

 C   -0.0268379767    1.5610283768   -0.0060833484
 C   -0.0125180714    0.0218058485    0.0297529951
 C    0.7735708353   -0.4986610690    1.2470677357
 C   -1.4164042886   -0.5120974191    0.0488694574
 N   -2.3105978192   -0.2806796557    1.0006415846
 C   -3.4012931577   -0.9653429295    0.5715163858
 N   -3.2503133474   -1.6043202384   -0.5756206175
 N   -1.9638741425   -1.3040892212   -0.9035826457
 C   -1.3917135487   -1.8266915037   -2.1295635002
 H    0.9952289721    1.9524768313   -0.0133250319
 H   -0.5434910080    1.9355706744   -0.8949843655
 H   -0.5449563429    1.9519531802    0.8736711693
 H    0.4789647213   -0.3411240322   -0.8807506745
 H    0.2845520038   -0.1827388681    2.1724263725
 H    0.8272187605   -1.5915766805    1.2509671722
 H    1.7949445730   -0.1054273556    1.2387946177
 H   -4.3333817635   -0.9961489953    1.1163173334
 H   -1.0917795401   -1.0172062621   -2.8012392692
 H   -0.5236467763   -2.4586629586   -1.9213402296
 H   -2.1634039430   -2.4250897023   -2.6116517412