22

 C   -0.1173975479    1.5433113736    0.0342071200
 N    0.1575608983    0.1106040906    0.0721094743
 C    1.2763409517   -0.6650088657   -0.3861792173
 C    2.7195346506   -0.2354184632    0.0746438255
 C    3.9300754878   -0.8967429659   -0.5166197753
 C    2.7497977695    1.0417682113    0.8602766211
 C    2.2348566470   -0.2168636533    1.5184388163
 C    0.8160957791   -0.7067431736    1.0477079514
 C    0.0601218881   -1.7451700262    1.8236951098
 H    0.4808968073    2.0500864620   -0.7298105450
 H   -1.1739971310    1.6940007955   -0.2190296339
 H    0.0622937781    2.0264387060    1.0006260239
 H    1.1292002746   -1.3838381006   -1.1886586233
 H    4.1266664194   -0.5349211149   -1.5341409882
 H    4.8230711567   -0.6968196274    0.0847405509
 H    3.8042750127   -1.9846711811   -0.5745357321
 H    3.7467654808    1.3190916865    1.1960034498
 H    2.1267352473    1.8945636060    0.6389713576
 H    2.7255893610   -0.6470191582    2.3834124365
 H   -0.3557316006   -1.3212328065    2.7466303744
 H   -0.7667154446   -2.1360863526    1.2253433406
 H    0.7139635743   -2.5765953523    2.1099771731