23

 C   -0.0360335149    1.6158054141    0.1851289261
 C    0.0345596306    0.1080504091   -0.0437093193
 N    0.7083762404   -0.5386582081    1.0826372963
 C    0.7559127360   -2.0076505632    1.1039051273
 C    1.3958115237   -2.6448602785   -0.1534070862
 C    1.5260712748   -2.4063187719    2.3923914478
 C    1.5708047805   -3.9008159023    2.7152339737
 C   -0.6370398141   -2.4962818902    1.2180142814
 N   -1.7155335307   -2.9038571569    1.2983661777
 H    0.9671313115    2.0543411578    0.2439524916
 H   -0.5630654191    2.1061278474   -0.6385939768
 H   -0.5574089491    1.8390623061    1.1197243269
 H   -0.9794754256   -0.3028401056   -0.1046113597
 H    0.5155030435   -0.0908187776   -1.0164997117
 H    1.6584679038   -0.1897435964    1.1663546898
 H    2.4370579437   -2.3149658702   -0.2327770077
 H    1.3806537827   -3.7360780942   -0.1029726034
 H    0.8660503138   -2.3462888097   -1.0602616462
 H    2.5477372275   -2.0201702537    2.2796735086
 H    1.0692510843   -1.8544296854    3.2191581257
 H    0.5633054506   -4.3185633507    2.8014913544
 H    2.1120963783   -4.4731378171    1.9561294700
 H    2.0806921376   -4.0601992126    3.6697163836