18

 C   -0.1353635782    1.5316026410    0.0064204148
 C    0.0061257973    0.0073477198    0.0182785520
 C    0.8379315548   -0.5275449356   -1.1852573709
 C    2.2169506913   -0.8167143223   -0.6002472003
 C    2.3061133318   -0.4008146450    0.7994220682
 C    0.8238813522   -0.4852515604    1.2348882711
 C    1.0401152154   -1.9967685599    1.1082462599
 O    0.4742561645   -2.9762531155    1.4833498520
 N    2.3342431702   -1.9004505530    0.4539623599
 H    0.8466085174    2.0182791406   -0.0106254729
 H   -0.6879300234    1.8650396112   -0.8779295696
 H   -0.6709743730    1.8866373337    0.8926968979
 H   -0.9883709993   -0.4495626816    0.0358325590
 H    0.4009398458   -1.4294652524   -1.6252869622
 H    0.9163115413    0.2177994651   -1.9828458642
 H    3.0889514623   -0.8156756244   -1.2447811944
 H    3.1386988985    0.0526204246    1.3187652368
 H    0.5045187911   -0.1030537761    2.2038154529