18

 C    0.0897618923    1.4767002748   -0.0422170537
 C    0.0372075737   -0.0444692350   -0.0007459805
 N    1.0271325924   -0.7286297246   -0.8955363135
 C    1.4734085070   -1.6432917550    0.1847630384
 C    2.7705307512   -1.1625017368    0.8743415209
 N    1.9681705147   -0.1682618914    1.6464129962
 C    0.7024952160   -0.7874583617    1.2221269243
 C   -1.3272068938   -0.5458990436   -0.2058302666
 N   -2.3900873153   -0.9702452314   -0.3768917257
 H    1.0967141727    1.7904293217    0.2371818054
 H   -0.1391034631    1.8385450124   -1.0484600205
 H   -0.6330215997    1.9121062922    0.6546791182
 H    0.6151163691   -1.1838672554   -1.7017606203
 H    1.3263331676   -2.7103533307    0.0173376949
 H    3.2301262729   -1.9419002063    1.4953972843
 H    3.5270059004   -0.7173828721    0.2213312187
 H    2.1257410251   -0.1634599170    2.6456743321
 H    0.0346416369   -1.1633417699    1.9974330174