24

 C    0.1328456222    1.4618171276    0.1909999481
 C    0.0028938903   -0.0625147929    0.1481797767
 C   -1.4333841679   -0.5189298073   -0.0688896426
 O   -1.4652578894   -1.9292768916   -0.0883209722
 C   -2.7583264238   -2.4561419595   -0.3017269864
 C   -2.6586254391   -3.9583350683   -0.2807452050
 N   -2.8770648567   -4.6330664812    1.0095813187
 C   -3.8206056607   -4.8699755289   -0.0957046020
 C   -5.2483026745   -4.4137379010    0.0992963525
 H    1.1721510485    1.7637504432    0.3494180625
 H   -0.2059517110    1.9188578352   -0.7455007112
 H   -0.4644753321    1.8909538152    1.0031278630
 H    0.6242331614   -0.4752179362   -0.6550147796
 H    0.3686396999   -0.5025170004    1.0829808779
 H   -2.0838940824   -0.1315310679    0.7351410953
 H   -1.8253305713   -0.1121071945   -1.0186842291
 H   -3.4515306135   -2.1102214727    0.4791653749
 H   -3.1520608583   -2.1149644454   -1.2760719709
 H   -1.8505292798   -4.3300384649   -0.9093017646
 H   -2.2375688721   -5.4151209001    1.1175493325
 H   -3.7341467567   -5.8244053800   -0.6152727603
 H   -5.2945005300   -3.4772732436    0.6589822327
 H   -5.7479350713   -4.2691859442   -0.8649473314
 H   -5.8145540817   -5.1644190107    0.6610928805