20

 C   -0.2344065828    1.5388685740    0.0654370550
 C    0.2674090750    0.1007432163   -0.1004075353
 C    0.8425661729   -0.4934765482    1.1869917182
 C    2.0840853845    0.2192865479    1.6971283472
 O   -0.1802589607   -0.5581517724    2.2264981925
 C   -0.2809970653   -1.9850280127    2.1383482672
 C    0.9478873107   -2.0640719788    1.1979177768
 C    0.8104271042   -2.7949073475   -0.0473438700
 N    0.6935893939   -3.3780789815   -1.0390876591
 H    0.5824395927    2.2421218853    0.2527374092
 H   -0.7498941847    1.8684265957   -0.8408480479
 H   -0.9379529829    1.6017552811    0.9003674334
 H   -0.5617717588   -0.5333419247   -0.4329099378
 H    1.0302966572    0.0442297667   -0.8865185848
 H    1.8603615314    1.2648051875    1.9241960186
 H    2.4492178450   -0.2515940216    2.6139140495
 H    2.8805030661    0.1921893339    0.9458668099
 H   -0.1637872118   -2.4736992247    3.1107045005
 H   -1.2189900349   -2.3138606126    1.6760604523
 H    1.8486554784   -2.4031646239    1.7141384546