14

 N    0.0678336106    1.4335560521    0.1481397013
 C    0.0498062478    0.0342493581    0.0241318548
 C   -1.0267967139   -0.8121776108   -0.0127322051
 O   -0.6706475443   -2.1479674529   -0.0333796560
 C    0.6856541290   -2.1388708290   -0.0281391038
 C    1.1801014287   -0.8501689350    0.0155868585
 N    2.5328986257   -0.9763633172    0.0203242288
 N    2.9140628897   -2.2812904692   -0.0057852482
 C    1.7917242077   -3.0042194305   -0.0402088575
 H    0.6651816645    1.8743270470   -0.5425795890
 H   -0.8590757723    1.8341717112    0.0707400722
 H   -2.0870252432   -0.6171186573   -0.0103238972
 H    3.2439529509   -0.2721538984    0.1031841628
 H    1.8448130092   -4.0807072481   -0.0715040315