13

 O   -0.1004551030    1.3167187541    0.0091593547
 N    0.0296558741   -0.0680352465   -0.0007034826
 C   -1.1231715015   -0.6369749265    0.0088877281
 C   -2.4715920030   -0.0916218745    0.0263602219
 C   -3.3173980101   -1.1435948815    0.0188613991
 N   -2.6316898192   -2.3505132266   -0.0141098336
 C   -1.2474061354   -2.1345598347   -0.0008997205
 N   -0.2978899336   -2.9817975138    0.0030448383
 H    0.8176414193    1.6095551295    0.0000437404
 H   -2.7291113259    0.9527074676    0.0359610264
 H   -4.3983663657   -1.1460527755    0.0272329048
 H   -3.0570416984   -3.2582697938    0.0449040575
 H   -0.6537551975   -3.9396199979   -0.0062127844