12

 O   -0.0973639286    1.4164267646   -0.0078154454
 C   -0.0315414069    0.0126251979   -0.0086680874
 C    0.6631553585   -0.5513412559   -1.2928495113
 C    0.0524747034   -0.0384154479   -2.5139567543
 N   -0.4134426052    0.3638869434   -3.4903684623
 C    0.7212789050   -0.4897893812    1.1679850742
 N    1.3695910379   -0.8436906909    2.0553319853
 C   -1.4223246553   -0.4820382040    0.0649605012
 N   -2.4935874132   -0.9076164527    0.1054481015
 H    0.7962578296    1.7735021017    0.0741979649
 H    1.7192901389   -0.2626426826   -1.2610649037
 H    0.6231273561   -1.6449723926   -1.2808402426