20

 C   -0.2059217707    1.4914339928   -0.1423953603
 N    0.0472207107    0.0696522221    0.0245253311
 C    1.3841622606   -0.5197753361   -0.1662754792
 C    2.5826204176    0.3691985444   -0.0849226760
 C    2.6808650090    0.9373370676    1.1230330634
 C    1.6098120523    0.4559202394    2.0375693007
 C    1.8996540333    0.1150878988    3.4868077394
 C    1.0545149637    1.3112411329    3.1623746126
 C    0.7366846753   -0.4513518292    1.1948088442
 H    0.6127364298    2.1527940670    0.1712340432
 H   -0.4187597894    1.6850469708   -1.1988818577
 H   -1.0988551051    1.7526251957    0.4346788805
 H    1.4044232221   -1.4120072037   -0.7859374894
 H    3.2467963351    0.5467823514   -0.9221655483
 H    3.4158479208    1.6765212097    1.4246746809
 H    1.4103296965   -0.7652416951    3.8922355668
 H    2.9082529663    0.2752669907    3.8519902086
 H    1.4831184465    2.2982361179    3.3014217161
 H   -0.0114222079    1.2574816128    3.3545787435
 H    0.2636757636   -1.3049451799    1.6753823498