16

 O   -0.0289393685    1.4757545511   -0.1765808933
 C    0.0569661700    0.0741005053   -0.1295909058
 C   -1.3285833546   -0.5728038597    0.0458279661
 C   -1.3569100222   -2.1164481716    0.0231855745
 N   -2.2479063881   -2.4762616948    1.1200912926
 C   -2.6050688847   -1.4744191614    1.9757170388
 O   -3.2731932681   -1.5516734983    2.9784406423
 C   -1.9505034470   -0.2083141391    1.3836326789
 O   -1.9120692272    0.8662189296    1.9286911187
 H   -0.5003220225    1.7528731609    0.6218374253
 H    0.5012031378   -0.2546449618   -1.0756433191
 H    0.7198919508   -0.2754084309    0.6805876888
 H   -1.9864044893   -0.1706122410   -0.7347509832
 H   -1.7297639806   -2.5083814859   -0.9277117067
 H   -0.3513819651   -2.5290193657    0.1822378481
 H   -2.5060356008   -3.4309835869    1.3174254040