17

 C   -0.1854206554   -1.2670880960   -0.3297276514
 C   -0.0757613236   -0.0879656654   -0.1259998355
 C    0.0379836457    1.3475074662    0.0925421169
 C   -0.5957023451    1.8592403114    1.4030871468
 N    0.0167440621    1.3647336367    2.6404343234
 C    0.3963247601    2.6967463016    2.1301551596
 C    1.6819009283    2.7172911296    1.3261933021
 N    2.3372767148    1.4018217959    1.1892849580
 C    1.4815494134    1.8924071098    0.1040627795
 H   -0.2695859422   -2.3128558016   -0.4914438433
 H   -0.4818336167    1.8661605246   -0.7254422820
 H   -1.6578252579    2.0837199347    1.3925138165
 H   -0.6472480516    1.4720211623    3.4038611953
 H    0.1078525299    3.5860589048    2.6800714084
 H    2.2820024913    3.6208096828    1.3204054034
 H    3.3115622300    1.5352947088    0.9281913643
 H    1.9315494269    2.1410186040   -0.8521273719