17

 C    0.1267538358    1.5761482718   -0.1904638312
 C    0.1017733738    0.0645882706   -0.1385372468
 C    0.6646422386   -0.8592076276   -1.1841484010
 C    1.3223517286   -0.8048546549    0.1857431281
 C    2.5361603261   -0.2282658507   -0.5453540165
 O    3.6159723067    0.2066567427   -0.2472586396
 N    1.8987107143   -0.3464635655   -1.7795341601
 C    2.0801448543    0.4680096260   -2.9603036505
 H    1.0543356089    1.9558462351   -0.6249998463
 H   -0.7119539603    1.9596835932   -0.7815475529
 H    0.0445597927    1.9927899380    0.8185320263
 H   -0.7985688872   -0.3424123135    0.3226139801
 H    0.1326084781   -1.6859585700   -1.6382409860
 H    1.3296629057   -1.5457049007    0.9722296695
 H    3.0801513169    0.9065211971   -2.9079960462
 H    2.0135195575   -0.1382035191   -3.8697507804
 H    1.3410898895    1.2773676577   -3.0274553065