15

 C    0.0240730245    1.4680060544    0.0103540107
 N   -0.0615504911    0.0165335881    0.0025343798
 C   -1.2286854632   -0.6420991824    0.0093092316
 N   -2.3542539743   -0.0039458609    0.0233797868
 C   -3.5118058322   -0.7149809010    0.0305191802
 N   -4.7243566197   -0.2195657182    0.0412857573
 C   -5.4916529281   -1.3490530464    0.0440561083
 N   -4.8478951599   -2.4852572057    0.0370065317
 O   -3.5039059453   -2.0715283917    0.0270344450
 H    1.0756567953    1.7575986379    0.0019023559
 H   -0.4776890002    1.8882831020   -0.8660631841
 H   -0.4605510954    1.8777995615    0.9012649503
 H    0.7859853414   -0.5230783137   -0.0088310666
 H   -1.1397652646   -1.7311586069    0.0019881220
 H   -6.5724581770   -1.3288545171    0.0527346611