15

 O   -0.4117595974    0.0862122778   -0.4321970616
 C   -0.0356840063    1.1654379157   -0.0524282360
 C    1.3690039599    1.6995987591   -0.2337688973
 C    1.3762833020    2.9619035088   -1.1049255092
 N    0.7499292940    4.1728327120   -0.5004403884
 C    1.9342352728    5.0291365700   -0.7820191178
 C    2.6985280989    3.7556555146   -1.1776280980
 O    3.8357607353    3.4751091525   -1.3984514144
 H   -0.7278000928    1.8684625783    0.4625159581
 H    1.7719439074    1.9593525715    0.7531666790
 H    1.9939040968    0.9264623871   -0.6886660188
 H    1.0128999355    2.7233693500   -2.1157849175
 H   -0.0946709766    4.4766785294   -0.9697794362
 H    1.8313680494    5.7260494678   -1.6250834643
 H    2.3196421710    5.5794595856    0.0828251624