12

 O   -0.0081486435    0.0254288679   -0.6276371465
 C    0.0068597023    1.1762334085   -0.2514082589
 C   -1.1931864872    1.9989341434   -0.2190117125
 C   -1.3945204146    3.2737880285    0.1554098120
 O   -0.6042423681    4.2575213732    0.6289116942
 N    0.7543015432    4.2206516981    0.8824612155
 C    1.4866663404    3.1878883494    0.6905105029
 C    1.3437963539    1.7784803716    0.2051911526
 O    2.3449504893    1.1038480808    0.1818206021
 H   -2.0819168417    1.4789763028   -0.5613632102
 H   -2.3949741402    3.6920260880    0.0957103811
 H    2.5222475662    3.3934279776    0.9596118477