13

 N    0.0353083189    1.3178460071    0.1522833028
 C   -0.0134919582   -0.0409797806    0.0358205249
 N   -1.1401647864   -0.7166251647   -0.0521815305
 O   -0.6703937100   -2.0712714089   -0.0799561015
 C    0.6547261047   -1.9890744318   -0.0129056334
 O    1.3911764070   -3.0958812828   -0.0325969960
 C    0.7744063437   -4.3324336559   -0.0075201419
 N    1.5120831955   -5.3412602055   -0.0982567666
 N    1.1420115194   -0.7929492470    0.0584967079
 H    0.9038093456    1.7343403537   -0.1443460269
 H   -0.7952849630    1.8121065388   -0.1347003351
 H   -0.3085878510   -4.2765710602    0.0985049454
 H    0.9520736438   -6.1908231021   -0.0571348191