15

 O    0.1780065587    1.3416250977   -0.2207377509
 C    0.0759937414    0.0406270548    0.3010221448
 C   -1.3582049985   -0.4936495341    0.1359751984
 O   -1.7087598420   -0.4652011522   -1.2890951842
 C   -1.8056689464   -1.9003843659   -1.4088802982
 C   -1.4659211119   -2.0475542975    0.0747972194
 O   -1.3246300342   -2.9369419454    0.8497870876
 C   -2.3332754587    0.1759932695    0.9703696179
 C   -3.1470450831    0.6915734802    1.6886322363
 H   -0.1573286886    1.3012464469   -1.1252161717
 H    0.7678611941   -0.6574755522   -0.1966950351
 H    0.3357294763    0.0835803055    1.3618135662
 H   -2.8125629767   -2.2346759315   -1.6866286644
 H   -1.0729859990   -2.3281190480   -2.1036284998
 H   -3.8609412015    1.1621293722    2.3192844436