19

 C   -0.0196026073    1.5965224111    0.0172933194
 C    1.5254725673    1.6716223447    0.0162487293
 C    1.7814680954    1.0209367984    1.3916426949
 C    1.0927131252   -0.3334745132    1.0975990479
 O    2.0643677559   -1.2075651266    0.5301443885
 C    2.7978492682   -0.5291318898   -0.4964191023
 C    1.8833116267    0.5628100118   -1.0620653752
 O    0.6437430922   -0.1404856727   -1.2745517302
 C    0.0122285557    0.0583978830   -0.0076343302
 H   -0.4582363442    2.0533210954    0.9077276632
 H   -0.5083279726    1.9831946963   -0.8783689963
 H    1.9880074619    2.6419000800   -0.1645778795
 H    2.8283458098    0.8743191779    1.6634264053
 H    1.3001187314    1.5880542702    2.1929174351
 H    0.6707540225   -0.8495034095    1.9604630284
 H    3.7483182677   -0.1280653145   -0.1135658019
 H    3.0231979241   -1.2690207749   -1.2701000608
 H    2.2399650522    0.9691215160   -2.0107911976
 H   -0.9248893820   -0.4966233336    0.0179107018