15

 C    0.1056347540    1.5002805725    0.1074037469
 C    0.0528343206    0.0064487704    0.0486872189
 C    0.0423847996   -0.8234206981   -1.0252737677
 O   -0.0077776900   -2.1118962835   -0.6428542252
 N   -0.0260310265   -2.1612611198    0.7439817695
 C    0.0036429075   -0.9129287079    1.1467424182
 C    0.0301349922   -0.5949449653    2.6129599997
 O    1.1983778626    0.1318292042    2.9781896178
 H    0.8669492590    1.8278624187    0.8204805386
 H    0.3336227752    1.9287477641   -0.8718538822
 H   -0.8499613952    1.9227498511    0.4397308420
 H    0.0672034053   -0.6519451035   -2.0907890579
 H   -0.8107220552    0.0555034618    2.8750923395
 H   -0.0745407012   -1.5272295436    3.1825355580
 H    1.9572345522   -0.4314400811    2.7918077439