20

 C   -0.0561574116    1.6215621989    0.1109539592
 C    0.1691204499    0.1309743359   -0.1654333770
 C    0.7449982133   -0.5825933726    1.0435784471
 O   -0.1306256550   -0.5874073025    2.2179601096
 C    0.0852934156   -1.9902249469    2.4287789227
 C   -0.9722655946   -2.9730071678    1.8566036884
 N   -1.4923077219   -2.3898497644    0.6037202468
 C   -0.1844719304   -3.0811015028    0.5861903148
 C    0.9058020216   -2.1245865826    1.1303939356
 H    0.8804991132    2.1277904734    0.3720455564
 H   -0.4765622676    2.1262187041   -0.7642074662
 H   -0.7509931771    1.7518711120    0.9455219191
 H   -0.7676579750   -0.3495330786   -0.4506456204
 H    0.8780182079    0.0033846250   -0.9953746288
 H    1.6946399385   -0.1012514618    1.3269625388
 H    0.4712143726   -2.2347937081    3.4220382447
 H   -1.5466694607   -3.7146632504    2.3988714827
 H   -2.1786010542   -3.0494319748    0.2379643543
 H   -0.0220702708   -3.9342343209   -0.0612410898
 H    1.9145311162   -2.5346242652    1.1219473818