22

 C   -0.0278000922    1.4690760716    0.0647988319
 C   -0.0240276159   -0.0646111245    0.0413302243
 C    0.7715707243   -0.6430293179    1.2176209523
 C   -1.4588756458   -0.5898917934    0.0198933668
 O   -1.4494482962   -1.9963790856   -0.1303164480
 C   -2.7407044767   -2.5731145887   -0.1793031814
 C   -2.5524160718   -4.0813916408   -0.2096432298
 O   -1.8764416730   -4.5420386098    0.9433567362
 H    0.9938673631    1.8605594172    0.0459331263
 H   -0.5620348113    1.8858151480   -0.7956539440
 H   -0.5093591534    1.8488669422    0.9738413606
 H    0.4491901143   -0.3973609291   -0.8922014791
 H    0.3343205156   -0.3335676778    2.1748088094
 H    0.7795739730   -1.7351386821    1.1878030245
 H    1.8088782126   -0.2938206821    1.1976726789
 H   -1.9800629415   -0.3118391935    0.9531681066
 H   -2.0172704675   -0.1297103709   -0.8124646589
 H   -3.3219009178   -2.2857150231    0.7118555511
 H   -3.2903760846   -2.2301513723   -1.0717896801
 H   -3.5293467682   -4.5754217382   -0.2326888577
 H   -2.0127914539   -4.3556004982   -1.1303897453
 H   -1.1019001530   -3.9749467310    1.0340829853