17

 C   -0.1619991127    1.4370602255    0.0159331565
 C    0.0612928903   -0.0690546001    0.0629833555
 C    0.8717482986   -0.6217419601   -1.1176647681
 C    2.1649808761   -0.5365518289   -0.3658279210
 C    1.2764857775   -0.5185995262    0.9374825957
 C    1.2727456893   -2.0618689231    0.8096894381
 O    1.2751556616   -2.9674131849    1.5938214548
 C    1.5619700792   -1.9276945697   -0.6591570514
 O    2.0616539440   -2.8475412013   -1.5424385926
 H    0.7730731343    1.9687727761   -0.1892739935
 H   -0.8802781502    1.7022951184   -0.7677300517
 H   -0.5579736328    1.8010134535    0.9697147059
 H   -0.8803942686   -0.5871464519    0.2869330571
 H    0.7144221111   -0.4775536811   -2.1811164222
 H    3.1625031044   -0.1960578146   -0.5948547882
 H    1.5183958759   -0.0429913656    1.8841988520
 H    1.3266282120   -3.2965459358   -1.9745834569