20

 C   -0.1462379084    1.5207888373    0.0728849271
 C   -0.0397782229    0.0152816165   -0.0589520775
 C   -1.2170062480   -0.7381960440    0.5263807308
 C    0.7312989296   -0.6265965750   -1.1677445891
 C    1.6727552862    0.1725018956   -2.0802134024
 C    2.9106206113    0.4264958317   -1.1945685626
 C    2.4144340808    0.1974376533    0.2406364532
 O    2.8951885940    0.6390490435    1.2494466203
 N    1.2708285193   -0.6502896965    0.2035322948
 H    0.6552434658    2.0589257554   -0.4370726867
 H   -1.0995709957    1.8618458040   -0.3437925456
 H   -0.1164927312    1.8107561978    1.1282204073
 H   -2.1423941889   -0.4676775554    0.0057547391
 H   -1.0694672381   -1.8171151273    0.4423437901
 H   -1.3404222679   -0.4945410567    1.5867540238
 H    0.3737511952   -1.5841441373   -1.5393388031
 H    1.9155782070   -0.4082047963   -2.9720627362
 H    1.2182755127    1.1069578210   -2.4227164684
 H    3.7035611559   -0.3009519002   -1.4026320967
 H    3.3520200036    1.4208207326   -1.2831899783