16

 O    0.0054536273    0.0159021332    0.0715021778
 C   -0.0112996110    1.2133357122    0.0382768395
 C   -1.2706307139    2.1101415271   -0.0005581509
 C   -0.7052758025    3.5339781037   -0.0352746998
 C    0.6403135476    3.3707121604   -0.7641684313
 C    1.1982016210    2.1750462802    0.0202917572
 N    1.4314195458    2.5705341890    1.4193064699
 C    0.6198633308    3.4175690117    1.9058116507
 O   -0.4543993844    3.9916725564    1.3150477315
 H   -1.8319955637    1.8856305570   -0.9143203659
 H   -1.9306899874    1.9232215288    0.8498198615
 H   -1.3773835614    4.2754034456   -0.4656648218
 H    0.4803516464    3.1343603383   -1.8208684235
 H    1.2703698301    4.2596442386   -0.6889982112
 H    2.0950187917    1.7057288789   -0.3816024544
 H    0.7402571035    3.7877671490    2.9214492807