16

 O   -0.0266423306    1.4198259740    0.0084478261
 C    0.0075026093   -0.0003171202    0.0017226799
 C   -1.3971666333   -0.5096655731    0.0118340010
 C   -2.5414674919    0.2442700082    0.0235014517
 N   -3.6160273512   -0.6160034900    0.0296530911
 C   -3.1827645176   -1.9085872102    0.0220239979
 C   -1.7975378381   -1.8903539725    0.0110403746
 C   -0.9368748731   -3.0116469903    0.0007140897
 C   -0.1772135107   -3.9478391944   -0.0082503682
 H    0.8802192485    1.7376476070    0.0021179927
 H    0.5362165161   -0.3826090852   -0.8871179624
 H    0.5517990214   -0.3907204052    0.8775138820
 H   -2.6685698835    1.3129060976    0.0278948772
 H   -4.5799413397   -0.3330622721    0.0384863573
 H   -3.8674529261   -2.7404203488    0.0249854444
 H    0.4835794205   -4.7781664146   -0.0160978248