13

 N    0.2220607897    1.2006980722    0.0281409165
 C   -0.2433124856   -0.0408855342   -0.3345467355
 O   -0.3107278519   -0.4231560905   -1.4864358322
 N   -0.6014201292   -0.8355168926    0.7538300184
 C   -0.9790489982   -2.1737474738    0.6405395761
 N   -0.7710530877   -2.9618252711    1.6155164962
 C   -1.7471243151   -2.6062831884   -0.6032293021
 O   -1.8993116460   -3.7778385923   -0.8362175729
 H    0.3407407337    1.8381962093   -0.7431786666
 H   -0.0764593404    1.6139816342    0.8970156877
 H   -0.2211378598   -0.6057827972    1.6626107109
 H   -1.1521206480   -3.8795803479    1.3719821024
 H   -2.1860907314   -1.8113557278   -1.2236904290