21

 C    0.0617936823    1.5872041025   -0.0157101618
 C    0.0315700628    0.0742349363    0.0253753042
 C    0.6158449695   -0.6878383303   -1.1467707147
 C    1.3240582395   -0.6747356989    0.2042422131
 C    1.2578463422   -2.1612689510    0.6130212935
 C    1.5376841681   -2.8565477283   -0.7316077620
 C    0.2966231546   -2.1842228418   -1.3815350052
 C   -0.7642382841   -2.6620711948   -0.3840044865
 O   -0.1001047566   -2.5493848104    0.8929296349
 H    0.9619286549    1.9542699028   -0.5206798160
 H   -0.8058470621    1.9856587428   -0.5529912602
 H    0.0525201989    2.0094638076    0.9950656865
 H   -0.8315792005   -0.3432647531    0.5313539981
 H    0.9913118310   -0.1139354409   -1.9877885394
 H    2.2463802648   -0.1286206439    0.3773499917
 H    1.8710249709   -2.4367503016    1.4712944128
 H    2.4795003218   -2.5440451759   -1.1883362651
 H    1.4860078976   -3.9487794895   -0.6803614743
 H    0.0809143835   -2.4418406622   -2.4187768178
 H   -1.6723849586   -2.0498977766   -0.3825277642
 H   -1.0504582404   -3.7075909727   -0.5607688076