20

 C   -0.2832382674    1.4953376140   -0.0946388203
 C   -0.0060094122    0.0048388463   -0.0051043045
 C    1.2840830951   -0.5719605594   -0.6032628490
 C    2.1896593487   -0.1256354967    0.5893840195
 C    2.6908163497   -1.5638062031    0.7026150383
 C    3.0972430444   -2.2010633631    2.0167575799
 O    2.9764612423   -3.6112525404    1.9331398857
 N    1.2210470445   -1.8039493534    0.3399614641
 C    0.8050419010   -0.5539033740    1.1732761250
 H    0.6069146737    2.0885905969    0.1388793230
 H   -0.6146316446    1.7720134673   -1.1011209613
 H   -1.0735176301    1.7889057661    0.6044303077
 H   -0.8924940095   -0.5959685770   -0.2385564424
 H    1.5834272582   -0.7004078191   -1.6459501916
 H    2.7216492371    0.8216361158    0.7217224762
 H    3.3544266963   -1.9096283889   -0.1000926157
 H    4.1479764672   -1.9848553395    2.2403935659
 H    2.4968146951   -1.7955424427    2.8470596973
 H    2.1110045734   -3.7836749930    1.5418355391
 H    0.5155319073   -0.6502561861    2.2206215532