21

 O   -0.0889030487    1.4355636515   -0.1374788618
 C    0.0009081789    0.0182568210   -0.1360190873
 C   -1.4044508910   -0.5427102633    0.0297425460
 C   -1.4323611907   -2.0728534922    0.0645294254
 C   -2.8537842905   -2.6361783655    0.1893834017
 O   -3.6502235474   -2.2281081963   -0.9307106117
 C   -4.2166459337   -3.3597289624   -1.5842384839
 C   -3.6899063903   -4.5502085000   -0.8334047117
 C   -2.9294590767   -4.1402704668    0.1741842762
 H    0.7960869076    1.7923824111   -0.2552678801
 H    0.4409345176   -0.3541329659   -1.0761296356
 H    0.6454954349   -0.3381490817    0.6853841604
 H   -1.8337708944   -0.1370699795    0.9545344928
 H   -2.0311195415   -0.1849612146   -0.7930281375
 H   -0.9789908961   -2.4841858404   -0.8463527549
 H   -0.8388021407   -2.4426999525    0.9121494585
 H   -3.3082127654   -2.2268690578    1.1091673494
 H   -5.3169402221   -3.3011079058   -1.5538514213
 H   -3.9251083438   -3.3647429362   -2.6462285047
 H   -3.9256611760   -5.5724795562   -1.1009875098
 H   -2.4170198200   -4.7597690863    0.8994339398