15

 N   -0.1268340449    1.4513762833   -0.1863104152
 C   -0.0357510636    0.0617198578   -0.0138893221
 C   -0.3198064150   -0.8847461911   -1.1625508444
 C   -1.1787758622   -1.0110624210    0.0687244037
 N   -0.4634244702   -1.6668040404    1.1685184919
 C    0.6095432159   -0.7254922821    1.1022477365
 N    1.6691367413   -0.5322849091    1.7536861397
 C   -2.5900421821   -0.8295844305    0.0995108211
 N   -3.7381327523   -0.6837255128    0.1146215882
 H   -0.0503719792    1.9441706651    0.6961398382
 H    0.5853641954    1.8029590740   -0.8158987079
 H   -0.7934455601   -0.3999578090   -2.0108049939
 H    0.3688335482   -1.6881015433   -1.4090333716
 H   -0.2635019794   -2.6601427916    1.0971766349
 H    1.8175390083   -1.2502280293    2.4652721009