20

 C    0.0087076963    1.5449713710    0.0037903805
 C   -0.0302815845    0.0364679579   -0.0176798868
 C    0.4326184813   -0.7431640825   -1.2757372054
 C   -0.5391858057   -1.8752327935   -0.8705702895
 C   -0.1144931105   -2.5596318620    0.4748254840
 C    1.1955738970   -2.0111217678    1.0635044528
 C    0.3868244607   -0.7240729682    1.2970792110
 N   -0.9124988779   -1.5397470755    1.2990056055
 C   -1.3203018170   -0.8536871667    0.0131182630
 H    1.0433213886    1.9101214012    0.0189409673
 H   -0.4789545730    1.9683868711   -0.8813220546
 H   -0.4961281309    1.9462914197    0.8898161376
 H    0.0721189022   -0.2397080646   -2.1794518666
 H    1.4959807024   -0.9700846896   -1.4019238119
 H   -0.9820434379   -2.5104859111   -1.6367575974
 H   -0.3642639668   -3.6167021099    0.5861391693
 H    1.4191807738   -2.4984184000    2.0163937987
 H    2.0997992518   -1.9843621695    0.4504713911
 H    0.6003083048   -0.0936747717    2.1641461869
 H   -2.3449544049   -0.5097284085   -0.1382276955