15

 C   -0.0062630140    1.5036823060   -0.0898421378
 C    0.0622790087    0.0126259936    0.0333789701
 C   -0.8235833230   -0.8311460739    0.8977488146
 C    0.6771032830   -0.8456447048    1.1408850927
 N    1.4091878610   -1.8941841000    0.4803636524
 C    1.2163938318   -1.7074698547   -0.7674227042
 O    0.4869667836   -0.6360870584   -1.1728338811
 C    1.7316127535   -2.5425015365   -1.8113417924
 N    2.1439032398   -3.2119053009   -2.6578963436
 H    0.9536779156    1.9133369266   -0.4169528756
 H   -0.7743319442    1.8016146083   -0.8106256086
 H   -0.2609373788    1.9450642225    0.8773121675
 H   -1.4179348051   -0.2990812663    1.6320651853
 H   -1.2843705205   -1.7209349031    0.4821434302
 H    1.0887662885   -0.4744009285    2.0710921305