15

 O   -0.1439955238    0.0365716836    0.0882826490
 C   -0.0747748582    1.2289984508   -0.0085083638
 N   -1.2190304463    2.0937046075   -0.2590828356
 C   -0.6580225937    3.3101405815    0.2071208956
 N   -0.7697393850    3.7481263776    1.3994694150
 C    0.6085423277    4.0886887880    1.8234736099
 C    1.5073317800    3.4745662362    0.7448144507
 C    1.1778010827    2.1032901212   -0.0250698545
 C    0.6944777826    3.4490397378   -0.4822811157
 H   -2.0542601909    1.7720474802    0.2185979359
 H    0.8025607620    5.1672683786    1.9106134305
 H    0.7375323184    3.6500092139    2.8183282543
 H    2.5646997908    3.7166243172    0.7214346514
 H    2.0612678116    1.6274302159   -0.4364571542
 H    0.8434999221    3.9042936900   -1.4532224683