23

 C   -0.7607531516    0.9081041564   -0.1086842269
 C    0.0707931290   -0.3552122036   -0.0141955571
 C    1.5089562507   -0.3744048441   -0.4770619873
 O    2.0512227808    0.8671326295   -0.8297419666
 C    1.1886691903   -0.6496542326    0.9788749814
 C    1.7256176237    0.1857672135    2.1109378903
 C    3.1371805967   -0.2286590233    2.5034637583
 C    1.3702028918    1.6392714280    2.3251439229
 C    0.8029098007    0.5854525188    3.2433765085
 H   -0.1318652406    1.7895340608   -0.2397078153
 H   -1.4177454716    0.8464829747   -0.9827637795
 H   -1.3986818247    1.0529098103    0.7694824625
 H   -0.4905344161   -1.2503678671   -0.2705052758
 H    1.8482886166   -1.1987053369   -1.1044087466
 H    2.8701229138    0.9892945725   -0.3397200573
 H    1.2394493061   -1.7083710912    1.2333166850
 H    3.8486623264   -0.0716656400    1.6826957638
 H    3.4948315130    0.3437564697    3.3650242925
 H    3.1777772289   -1.2919842962    2.7679691472
 H    2.1528385616    2.2823514900    2.7154403811
 H    0.6989090667    2.1350172458    1.6400576177
 H   -0.2496379645    0.3448025783    3.1413226269
 H    1.1786385825    0.5237003767    4.2596174044