25

 C    2.3694105204    2.3627196424   -0.6994256935
 C    1.1859615430    1.4064158120   -0.5055938809
 C    1.2637371790    0.1947747618   -1.4146762941
 C    2.0103767020   -1.0765561157   -1.0494630624
 C    2.7386910315   -1.2644606303    0.2652742707
 C    0.4962664225   -1.0880268859   -1.1550700120
 C   -0.4031394757   -1.2757344303    0.0280799681
 C   -1.9003119468   -1.3206747356   -0.1696571069
 C   -1.1513050137   -2.5767205821    0.2011360733
 H    3.3182757465    1.8682305489   -0.4671457562
 H    2.4266571629    2.7136786730   -1.7358551239
 H    2.2805683729    3.2428567027   -0.0544740117
 H    1.1357455884    1.1042148442    0.5452494846
 H    0.2482068303    1.9416311672   -0.7051699519
 H    1.3347033817    0.4736611911   -2.4648873905
 H    2.5229444446   -1.5544896311   -1.8814086024
 H    2.2406012389   -0.7687470704    1.1018197389
 H    2.8149932838   -2.3278597181    0.5187234609
 H    3.7577062867   -0.8652966527    0.2090706589
 H    0.1032397528   -1.5742234195   -2.0465519587
 H   -0.0749271505   -0.8072838543    0.9495549425
 H   -2.5364609625   -0.8582586210    0.5772021532
 H   -2.2761952849   -1.2364556274   -1.1842514082
 H   -1.0242061597   -3.3351932397   -0.5646029074
 H   -1.2737018141   -2.9753140193    1.2023516697