19

 C   -0.0436396582    1.5486763318    0.0209108482
 C   -0.0035783962    0.0407180438    0.0060283657
 C    0.3293300831   -0.8021069771   -1.2818287500
 C   -0.3416882177   -1.9565451464   -0.4642087522
 C    0.5849600687   -2.0234654132    0.7498143220
 C    0.8039696463   -0.7373521022    1.0516218138
 C   -1.2997620073   -0.8378399691    0.0421916131
 C   -2.5235778991   -0.8089310257    0.8253784736
 O   -2.4981217909   -0.4706314970   -0.5872538301
 H    0.9344314553    1.9728829499   -0.2298455026
 H   -0.7735698868    1.9224282077   -0.7035805669
 H   -0.3268905864    1.9287251827    1.0090533647
 H   -0.2581944713   -0.4939391124   -2.1523396845
 H    1.3863159525   -0.9234644878   -1.5307162046
 H   -0.7035848802   -2.8745765023   -0.9232551538
 H    0.9150844838   -2.9193516283    1.2560544002
 H    1.3597584349   -0.3016632948    1.8706685876
 H   -3.0436976058   -1.7348608823    1.0652238216
 H   -2.7305521447    0.0270166827    1.4916269441