19

 C   -0.0478840086    1.4899106778   -0.1425374375
 C    0.0533041086   -0.0086214350    0.0437866552
 C    1.3688052731   -0.7382513894   -0.0994985844
 C    0.6994308772   -0.6539844513    1.2545579828
 C    1.3349964460    0.1850297031    2.3471138932
 C    0.0384835919   -1.9148036441    1.7650670786
 O    1.0323205374   -2.7452988107    2.3564206716
 H    0.8515501439    2.0087465506    0.1996026418
 H   -0.1825427400    1.7368793002   -1.2015409586
 H   -0.9005533097    1.9070419107    0.4054779975
 H   -0.8112633698   -0.5454896444   -0.3422545099
 H    1.3882311768   -1.6949227415   -0.6108638003
 H    2.2606258797   -0.1380101558   -0.2520112602
 H    1.8888306314    1.0364808687    1.9449806226
 H    0.5783287172    0.5745303262    3.0396663198
 H    2.0318634006   -0.4283219251    2.9250773009
 H   -0.7381488524   -1.6514816422    2.5026426275
 H   -0.4616006653   -2.4344515829    0.9322148416
 H    0.5878480720   -3.4703540048    2.8050072677