21

 C   -0.2983880897    1.3907436791    0.3394174198
 C    0.0396567547   -0.0453091608   -0.0535158868
 C    1.3605762228   -0.2146330900   -0.8730347353
 C    2.0826779139   -0.7582286607    0.3973372208
 C    0.7117792637   -0.8602747035    1.0678858228
 O    0.4896495684   -0.6514595414    2.4558106625
 C    0.1748720090   -1.9456918726    1.8941762185
 C   -1.2879190473   -2.3041764269    1.9474534709
 O   -1.7044188822   -2.5593604735    3.2786428259
 H    0.5700350399    1.8996333175    0.7712716197
 H   -0.6255336644    1.9633294358   -0.5344710936
 H   -1.0974279363    1.4155822954    1.0863273716
 H   -0.8362933392   -0.5229917549   -0.5034971563
 H    1.2769710201   -0.9607338487   -1.6660880360
 H    1.7688260979    0.7041020789   -1.2997524370
 H    2.6539461231   -1.6836346621    0.2933724988
 H    2.7149399416   -0.0107155407    0.8843258710
 H    0.8555892266   -2.7357851504    2.2167661266
 H   -1.8821361742   -1.5008903278    1.4871149170
 H   -1.4722590147   -3.2255878301    1.3838566190
 H   -1.4671165638   -1.7786062826    3.7923176600