19

 C   -0.1027168161    1.5917968349   -0.0699716929
 C    0.0004664644    0.0628355273   -0.0511578471
 C   -1.2955761103   -0.5401131224    0.2185180472
 C   -2.3647192135   -1.0397224910    0.4538473338
 C    0.7143765317   -0.6275175567   -1.2383325481
 C    2.1494488777   -0.2018552512   -1.3400040866
 C    1.7728960856   -1.2305927310   -0.3118680062
 C    1.1323170680   -0.5705700639    0.8973663681
 O    1.9878678499    0.3137577895    1.5792152997
 H    0.8790474004    2.0527136766   -0.1906962399
 H   -0.7497781211    1.9202764216   -0.8886631504
 H   -0.5366152494    1.9585598256    0.8658022245
 H   -3.3109086934   -1.4772054154    0.6554660819
 H    0.1881700252   -1.1053770190   -2.0547141979
 H    2.6781770562   -0.5950536970   -2.2023233974
 H    2.4750208065    0.7862422757   -1.0338682199
 H    2.1944936713   -2.2276029486   -0.3143237031
 H    0.6796695802   -1.2993324207    1.5781849118
 H    1.5277093166    0.6413804157    2.3588037024