16

 N    0.0094971085    1.2118181966   -0.3192264469
 C    0.0096852861   -0.0080882393   -0.0383383206
 O    1.0365911176   -0.8338861693    0.3912042797
 C    0.1301565495   -1.9714169156    0.5099043866
 C   -1.0327789307   -1.1046240628   -0.0121028498
 C   -2.3998492782   -1.0222049602    0.7455102488
 C   -3.0896385960   -1.4862638772   -0.5476255165
 O   -2.7682969405   -0.5238550967   -1.5546965405
 C   -1.8083568956   -1.5366280142   -1.2707053164
 H    0.9386021822    1.6211862416   -0.2057583048
 H    0.4489960575   -2.7983734832   -0.1312327698
 H    0.0507336920   -2.3045657149    1.5483176977
 H   -2.4566809875   -1.7446574155    1.5638741626
 H   -2.6946329525   -0.0313824091    1.0956043012
 H   -4.0001642688   -2.0586649299   -0.6749350293
 H   -1.4579442535   -2.1503052405   -2.0931399219