12

 N   -0.0208909128    1.2331352518    0.4787919166
 C   -0.0197704296    0.0898247153   -0.0542154652
 N   -1.1827230516   -0.5439832328   -0.4261960180
 C   -1.2590506762   -1.7880134867   -1.0115080704
 N   -2.3890743206   -2.2926609378   -1.3213935599
 C    0.0666171436   -2.3918942019   -1.2058286249
 N    1.1848956411   -1.8640992105   -0.8859672265
 O    1.1567411805   -0.5991765712   -0.2978749551
 H    0.9269503338    1.5404318214    0.6845192911
 H   -2.0417356866   -0.0418243821   -0.2487099461
 H   -2.2711664978   -3.2123856550   -1.7426365519
 H    0.1358539163   -3.3756692905   -1.6601076396