13

 C   -0.0020736637    1.5218411505    0.0084788859
 C    0.0847135866    0.0153035467    0.0015179200
 O    1.1104673393   -0.6122136100   -0.0091917180
 N   -1.1602896743   -0.6694138890    0.0086757327
 C   -2.4561630301   -0.1889549108    0.0210925826
 N   -3.3134958625   -1.1641738919    0.0240548844
 N   -2.5865129001   -2.3555478141    0.0131736988
 C   -1.3265323573   -2.0414400352    0.0043621466
 H    1.0103674649    1.9232636235    0.0017023832
 H   -0.5453249408    1.8839515461   -0.8699631922
 H   -0.5305080762    1.8765546315    0.8989047532
 H   -2.6998585208    0.8609750796    0.0274113153
 H   -0.4879443350   -2.7176003469   -0.0052024026