16

 C   -0.3335639400    1.3147481147    0.1056277009
 N   -0.0593765627   -0.1162859507    0.0430984429
 C    0.1924687570   -0.7860319149    1.2372328737
 O    0.1965213867   -0.2405367987    2.3157644486
 C   -0.1150735335   -0.8521066470   -1.1583871920
 N   -0.3136237345   -2.1021014349   -1.1534913335
 N    0.0851853556   -0.0383263440   -2.2964946486
 C    0.0417938384   -0.4580167158   -3.6066913487
 O   -0.1748022981   -1.5846548871   -3.9855193045
 H    0.5064885878    1.9174666997   -0.2640113911
 H   -1.2388611664    1.5652133359   -0.4538583608
 H   -0.4769388679    1.5577797029    1.1585549960
 H    0.3892149322   -1.8523546036    1.0719006451
 H   -0.2632666670   -2.4787404866   -2.0973882528
 H    0.3200561113    0.9309188851   -2.1510404439
 H    0.2345157810    0.3828983951   -4.2990421012