17

 C   -0.0778598204    1.5900601346    0.0040064439
 C    0.2040265413    0.1085274925    0.0062583392
 N    1.3882561979   -0.3394080788   -0.0248719547
 N   -0.9848171668   -0.6667609944    0.0466762780
 C   -1.0778944257   -2.0430738237    0.0510808164
 O   -0.1236908431   -2.7869135383    0.0345278029
 C   -2.5396126227   -2.5353255026    0.0618104395
 C   -2.6721148205   -3.9714485113    0.2260879455
 C   -2.8036688743   -5.1563470738    0.3621283632
 H    0.8691849502    2.1265973639   -0.0268000919
 H   -0.6808305547    1.8765666728   -0.8658198733
 H   -0.6300378755    1.8886604705    0.9030024560
 H    1.3888025117   -1.3600159422   -0.0166990475
 H   -1.8511209826   -0.1505251202    0.0687424932
 H   -3.0822764844   -2.0088123929    0.8585241130
 H   -3.0053090969   -2.2161421464   -0.8811625412
 H   -2.9056610337   -6.2063251498    0.4836393179