14

 C    0.0000657819   -1.2383730779   -0.2184323319
 C    0.0322912814   -0.0507668383   -0.0350704223
 C    0.0778441190    1.3638808318    0.1453184632
 C    0.2433035802    2.3362458946   -1.0237041649
 C    1.3099419426    2.2315419812    0.0393062808
 O    1.2751773546    3.1135221412    1.1251597480
 C   -0.0528491060    3.0917465688    1.6189949677
 O   -0.6290755401    1.8460015837    1.2700104721
 H   -0.0283344604   -2.2890245720   -0.3698030641
 H    0.4729153030    1.8885540762   -1.9838645509
 H   -0.3995421088    3.2082357939   -1.0657597930
 H    2.3030403604    1.8578918811   -0.1713463661
 H   -0.0346312679    3.1909800158    2.7084074998
 H   -0.6350220900    3.9161203599    1.1768681615