20

 C   -0.2058983657    1.6644109223    0.0722168023
 C   -0.1465347315    0.1504016382   -0.0604420046
 C    0.2771538608   -0.6922195706    1.2001816670
 C   -1.0865927832   -1.3907389136    1.1309122285
 O   -2.0914809143   -0.3733899224    1.2397041546
 C   -1.4922437947   -0.6000681041   -0.0420874995
 N    1.1270824771    2.2167897385    0.2919248989
 C    1.8792990316    2.5911325881   -0.9014959483
 C    1.2983611380    3.6321284544   -0.0086216442
 H   -0.6902101721    2.0972754492   -0.8242974928
 H   -0.8287209569    1.9205834973    0.9354362123
 H    0.4517890678   -0.1367434351   -0.9312182415
 H    1.1201632692   -1.3556954472    0.9956158787
 H    0.4685464246   -0.1298337912    2.1162695406
 H   -1.3669707021   -2.3918315259    1.4373604089
 H   -2.1601051690   -0.8324910000   -0.8642318451
 H    2.9438293762    2.3756641736   -0.8819523834
 H    1.4028828068    2.4495309958   -1.8711001782
 H    0.4366348961    4.1823509100   -0.3840761820
 H    1.9309182914    4.1899390424    0.6761567878