21

 C   -0.0001058437    1.3951202594    0.0728784314
 O   -0.0010025217   -0.0047708625   -0.0792580324
 C   -1.2900727940   -0.6057243635   -0.0098699295
 C   -1.2228647300   -1.9376803834   -0.7549050180
 C   -2.4916815568   -2.7577824524   -0.5013041454
 C   -2.6642071851   -3.0867469756    0.9900660013
 O   -1.8733801196   -4.2116241456    1.3929323693
 C   -2.3518095249   -1.8978474380    1.8644045886
 C   -1.7292536692   -0.8042883797    1.4235686613
 H    1.0334325726    1.7310000989   -0.0432452881
 H   -0.6215267551    1.8866723334   -0.6924543125
 H   -0.3590871501    1.7180730769    1.0616950019
 H   -2.0158189090    0.0548253627   -0.5195745876
 H   -1.0700609615   -1.7561667036   -1.8225526708
 H   -0.3383299003   -2.4794943918   -0.3975100224
 H   -3.3680087279   -2.1912825420   -0.8432550819
 H   -2.4722350340   -3.6958204089   -1.0633797752
 H   -3.6956723212   -3.4141131141    1.1656733737
 H   -0.9635959750   -3.9063935720    1.4768268749
 H   -2.6140499176   -1.9947267002    2.9152659874
 H   -1.5065444561    0.0071376222    2.1124248340