20

 C   -0.0232412632    1.2489593326   -1.3116825791
 C    0.2260193668   -0.2421764308   -1.5195227876
 C    1.2950180026   -0.8003125963   -0.6027891582
 O    1.9226406002   -0.1295151141    0.1825727465
 C    1.5708609117   -2.3110806236   -0.6568497157
 O    0.8827450644   -2.9929760568   -1.6930330914
 C    1.5733404775   -3.2471339918   -2.8291998398
 N    0.9865607956   -3.6830564655   -3.8495430587
 C    1.7972234545   -3.9771558438   -5.0129996891
 H   -0.3478279948    1.4525218615   -0.2878933616
 H    0.8892288334    1.8258120814   -1.4824536447
 H   -0.7948902007    1.6082782316   -1.9976139576
 H   -0.6847829865   -0.8379614151   -1.3735690827
 H    0.5214592426   -0.4614916461   -2.5547965454
 H    2.6558215578   -2.4610281389   -0.7198106126
 H    1.2346526454   -2.7427174214    0.2918070933
 H    2.6557266001   -3.0549207970   -2.7506727173
 H    2.8698273376   -3.7607818717   -4.8798011402
 H    1.6906834929   -5.0356861447   -5.2755501592
 H    1.4322550422   -3.3991817396   -5.8692766089