25

 C   -0.1355718390    1.4354818233   -0.0881259534
 C   -0.0612193522   -0.0885169619    0.0430444565
 C    0.8053844947   -0.5855316425    1.2173534277
 C    0.1249016156   -0.3614618238    2.5805017827
 C    1.0788094485   -0.3540056493    3.7704984162
 O    0.3044425211   -0.1283712293    4.9399762910
 C    1.1603497207   -2.0627216991    1.0256409836
 O    1.9726677671   -2.1985955912   -0.1219662573
 C    2.3074020436   -3.5345995545   -0.4041345630
 H    0.8612729266    1.8648928336   -0.2387571691
 H   -0.7527320587    1.7237424036   -0.9449440289
 H   -0.5690005696    1.9089669012    0.7989134282
 H   -1.0740047707   -0.5018252004    0.1497182950
 H    0.3506040302   -0.5077917185   -0.8801177982
 H    1.7531690264   -0.0280694708    1.1960338517
 H   -0.4035797461    0.5972414190    2.5828373994
 H   -0.6402010310   -1.1307904309    2.7487770646
 H    1.6251158310   -1.3078050160    3.8398155704
 H    1.8308842710    0.4401378059    3.6314764586
 H    0.8974212452   -0.1240284236    5.6968491220
 H    1.6903820332   -2.4594016341    1.9072657197
 H    0.2356496243   -2.6575277833    0.9128556555
 H    1.4135912410   -4.1501016317   -0.5950980415
 H    2.9334668388   -3.5348777253   -1.2999785953
 H    2.8699913584   -3.9994769304    0.4216433838