14

 N    0.0709911837    1.3406183191    0.1233114638
 C   -0.0225962285   -0.0099761663    0.0377660957
 N   -1.0749794530   -0.7444891661    0.0112105498
 C   -0.6393163002   -2.1567315872   -0.0113415994
 C    0.8621712878   -2.0854965258   -0.0116618054
 N    1.9679397877   -2.8007560124   -0.0406943547
 C    2.9329337479   -1.8240942016   -0.0241866459
 N    2.4999501049   -0.5657314222    0.0132089273
 N    1.1642950095   -0.7718384519    0.0231180207
 H    0.9438606929    1.7571509189   -0.1601746928
 H   -0.7684387415    1.8565268359   -0.0856836351
 H   -1.0305281304   -2.6918705705    0.8613261196
 H   -1.0321867469   -2.6624628978   -0.9003031897
 H    3.9890836660   -2.0506259820   -0.0394431839