17

 O    0.3265418263    1.1668675193   -0.0893360333
 C   -0.0016985876   -0.1802258665   -0.0520690712
 C   -0.6870624415   -0.8687728413   -1.1995231896
 C   -1.4191144015   -0.6408230345    0.1109465883
 C   -1.3686258063   -1.7819086040    1.1079733757
 O   -0.0063622311   -2.2195684775    1.1234205848
 C    0.8225955015   -1.0847757071    0.8749406088
 C    2.1053080364   -1.5066651354    0.3242343745
 C    3.1735044110   -1.7925290786   -0.1460296346
 H    1.1027610802    1.2648896776   -0.6529933867
 H   -0.9800579734   -0.2307048829   -2.0255638379
 H   -0.3852913237   -1.8765952205   -1.4666111172
 H   -2.2317352185    0.0741843709    0.1502528573
 H   -1.6815938359   -1.4314399935    2.1040503432
 H   -1.9766045167   -2.6508636195    0.8377427227
 H    0.9989740502   -0.5151877490    1.8034154088
 H    4.1164701308   -2.0640839575   -0.5524430236