18

 C   -0.0015153103    1.3478751337   -0.0243778360
 O   -0.0374516503   -0.0682188719    0.0039451663
 C   -1.3118996719   -0.5941108471   -0.0178122069
 C   -2.2879521231   -0.4897628735   -1.2258954174
 C   -2.9018940604   -1.7460678934   -0.5909766837
 C   -1.5413407803   -2.1524860001    0.0516004390
 C   -2.1983104269   -2.0063814976    1.4469098433
 C   -2.2148205219   -0.5391753233    1.2490994469
 N   -3.3889863541   -1.3605860626    0.8072127449
 H    1.0503981732    1.6396422293   -0.0036829446
 H   -0.4652335784    1.7453952660   -0.9379745987
 H   -0.5095496324    1.7878204782    0.8452979723
 H   -2.9179597383    0.3961490043   -1.3410228242
 H   -1.7749654439   -0.7284754737   -2.1628405873
 H   -3.5868247318   -2.4110858788   -1.1122984285
 H   -0.8280343074   -2.8813698143   -0.3217270163
 H   -2.2627818077   -2.6276974473    2.3314250554
 H   -2.3934125242    0.2695285619    1.9467656354