21

 C   -0.0481706480    1.6086027924   -0.0169175585
 C    0.0098563238    0.0790503847    0.0179755160
 C    0.6963878798   -0.5145737347   -1.2152977457
 C    0.7640763661   -2.0588870185   -1.2159909069
 C    1.3480495083   -2.5760031520   -2.5628018223
 C    1.2868974939   -4.0232901202   -2.7121699993
 C    1.2146255623   -5.2168224759   -2.8309413753
 C    1.5361708582   -2.5652915639   -0.0835141548
 C    2.1963655012   -2.9590468617    0.8408295537
 H    0.9572595316    2.0418909317   -0.0600685569
 H   -0.5999647505    1.9674479722   -0.8931270710
 H   -0.5436458257    2.0070057004    0.8737276735
 H    0.5394762412   -0.2526699768    0.9179204036
 H   -1.0081187171   -0.3257619886    0.0938867909
 H    0.1598865886   -0.1986372900   -2.1196901442
 H    1.7157211110   -0.1160949992   -1.2994465278
 H   -0.2603896237   -2.4466959341   -1.1355613966
 H    0.7916348004   -2.1007124618   -3.3802721340
 H    2.3866962897   -2.2349639353   -2.6505321036
 H    1.1621294583   -6.2720453581   -2.9348533107
 H    2.7680752310   -3.3234394705    1.6580475801