19

 O    0.0444836528    0.0278794931    0.2169653467
 C   -0.0174815439    1.2148341270    0.0553918904
 C   -1.3439109037    2.0217619634   -0.1501641674
 C   -0.8524613895    3.3957790854   -0.5932634371
 C   -0.8495168527    4.7813072793    0.1342958809
 C   -0.1653709029    4.1021052663    1.3437351549
 C    0.5454989556    3.5201798895    0.0741388920
 C    0.5964087261    4.9777743978   -0.4631290762
 C    1.2186293421    2.1765853811    0.0187085939
 H   -1.9689970989    1.5067192064   -0.8833194754
 H   -1.8907973401    2.0025509960    0.7978964787
 H   -0.8358048700    3.4752306093   -1.6857314345
 H   -1.6423220060    5.5305871873    0.1586463894
 H    0.4489370492    4.7433200105    1.9814771255
 H   -0.7679930851    3.4235245179    1.9500610150
 H    0.6660985363    5.0967299441   -1.5479980691
 H    1.2409383123    5.6875913639    0.0624216007
 H    1.9029293894    1.9345357130    0.8355329930
 H    1.7484892088    2.0035094487   -0.9266574214