17

 C    0.0349031699    1.4250236161    0.0371610071
 N    0.0161867245   -0.0250795071    0.0126914580
 C    0.0141939819   -0.8257520182   -1.0924612332
 C    0.0289268742   -0.2914336148   -2.4840633718
 N   -0.0023158197   -2.1076338220   -0.7672578459
 C   -0.0110372475   -2.1442988945    0.5961403053
 C    0.0001298056   -0.8685472056    1.1232100378
 C   -0.0031123477   -0.4002481909    2.4482558431
 C   -0.0059157772    0.0055403116    3.5842010053
 H    0.9417200747    1.8127858776   -0.4373577746
 H   -0.8364799565    1.8349431343   -0.4825150291
 H    0.0129410025    1.7552255343    1.0760434721
 H    0.9203403597    0.3159588148   -2.6813712419
 H    0.0233798853   -1.1336866834   -3.1764560218
 H   -0.8457543170    0.3363702988   -2.6921895477
 H   -0.0251696595   -3.0731837673    1.1451798293
 H   -0.0084835431    0.3486562464    4.5889031881