21

 C   -0.0702109034    1.3999495256   -0.2395368457
 C   -0.0665961196   -0.0473899729   -0.0872431896
 C   -0.0691094343   -1.2440969748    0.0371132899
 C   -0.0431842001   -2.6920318775    0.1918804740
 O   -1.3513332762   -3.2213750035    0.0852726334
 C   -1.3753290381   -4.6277120383    0.2431071266
 C   -2.7994245889   -5.1034862874    0.1836516970
 C   -3.4558515951   -5.3474344446   -1.1496181803
 C   -3.0930049502   -6.5134143434   -0.2651178054
 H    0.9497244721    1.7884997131   -0.3355419836
 H   -0.6249283828    1.7038012477   -1.1340067127
 H   -0.5326472649    1.8923398507    0.6229036547
 H    0.6139778774   -3.1391376313   -0.5753141800
 H    0.3980075207   -2.9569475080    1.1694012251
 H   -0.7807012629   -5.1144699267   -0.5507310199
 H   -0.9131441726   -4.9072865304    1.2063969732
 H   -3.4312756300   -4.6996023335    0.9690526678
 H   -4.5027467194   -5.0887813835   -1.2601899466
 H   -2.8607034413   -5.1803195694   -2.0411718681
 H   -2.2567394911   -7.1373775732   -0.5640691521
 H   -3.8887899692   -7.0533727184    0.2353729622