18

 C   -0.0493856776    1.5221457415    0.0308372182
 C   -0.0085235639    0.0687044761   -0.0331971551
 C    0.0229050852   -1.1336146239   -0.0693225453
 C    0.0345373893   -2.5898725942   -0.1218130468
 C   -1.3659906756   -3.2122787079    0.0002629365
 C   -1.4445114661   -4.7526013235    0.0804957259
 O   -2.0456978509   -4.6621886722    1.4077978824
 C   -1.9826582552   -3.2804540122    1.3881710915
 N   -2.3244100844   -2.4403832819    2.2516780713
 H    0.8890997349    1.9290288896    0.4233777788
 H   -0.2132917348    1.9632188089   -0.9586408901
 H   -0.8583079482    1.8635537553    0.6859007492
 H    0.4758131937   -2.9247572926   -1.0705165046
 H    0.6762391211   -2.9923106677    0.6729943231
 H   -2.0386509065   -2.7711443479   -0.7385172936
 H   -2.1175790294   -5.2473798014   -0.6235767115
 H   -0.4851017678   -5.2768095758    0.1209660280
 H   -2.7000692438   -2.8974103503    3.0847639317