19

 C   -0.0266242406    1.4820472286    0.0939948511
 C   -0.0851254670   -0.0322865251   -0.0708139926
 N    0.7824485939   -0.4629506468   -1.1627109330
 C    0.8881060120   -1.8163166603   -1.4285173778
 N    0.4650229964   -2.7594198532   -0.5861866210
 N    0.8224798667   -3.8900809684   -1.2084222269
 N    1.4272955260   -3.7550500832   -2.3769618477
 C    1.4897901731   -2.4355036013   -2.5557329367
 C    2.1086267759   -1.8048524648   -3.7577759463
 H    0.9968182193    1.8142402651    0.2912939077
 H   -0.3821447181    1.9950302564   -0.8077893483
 H   -0.6617351558    1.8007520806    0.9251478599
 H    0.2613082639   -0.5295294789    0.8403665162
 H   -1.1252365520   -0.3623517418   -0.2235751169
 H    0.6835403498    0.0966813487   -1.9988125973
 H    0.6462941583   -4.7920071747   -0.8014158890
 H    1.3756413347   -1.2380464471   -4.3460801805
 H    2.9069978002   -1.1081022117   -3.4770442112
 H    2.5346136534   -2.5739314019   -4.4051162298