23

 C   -0.0169265455    1.5527277010   -0.0033136843
 C    0.0188668136    0.0245271815   -0.0125295231
 O   -1.3156310437   -0.4989213772    0.0654354681
 C    0.7279822019   -0.5184540994   -1.2703009512
 C    0.7941254328   -2.0522298989   -1.2830533756
 C    1.4699719446   -2.5893159924   -0.0137374739
 C    0.7809434304   -2.0523159402    1.2513214973
 C    0.7124915416   -0.5193422113    1.2641026491
 O    1.9959207101    0.0750345375    1.4455552287
 H    0.9909279622    1.9659065035    0.0705126389
 H   -0.4832419930    1.9349806406   -0.9198238784
 H   -0.5992128004    1.9086243207    0.8522271490
 H   -1.8273798573   -0.1026992097   -0.6475915682
 H    0.2083228593   -0.1472188068   -2.1632832382
 H    1.7411694799   -0.0956335164   -1.3142766158
 H   -0.2262735975   -2.4473185515   -1.3399167658
 H    1.3242907735   -2.3986785529   -2.1770167040
 H    1.4598542059   -3.6844215994   -0.0064727760
 H    2.5344010895   -2.3070924165   -0.0189210941
 H   -0.2413061621   -2.4402486044    1.2976972350
 H    1.3035748563   -2.3888378943    2.1532741127
 H    0.1201514457   -0.1876874397    2.1234415358
 H    2.6221314424   -0.3787315938    0.8731359941