19

 C    0.0845037790    1.0755190698   -0.4920316609
 C    1.4925156595    1.4176036437    0.0309449530
 C    1.3964600678    0.0565830505    0.7567536334
 O    0.0755844800   -0.1843854892    0.2181875980
 C    2.3800117707   -1.0262030573    0.3417615069
 C    1.9184681554   -2.4504847701    0.7493311083
 O    2.1148280844   -3.2262170810   -0.4243498735
 C    1.9193143625   -2.3249859882   -1.4817956003
 O    2.5031838750   -1.1000728865   -1.0791850639
 H   -0.7233743034    1.7341824377   -0.1520771572
 H    0.0000793600    0.9303866140   -1.5745511640
 H    2.2684924038    1.4646532564   -0.7325992129
 H    1.5546168428    2.2904163593    0.6817264778
 H    1.3733197471    0.1189423903    1.8551315791
 H    3.3690902890   -0.7844599441    0.7533132549
 H    2.5162939891   -2.8845800209    1.5531807318
 H    0.8599204544   -2.4433443882    1.0417822857
 H    2.4382546971   -2.6978766466   -2.3696256337
 H    0.8453037657   -2.1826745598   -1.6855826723