19

 C   -0.0695535426    1.4662622530   -0.0774433267
 C    0.0121014742   -0.0450066179    0.0507560905
 C   -1.1702923287   -0.7537546539   -0.5843009504
 N    1.3533302048   -0.6089185014   -0.0915237756
 C    0.7431925879   -0.6466494464    1.2500776503
 C    1.3680969385    0.1946114468    2.3472284176
 C    0.2902630679   -1.9865540093    1.7268256212
 O    0.2337194458   -2.9813811140    1.0395901646
 H    0.8595275134    1.9541998878    0.2165502138
 H   -0.2621762384    1.7307279863   -1.1231402991
 H   -0.8913821905    1.8699419605    0.5236236801
 H   -1.1804816244   -0.5417522103   -1.6597086065
 H   -1.1316688394   -1.8346738420   -0.4514918925
 H   -2.1141858520   -0.3817175556   -0.1708533284
 H    1.2904186899   -1.5535215956   -0.4761916601
 H    1.6789540416    1.1717298355    1.9806510755
 H    0.6626509487    0.3461453537    3.1719841661
 H    2.2564513424   -0.3026904655    2.7518475869
 H    0.0190615310   -2.0260095818    2.8045026425