17

 O    0.1772772118    0.2220092424   -0.8017088028
 C   -0.0158054047    1.2059717759   -0.1640683880
 C   -1.2012730378    2.0290527365    0.3340226917
 C   -0.1134456747    2.9251463413    0.9508447549
 C    0.1371722586    4.4227305596    0.6272109379
 C    0.2981783726    4.6915727708    2.1311714002
 C   -0.9472623418    4.2703678789    2.8508157323
 C    0.0425215466    3.2114742288    2.4348887776
 O    0.9215411848    2.0334073896    0.4029583458
 H   -1.8049596789    2.4724591875   -0.4600376494
 H   -1.8487891503    1.5073291796    1.0412853486
 H    1.0662957012    4.5250808179    0.0633049323
 H   -0.6625076975    4.9663865475    0.1136142990
 H    1.0279515560    5.3564309559    2.5740948373
 H   -0.9713792527    4.4731484271    3.9165188416
 H   -1.9179345242    4.3451403661    2.3646357471
 H    0.5240244507    2.5472784647    3.1414260939