14

 N   -0.0235312836   -1.1442015246   -0.0163130320
 C    0.0028895845    0.0115548715   -0.0281862579
 C    0.0440273862    1.4594166911    0.0026965368
 O   -0.4168823713    2.1133741715   -1.1812965905
 C    0.7873428822    2.9314955457   -1.2589619379
 C    1.3590853354    2.2931117640    0.0264951721
 C    0.8974635036    2.9073126539    1.3709766635
 O   -0.3685455000    3.5315285865    1.1515913347
 C   -0.3577586145    2.1302383741    1.3685304953
 H    1.3519812416    2.7013025119   -2.1675471594
 H    0.5540749775    3.9969531929   -1.2072042628
 H    2.3374070947    1.8197971826    0.0067110860
 H    1.5039681850    3.2755723699    2.1888541720
 H   -0.9786462413    1.7243453690    2.1584062102