17

 O   -0.3393467430    0.6163946671    0.8571964081
 C    0.2581130826    0.9105369920   -0.1479577814
 C    1.4371581820    1.8147770876   -0.1822690011
 N    2.2997227571    1.6816965226   -1.3852823226
 C    1.5355203601    2.8909612654   -1.2256418215
 C    0.5777662489    3.4237994667   -2.2981203071
 N    1.1857849660    4.8029609655   -2.1937082236
 C    0.9584131753    5.2348815185   -0.8051499686
 C    2.0686988477    4.2923429819   -1.0638082898
 H   -0.0397081859    0.5286493979   -1.1499580029
 H    1.8889344185    2.0249542009    0.7842773060
 H    3.2763089873    1.8167653982   -1.1334075313
 H    0.7773919143    2.9913249991   -3.2803010343
 H   -0.4968388542    3.4023343625   -2.0917036962
 H    1.2139527447    6.2768187094   -0.6380611846
 H    0.0708849900    4.8906979901   -0.2778913787
 H    3.1171194386    4.5635842847   -0.9785253205