19

 O    0.1748069131    1.2968040086    0.1905929759
 C    0.0404028683   -0.0539474978   -0.2750216314
 C   -1.3789120113   -0.5607348051   -0.1240343806
 C   -2.4202226200    0.2379338950   -0.8988860153
 O   -2.5716320991    1.5596905091   -0.4198829542
 C   -1.7161183840   -2.0412024112    0.0116036420
 C   -0.7049995139   -2.7560216334    0.9029346329
 O   -0.8302186720   -1.7373168457    1.9334400782
 C   -1.8747631029   -1.1015975289    1.1871735318
 H    0.0603012867    1.2767684906    1.1476596343
 H    0.3185450624   -0.0227812856   -1.3338038489
 H    0.7540813871   -0.7010975059    0.2439924781
 H   -2.1503713260    0.2251446080   -1.9691044468
 H   -3.4022917198   -0.2422817879   -0.8124133759
 H   -1.6754982535    1.9094055002   -0.3119070826
 H   -2.4592071880   -2.5247430324   -0.6089503956
 H   -1.0767876912   -3.7168937958    1.2752576856
 H    0.3252234930   -2.8742787220    0.5486673413
 H   -2.7364682388   -0.7280225099    1.7282789013