16

 C   -0.1070565144    1.3866818332    0.0610950330
 N   -0.1530361459   -0.0572123453    0.0180857992
 C    0.0218548680   -0.8575307278   -1.0812507255
 N    0.0753313927   -2.1275577393   -0.8820350918
 C    0.0445837904   -2.3201298328    0.5362010333
 C    1.1463397722   -1.7269688194    1.3716515626
 C   -0.1153799030   -0.9024241806    1.1808676633
 C   -0.9694041384   -0.5628223684    2.2790033956
 N   -1.6521546899   -0.2828507779    3.1708589844
 H    0.8625203950    1.7621140969    0.4149899932
 H   -0.2868745463    1.7759645608   -0.9437752857
 H   -0.8886151975    1.7715735996    0.7235958410
 H    0.0840317132   -0.3956069826   -2.0611988018
 H   -0.4895755059   -3.1846474458    0.9118924134
 H    1.2851958822   -2.1551642819    2.3571808436
 H    2.0464700078   -1.3763879485    0.8776801722