16

 C    0.1244681016    1.4492524547    0.0418912965
 C   -0.0636519993   -0.0257650098    0.0224946376
 C   -1.1684856326   -0.8146667572   -0.0810324095
 C   -0.7064452217   -2.1748910371   -0.0555329978
 N   -1.4958302717   -3.3330284002   -0.0600332832
 C    0.6500542204   -2.1173144322    0.0606308045
 N    1.5881674744   -3.1471190620    0.1405368929
 O    1.0542174139   -0.7906729340    0.1219768765
 H    0.7477489471    1.7879148414   -0.7941857707
 H   -0.8442754708    1.9489111940   -0.0308129434
 H    0.6123484718    1.7809819794    0.9657599345
 H   -2.1905583719   -0.4760782507   -0.1593106188
 H   -2.2319813932   -3.3023154742   -0.7546695600
 H   -0.9213607451   -4.1547266435   -0.2104674360
 H    2.0386125553   -3.2087967637    1.0493602587
 H    2.3168811318   -3.0696326451   -0.5624111416