16

 N    0.1248324042    1.4048823842    0.0465053709
 C   -0.0620952022    0.0297780493    0.0138602883
 C   -1.1461550104   -0.7799099024   -0.1144496708
 C   -2.6329227046   -0.8508249213   -0.2879865896
 C   -2.8521310177   -2.3916352210   -0.1376137994
 O   -1.5767277269   -3.0563954356   -0.3339785929
 C   -0.6246358553   -2.1041443933   -0.1760998258
 C    0.7217791984   -2.0598669943   -0.0765494932
 O    1.0737060043   -0.7111493736    0.0448369437
 H    0.9927196910    1.6608058009    0.5002114957
 H   -0.6542172723    1.8993484351    0.4591453608
 H   -3.2148460968   -0.3055744714    0.4623116140
 H   -2.9591705586   -0.4977251004   -1.2740303607
 H   -3.2089394183   -2.6344070943    0.8704357852
 H   -3.5524400767   -2.8042031361   -0.8670095073
 H    1.5330993718   -2.7624325256   -0.0711512190