19

 C   -0.1484825038    1.5632121013   -0.0113991107
 C    0.0190215982    0.0410070585   -0.0127577561
 N    0.6978745091   -0.4602853329   -1.1952082623
 C    0.1040573646   -0.7786898343   -2.3826115725
 C    1.0793980438   -1.1595459153   -3.2832792719
 C    2.3184718935   -1.0549081322   -2.6022148242
 O    3.5805169820   -1.3291817647   -3.0611962798
 C    2.0731007405   -0.6188066843   -1.3162139627
 N    2.9281059929   -0.3816109482   -0.2173965013
 H    0.8266128164    2.0581280209   -0.0302971586
 H   -0.7184200906    1.8967707806   -0.8837398116
 H   -0.6785994043    1.8858811578    0.8906187502
 H    0.6060807132   -0.2704917973    0.8540793859
 H   -0.9579334919   -0.4498060995    0.0447506249
 H   -0.9660499973   -0.7106771880   -2.4987659663
 H    0.9179218133   -1.4806414702   -4.3018019176
 H    3.5070388887   -1.6720724981   -3.9559175490
 H    3.5068057923    0.4418181673   -0.3571081799
 H    3.5624360994   -1.1618234714   -0.0792940264