20

 C   -0.1048779684    1.5078554800    0.0487750710
 C   -0.0317423670    0.0019209916    0.0622223495
 C   -1.2383934208   -0.7918411742   -0.4293254844
 C   -1.0138203255   -2.2494772743    0.0577720251
 C   -0.1245496534   -2.1018857765    1.3260987584
 C    0.6413283340   -0.8074287719    1.1166472368
 N    1.2961798341   -0.5884351020   -0.1834504258
 C   -2.3174324584   -2.9489824336    0.3648196722
 O   -2.6989708304   -3.9704149967   -0.1424302022
 H    0.8168518546    1.9377914905    0.4475792009
 H   -0.2344839957    1.8839079150   -0.9725244260
 H   -0.9490731200    1.8672902032    0.6478223241
 H   -2.1458484644   -0.3726672965    0.0270916974
 H   -1.3763689256   -0.7409954683   -1.5147560419
 H   -0.5078084938   -2.8447341323   -0.7059463340
 H   -0.7481653490   -2.0081818464    2.2257964471
 H    0.5191964744   -2.9752132047    1.4725199393
 H    1.1461076331   -0.3569515146    1.9669347694
 H    1.2456401986   -1.4173993499   -0.7708510216
 H   -2.9327950764   -2.4241744584    1.1362918246