14

 O    0.1041349899    1.4224277831   -0.0398702206
 C   -0.0367794625    0.0496474617    0.0388987863
 C    1.0195509703   -0.6031464582   -0.7228894854
 N    1.8461295949   -1.1470606686   -1.3190272870
 C   -0.4323825947   -0.7803602886    1.2547122907
 C   -1.6152225003   -0.1624679224    2.0536106235
 O   -2.0142523838    1.0926632675    1.4620521945
 C   -2.4606551437   -0.1439127837    0.8652923542
 C   -1.3272035820   -0.7606899596   -0.0030480706
 H   -0.6248769355    1.7870267513    0.4845251632
 H    0.1849400700   -1.5826639783    1.6366230566
 H   -1.8345858654   -0.3064133740    3.1034908116
 H   -3.5264089889   -0.2692768026    0.7255033560
 H   -1.4973147682   -1.5456804476   -0.7279523430