18

 O   -0.1156442375    1.3650001354    0.1663992163
 C   -0.0696898157   -0.0248536302    0.2469027654
 C   -0.9820915350   -0.7525842401    1.2139538303
 C   -1.2379591078   -0.8028666548   -0.2795330592
 O   -2.2333316149    0.0064086298   -0.8392037253
 C   -3.5338806270   -0.5068241265   -0.7420746568
 C   -4.4176987717   -0.1044680720    0.4075971455
 C   -4.6464633605    0.4580971177   -0.9830403323
 H   -0.9220440777    1.5811642622   -0.3200101593
 H    0.9307969691   -0.4157235558    0.0851618533
 H   -0.6279563050   -1.6524471730    1.7059449198
 H   -1.6405194637   -0.1288815083    1.8068676367
 H   -1.0753518059   -1.7390225365   -0.8125278227
 H   -3.6303321665   -1.5182400235   -1.1343155695
 H   -5.1178787007   -0.8309662110    0.8050508353
 H   -3.9960641573    0.5704887343    1.1427661249
 H   -4.3633740890    1.4915214176   -1.1486344657
 H   -5.5050886733    0.1259617845   -1.5551440866