20

 C   -0.3104641015    1.4106503630    0.0256603401
 C    0.0500553347   -0.0547690561    0.0213242024
 C   -0.7138351827   -1.0270877484    0.8993196169
 C    0.7492352012   -0.7578810947    1.1622794250
 C    1.7497257358   -1.7555376573    0.5869464421
 C    1.2885551794   -1.9670354827   -0.8705041769
 C    0.6044562928   -0.6404132542   -1.2759498840
 O   -0.3448606544   -0.7645863167   -2.3238272346
 H    0.5594341517    2.0333893723   -0.2155243393
 H   -1.0829827058    1.6200997171   -0.7225044605
 H   -0.6902570877    1.7287011799    1.0015926792
 H   -1.4292779599   -0.5921744228    1.5892749038
 H   -1.0140621383   -2.0001609592    0.5206290797
 H    1.0133198881   -0.2182606254    2.0661686693
 H    2.7537074269   -1.3153573542    0.6102215444
 H    1.7980506991   -2.6927882819    1.1524211208
 H    2.1050723152   -2.2319645933   -1.5460743310
 H    0.5549125608   -2.7790216220   -0.9353974421
 H    1.3543314707    0.0561433926   -1.6723318724
 H   -1.0860957759   -1.2741107361   -1.9772340627