21

 C    0.0270587138    1.1522018238    0.4110061836
 O   -0.2136355492    0.1250661228   -0.5382994439
 C   -1.4002469420   -0.5578451367   -0.2929735691
 C   -1.4459696562   -2.0087123632   -0.7259402185
 C   -0.2107548042   -2.6678720274   -1.3312798993
 C    0.6098192814   -3.3686689919   -0.2393617384
 C    0.8940771841   -2.4040228196    0.9056491566
 O   -0.2915566841   -1.9193590676    1.5415910162
 C   -1.4107661315   -1.6550365960    0.7482062452
 H    0.9737139783    1.6241424309    0.1367134261
 H   -0.7679936341    1.9122959639    0.3854602107
 H    0.0980116819    0.7454724793    1.4267327034
 H   -2.3023270184    0.0451267854   -0.4183476826
 H   -2.4014599153   -2.3514436226   -1.1097742119
 H   -0.5168306208   -3.3858928116   -2.0971209859
 H    0.4097916760   -1.9139152679   -1.8262131247
 H    0.0619077500   -4.2373761115    0.1460977362
 H    1.5618103473   -3.7330433136   -0.6409071843
 H    1.4603291939   -2.8947228266    1.7033583121
 H    1.4893525513   -1.5591891088    0.5330677691
 H   -2.3141399822   -1.7929209411    1.3354308292