15

 O   -0.2460965691    0.1289592048   -0.4937258424
 C   -0.0169435663    1.2029888243   -0.0035018599
 C    1.3115353662    1.9171057962   -0.0678265700
 O    2.4147479365    1.1470989635   -0.5733970471
 C    2.6416242817    2.0917970149   -1.6150941942
 C    1.4785822087    2.1726775182   -2.5358391111
 C    1.4366680169    2.9513545898   -1.2189462841
 C    1.2514232843    4.3509680378   -1.1042812133
 C    1.0812698708    5.5369598392   -0.9873502874
 H   -0.8047859853    1.7964410647    0.5158872356
 H    1.5544356340    2.3656145500    0.9037258552
 H    3.6646035807    2.3678751964   -1.8394171953
 H    1.6054761366    2.8107733609   -3.4036293884
 H    0.8444606816    1.3015095565   -2.6694301089
 H    0.9354529325    6.5840541028   -0.8880097488