14

 C   -0.0177482740    1.5123241260   -0.0602179270
 C   -0.0089890265    0.0230906978    0.0531046074
 N   -0.0419221780   -0.7229767273   -1.0328093417
 O   -0.0249041518   -2.0785119898   -0.6512394576
 C    0.0192319417   -2.1033649155    0.6933087135
 C    0.0314769683   -0.8231371647    1.1988240962
 N    0.0762777689   -0.9548068642    2.5521835601
 N    0.0925905506   -2.2585350811    2.9181142033
 C    0.0582273917   -2.9798843124    1.7956778176
 H    0.8804413336    1.9451585710    0.3929621717
 H   -0.0542585019    1.8016401627   -1.1116475385
 H   -0.8860649856    1.9393310590    0.4527533226
 H    0.0975314037   -0.2536220598    3.2710292467
 H    0.0633964892   -4.0565091516    1.8440547157