20

 C    0.2488701548    1.4904510324   -0.2645212307
 C   -0.1584496650    0.0537848725    0.0873742864
 C    0.5904851647   -0.4985256596    1.2803225705
 C    2.0267423650   -0.9766513993    1.1560911790
 C    0.9446002803   -1.9576770867    1.5019093995
 C    0.7490802687   -2.2693838760    2.9818286526
 N    0.5100015978   -0.9573177413    3.5592945461
 C    0.2608252068    0.0451177457    2.6538503945
 O   -0.1580281348    1.1519697271    2.9261165777
 H    1.3117182092    1.5432190882   -0.5238281073
 H   -0.3255058237    1.8589142168   -1.1201332735
 H    0.0725653621    2.1500727460    0.5874876094
 H   -1.2351463203    0.0186840299    0.2932204426
 H    0.0152239660   -0.6069183429   -0.7714210682
 H    2.4285759519   -1.0214655750    0.1489371606
 H    2.7463645881   -0.6915738381    1.9173089354
 H    0.6679035460   -2.7158891169    0.7793329607
 H   -0.1097189020   -2.9387680381    3.1302976354
 H    1.6292315289   -2.7505466927    3.4270688226
 H    0.3186972855   -0.8096986322    4.5370483969