13

 O    0.0023237152    0.0185757466    0.2620829164
 C    0.0180416394    1.1873213676    0.0247881571
 O   -1.1111525251    1.9241265146   -0.1819845952
 C   -0.8322502896    3.2471077817   -0.6575112799
 C    0.6806463884    3.4154012147   -0.5510340471
 N    1.1391989210    3.2234931032    0.8393137131
 C    1.2149061078    2.0947314460   -0.1117848105
 C    1.3829797492    4.2893296194   -1.4435290377
 N    1.9389181526    5.0133797598   -2.1537000712
 H   -1.1700751316    3.3306634503   -1.6946320441
 H   -1.3680663026    3.9630543739   -0.0303953010
 H    2.0708939410    3.6216544168    0.9503256954
 H    2.1676834042    1.6869676253   -0.4225516453