13

 C   -0.0694045660    1.4665168498   -0.0433659820
 N   -0.1221542840    0.0171592934   -0.1031982702
 C    0.5040534163   -0.6020885965   -0.9951377243
 O    1.2845792070   -0.0741784537   -1.9900566612
 C    1.8015155319   -1.1377204001   -2.7759694406
 O    1.3175513720   -2.3541669915   -2.2389867011
 C    0.5230405329   -2.0991692596   -1.1550401365
 O   -0.0141461261   -2.9442630774   -0.5136059107
 H    0.5445663311    1.9334493885   -0.8211711379
 H   -1.0914967029    1.8544574828   -0.1117325988
 H    0.3130755849    1.7599066359    0.9402362184
 H    1.4556856805   -1.0309080283   -3.8097570345
 H    2.8958793924   -1.1278263932   -2.7313122107