17

 C    0.0812425328    1.5710665983   -0.1818614624
 C   -0.0449071618    0.0826366535    0.0586479223
 C    1.1404191929   -0.8382774793   -0.0914052299
 C    0.5314767020   -0.6090921054    1.2762871079
 C    1.2906654353    0.1291165124    2.3645874333
 C    2.2574440869   -0.7900164092    3.0828947819
 O    2.3090734865   -0.9410997500    4.2762225307
 H    1.0636279458    1.9539388872    0.1095333122
 H   -0.0517436312    1.8008761241   -1.2445965586
 H   -0.6750951155    2.1331581601    0.3771641901
 H   -0.9948961044   -0.3295863133   -0.2720178205
 H    1.0085338274   -1.8029308203   -0.5687171942
 H    2.1020033966   -0.3748530638   -0.2934657879
 H   -0.0705077889   -1.4290864263    1.6600161119
 H    1.8860281034    0.9399802312    1.9240953114
 H    0.6193675495    0.5717680954    3.1072805651
 H    2.9433476828   -1.3470797647    2.4031096366