18

 O   -0.0220577959    1.3363229920   -0.1819584172
 C    0.0397274942   -0.0551968873    0.0742182266
 C   -1.3464559708   -0.6277173373    0.1965787167
 C   -2.3135253223   -0.3936933338    1.3712463734
 C   -3.1156617377   -1.5447092334    0.7209880870
 C   -3.4272670843   -1.0670546655   -0.7133644425
 C   -2.3186392057   -1.8292830581   -1.3353243082
 C   -1.7835452030   -2.1250063857    0.0870242833
 N   -2.1548555800   -0.3631554052   -1.0812403026
 H   -0.6490263592    1.4368485798   -0.9104496783
 H    0.5863031771   -0.5902799380   -0.7207777364
 H    0.5994367648   -0.1872432626    1.0063373243
 H   -1.8588084675   -0.6993943265    2.3190519646
 H   -2.7819071668    0.5882780422    1.4734869413
 H   -3.8471669086   -2.1507595987    1.2512447829
 H   -4.3519908815   -0.6927806661   -1.1340827885
 H   -2.1957168666   -2.2823413597   -2.3113576401
 H   -1.2437792362   -2.9892980660    0.4643834537