24

 C    0.0957465911    1.4700628411   -0.4267964482
 C   -0.0108914708    0.1055420547    0.2634158121
 C   -1.4192726562   -0.4515474602    0.2421289062
 C   -1.9449506452   -1.1765412960   -0.9772167861
 C   -1.6955800932   -1.9368568041    0.3012851493
 N   -0.5726550709   -2.8313043782    0.3247359451
 C   -0.3739226691   -3.6604599071    1.5091506115
 C   -0.7788736940   -4.2784610366    0.2123818091
 C   -2.1431371071   -4.9070323977    0.0314578645
 H    1.1203264207    1.8540381293   -0.3898990161
 H   -0.2015010548    1.4034350237   -1.4787680236
 H   -0.5541680293    2.2112690909    0.0522749592
 H    0.6623687533   -0.6139928761   -0.2116139278
 H    0.3259501424    0.1963154986    1.3047710571
 H   -2.1488093334    0.1626513455    0.7665527315
 H   -2.9679184919   -1.0136528448   -1.2983912880
 H   -1.2391312650   -1.3562008115   -1.7816458531
 H   -2.5764387186   -2.2307939323    0.8748691170
 H    0.6457561407   -3.7360138783    1.8790279122
 H   -1.1345332464   -3.6180282262    2.2890373021
 H    0.0029216068   -4.7597049984   -0.3747557610
 H   -2.8930529347   -4.4757911206    0.6989167102
 H   -2.4984235018   -4.7901472736   -0.9981455494
 H   -2.0885209228   -5.9800271721    0.2441203463