17

 C    1.3793978529   -0.6672773584    0.2705745908
 N    0.0451583999   -0.1099935815    0.0804810783
 C   -1.1602126191   -0.7447287470   -0.0184995105
 N   -2.3040469253   -0.1815755056   -0.1868685016
 C   -2.3490888131    1.2602193574   -0.2840961649
 C   -1.1960210842   -2.2513905624    0.0735982056
 O   -0.2037900163   -2.9341299686    0.2324627753
 C   -2.5094194927   -2.8557949333   -0.0402803080
 C   -3.5316530712   -3.4861408237   -0.1187322773
 H    2.0799148556    0.1711914109    0.2977265658
 H    1.4642036331   -1.2242555860    1.2064088010
 H    1.6664959531   -1.3366283302   -0.5434966971
 H   -0.0015708356    0.8914176916    0.0114782143
 H   -1.9636660195    1.7542200330    0.6243132966
 H   -1.7599343089    1.6418769998   -1.1355811557
 H   -3.3821050754    1.5863927512   -0.4244901780
 H   -4.4492037934   -4.0172127870   -0.1913206048