15

 O    0.1023033478    1.4036678559    0.1866655616
 C    0.0602506039    0.0145483189   -0.0462838805
 C   -1.3792308100   -0.5041487236   -0.0015191985
 O   -1.8383674661   -0.2630030368    1.3154867250
 C   -3.0480772542   -0.7626247307    1.6735709920
 N   -3.4979974123   -0.5113213875    2.8218354445
 C   -2.2335542663    0.2031078124   -1.0518477719
 O   -3.2943465785    0.7172369426   -0.8264857695
 H   -0.3359611733    1.5602110310    1.0321133566
 H    0.4831215841   -0.1587111585   -1.0412333505
 H    0.6589252500   -0.5513759013    0.6814523596
 H   -1.3851551701   -1.5823306755   -0.2385642432
 H   -3.5152843064   -1.3801427561    0.8987269752
 H   -4.3983526943   -0.9673110278    2.9522627794
 H   -1.7911163443    0.1823129971   -2.0727742797