17

 O   -0.0124177042    0.0332169049    0.2369793934
 C    0.0774104163    1.1818844737   -0.1049285118
 C    1.3024081538    2.0197868652   -0.0073013927
 C    1.0857270763    3.5104770874    0.1576429272
 C    1.5469684061    2.9764670791   -1.1829109443
 C    2.9717671335    3.1046776986   -1.5665497445
 C    3.9453793941    2.6545218612   -0.7756495015
 C    3.6446336171    1.9670979579    0.5265508594
 O    2.3663119597    1.3383518831    0.5535419266
 H   -0.7845839665    1.7359465058   -0.5460954527
 H    0.0643824284    3.8657046264    0.2477470216
 H    1.8091829381    4.0578903717    0.7501216750
 H    0.8210735993    2.9785348847   -1.9896759582
 H    3.1962699896    3.5719814920   -2.5203176069
 H    4.9897721496    2.7620058097   -1.0503193007
 H    4.3605772618    1.1597321570    0.7107530953
 H    3.7383309668    2.6683966714    1.3734387947