16

 O    0.0714080737   -0.1437159367   -0.0001656915
 C    0.0930490266    1.0476652554   -0.1820770104
 C    1.3344217472    1.8717045234   -0.1096227120
 C    1.7297404201    2.6263451693    1.2241619857
 C    3.1180742902    2.4880465562    0.5235158543
 N    2.6675560432    1.1893235559   -0.0902335258
 C    2.9108514303    3.4623490522   -0.6672691545
 O    2.7450806214    2.8389289105   -1.9429021291
 C    1.5940081664    3.0239244607   -1.1283069560
 H   -0.8402022020    1.6213511831   -0.3850063211
 H    1.3156788475    3.6247181637    1.4073177796
 H    1.6237085369    1.9908493191    2.1075961692
 H    4.0639729670    2.5064979829    1.0625720736
 H    2.6187375915    0.4876723295    0.6486081815
 H    3.2746100117    4.4834710728   -0.6550768701
 H    0.7951262783    3.6512347420   -1.5086419035