19

 C    0.2094088907    1.4183788152    0.1197495832
 C    0.0818418824   -0.0299962325    0.0393968892
 C   -0.0322165098   -1.2294667422    0.0045830642
 C   -0.1760116885   -2.6921774669   -0.1053507720
 O   -1.5308685166   -3.0791579206   -0.2821311897
 C    0.6737869638   -3.2010331126   -1.2629594966
 O    0.2317004372   -2.6878749121   -2.4947998815
 C    2.1361022598   -3.4936663090   -1.0773050589
 C    1.1370831050   -4.6188967230   -1.2919759785
 H    1.2070701655    1.7489776543   -0.1893328959
 H   -0.5210050562    1.9176894202   -0.5262194823
 H    0.0437829522    1.7731398216    1.1427637016
 H    0.1553580381   -3.1650928104    0.8261948299
 H   -1.7378788687   -2.8778585391   -1.2043413053
 H    0.3888451617   -1.7343437990   -2.4702794580
 H    2.7913895129   -3.2476807358   -1.9051860729
 H    2.5737462440   -3.3644433210   -0.0929792192
 H    0.8835433806   -5.2601932353   -0.4552719220
 H    1.1378890560   -5.1071068320   -2.2594377451