20

 C   -0.1813929549    1.4939730028    0.1442740105
 C    0.2099714285    0.0102452197    0.0406374464
 C    0.7965959697   -0.4701225966    1.3810176522
 C   -1.0277432636   -0.8332856107   -0.3169505010
 N    1.2206623182   -0.2982868909   -0.9830246195
 C    1.7368423042    0.5908172747   -1.6986937647
 O    2.6835040683    0.3271720653   -2.6622153715
 C    3.3758185608   -0.8575120961   -2.6158815840
 O    4.1093191808   -1.1696019258   -3.5005972779
 H    0.6740466040    2.1235154315    0.4113712720
 H   -0.6083652498    1.8681368346   -0.7921983600
 H   -0.9380648503    1.6215351836    0.9235500326
 H    0.0597111996   -0.3609467530    2.1827743007
 H    1.0876630729   -1.5217051036    1.3148989054
 H    1.6833318640    0.1131456743    1.6484857842
 H   -1.4547147475   -0.5103592633   -1.2714485924
 H   -0.7565666658   -1.8883263594   -0.4061949784
 H   -1.7966500828   -0.7324720273    0.4553085509
 H    1.5260387136    1.6608372951   -1.7039166164
 H    3.1786426199   -1.4234599748   -1.6967603689