22

 C    0.0853258347    1.5225618896   -0.1478592510
 C   -0.0237763385    0.0070113984    0.0066874111
 C   -1.4721398836   -0.4763125808   -0.0170833847
 O   -2.4153741429    0.2461591005   -0.3006374771
 N   -1.6523386600   -1.7834336234    0.3136466261
 C   -0.7448044649   -2.9316950757    0.3978542005
 C   -1.9915398110   -3.8596489702    0.3851327006
 C   -2.8727490775   -2.5924414812    0.1583143633
 C   -3.9843100596   -2.3026325117    1.1539433742
 H    1.1334477626    1.8345459190   -0.1699438786
 H   -0.4001008871    1.8512445398   -1.0692713592
 H   -0.4117307635    2.0354290625    0.6796609580
 H    0.5179420082   -0.5023149824   -0.8026504212
 H    0.4512763637   -0.3313835087    0.9360696086
 H   -0.0859665245   -3.0417022889   -0.4725343852
 H   -0.1300710884   -2.9617222771    1.3043313835
 H   -2.0149680042   -4.6024866506   -0.4124112227
 H   -2.1818379647   -4.3525553258    1.3403325425
 H   -3.2652946441   -2.5199749013   -0.8640317671
 H   -3.6149936419   -2.3741463054    2.1823395461
 H   -4.3746239281   -1.2950766652    0.9931823943
 H   -4.8020183747   -3.0207713914    1.0285402981