21

 C   -0.1060062360    1.5219024964   -0.0227931028
 C    0.0146604224    0.0275156422   -0.0320003328
 C    0.9201073215   -0.8252339865   -0.9248534206
 C    0.0856557107   -2.0320854433   -0.4191030000
 C    0.0289659298   -3.3635753522   -1.0997507048
 O    0.4591394204   -2.0997850520    0.9943587650
 C   -0.2885582639   -0.8920572834    1.1756064606
 C   -0.6200833345   -0.4672167258    2.5658348455
 C   -1.0904364332   -1.0360269849   -0.0767497365
 H    0.8196048993    1.9927375292    0.3291532024
 H   -0.3140054000    1.9101331417   -1.0267452114
 H   -0.9170101502    1.8590292918    0.6313321692
 H    0.7375814114   -0.6171803877   -1.9838617302
 H    1.9960034959   -0.8601377636   -0.7196966866
 H    1.0162168636   -3.8381614242   -1.0780341351
 H   -0.6808329708   -4.0271588308   -0.5975852406
 H   -0.2750508222   -3.2498093330   -2.1447355687
 H    0.2929906117   -0.2618951333    3.1353884329
 H   -1.2293813057    0.4406983222    2.5603671757
 H   -1.1782005235   -1.2510859345    3.0874728920
 H   -2.1480000369   -0.9983861883   -0.3043918230