20

 C   -0.2213899382    1.5667519699    0.0477812028
 C    0.0021696234    0.0458604305   -0.0235908997
 C    0.7994798507   -0.5063741379    1.1781702862
 C    2.2560370348   -0.0366497807    1.2307224558
 C    2.9446244452   -0.4814798231    2.5225571396
 N    4.2946622638   -0.6519186262    2.4235968363
 O    2.3428383613   -0.6433875783    3.5663514164
 C   -1.3480972362   -0.6451875543   -0.0578308936
 O   -1.7464925393   -1.3516429192   -0.9470054107
 H    0.7274532981    2.1095370718    0.0602674714
 H   -0.7920488620    1.9200928825   -0.8163343970
 H   -0.7735016274    1.8398941593    0.9541749617
 H    0.5103951225   -0.2139496648   -0.9593537777
 H    0.3145453991   -0.2272697416    2.1194931950
 H    0.7871369054   -1.6022717003    1.1429141133
 H    2.8120610265   -0.3915319735    0.3547396140
 H    2.3095703755    1.0590077203    1.2086086133
 H    4.7916107168   -0.5493269751    1.5570251822
 H    4.8052953083   -0.9168272464    3.2498680296
 H   -1.9780254083   -0.4463708530    0.8430277411