13

 O   -0.0534383859    1.3804075233   -0.0805703217
 C    0.0221268296   -0.0090782861   -0.0079110125
 C   -0.4385455410   -0.6735865098    1.2699898967
 C   -1.3395894684   -0.7016551455    0.0456510067
 C   -2.5342883313    0.0937548832    0.0158353492
 N   -3.5135565633    0.7078650474   -0.0114538524
 C    1.0635756818   -0.6296087597   -0.7867518710
 C    1.9570302086   -1.1239319691   -1.4211510124
 H    0.7593004468    1.7442856752    0.2892047117
 H    0.0199840138   -1.6072773990    1.5715998952
 H   -0.7289056807   -0.0011587322    2.0682163308
 H   -1.4119817711   -1.6407009644   -0.4906549938
 H    2.7388902113   -1.5602390732   -1.9930938666