18

 O   -0.0004923158    1.4247917409   -0.0027012098
 C    0.0437708960    0.0037891939   -0.0376823078
 C    0.8557609488   -0.5588954022    1.1442384121
 C    0.8331293980   -2.0811879279    1.2093675876
 N   -0.0151607663   -2.6852576274    2.2565796779
 C   -0.4279680866   -2.7814732428    0.8479620526
 C   -1.6001119665   -1.9540629721    0.3924409177
 O   -1.9713771670   -0.8266939654    1.1831979312
 C   -1.3542145280   -0.5836923123   -0.0898295119
 H   -0.4582100781    1.6744732001    0.8086985763
 H    0.5440963712   -0.2353732337   -0.9854230665
 H    1.8802199443   -0.1849865254    1.0676381411
 H    0.4240279085   -0.1688663285    2.0709992430
 H    1.7637132143   -2.5894547172    0.9692075419
 H    0.3791221860   -3.5738656079    2.5553607261
 H   -0.3577418780   -3.7494010845    0.3562638341
 H   -2.4457834888   -2.5089648927   -0.0138480710
 H   -2.0121944221   -0.1472831849   -0.8410459047