18

 C    0.0195912611    1.5923153173    0.2060480818
 N    0.0569197779    0.1491131110    0.1720017639
 C   -1.2117369144   -0.6016455197    0.2386498954
 C   -0.5411816624   -1.6225689066    1.1905537031
 C    0.6344136611   -0.5926811641    1.3122307190
 C    1.6727483854   -1.6202900187    0.8076364743
 O    2.4403649530   -2.1402714974    1.8783683569
 C    0.4676136850   -2.5713755507    0.5180130035
 O    0.4014434798   -3.6813344621    0.0751660388
 H    1.0395815962    1.9885259828    0.2432638804
 H   -0.4522595178    1.9713987451   -0.7066760032
 H   -0.5384232322    1.9967131266    1.0717443619
 H   -2.0145719582   -0.0520504507    0.7553774773
 H   -1.5922458128   -0.9649485968   -0.7219920409
 H   -1.1251028397   -2.0300466631    2.0140192949
 H    0.8631691154   -0.0339776694    2.2225695746
 H    2.2829556301   -1.2954851721   -0.0441035151
 H    2.7519717525   -3.0142886215    1.6161712836