16

 C    0.0248903240    1.5537441616    0.0115696785
 C    0.0979261788    0.0440334736    0.0550502632
 C    1.3401053803   -0.7478505496   -0.1541233676
 O    2.4858737779   -0.0179953543    0.3675452912
 C    1.9641039955   -0.1190833567    1.6540954653
 O    2.4872652923    0.2030000499    2.6706951735
 C    0.6881816903   -0.7957214851    1.2126563150
 C   -0.0599466574   -1.8429957080    1.9834570311
 H    0.9663523530    2.0080727290    0.3268103026
 H   -0.1863794706    1.8933436972   -1.0078144414
 H   -0.7733298724    1.9243613208    0.6618225885
 H   -0.7834046029   -0.4602936782   -0.3418281596
 H    1.5461127365   -1.5217109805   -0.8808644647
 H   -0.6000929188   -1.3949689737    2.8238891176
 H   -0.7930504067   -2.3472388146    1.3468814717
 H    0.6184729602   -2.6003176813    2.3884160150