19

 C   -0.0281388664    1.5409213954    0.0443263192
 C    1.5141529894    1.5300808444   -0.0568574500
 C    2.2228120677    0.9741461676    1.2623444210
 C    1.4169743237    1.0547452108    2.5346561435
 C    0.4694286165    0.1078701048    2.5393690000
 C    0.5431389613   -0.7043474089    1.2707011757
 C   -0.0188657175   -0.0018627255   -0.0492297960
 C    1.4448137564    0.0636561949   -0.6142566278
 C    1.9861390447   -0.4713058549    0.7407950547
 H   -0.4871929944    2.0046715238    0.9226361471
 H   -0.4654725862    1.9740524073   -0.8609337090
 H    2.0148395111    2.3595331533   -0.5571040462
 H    3.2607546673    1.3041523238    1.3365278802
 H    1.5484168277    1.8205154695    3.2912829571
 H   -0.2926584764   -0.0192539670    3.3004396367
 H    0.2127873645   -1.7416708099    1.3516924199
 H   -0.8511427043   -0.5044367211   -0.5428480150
 H    1.7545853658   -0.2512842356   -1.6082078329
 H    2.7511521690   -1.2361399726    0.8838469619