20

 O   -0.0019726763   -0.0620382108   -0.0890227430
 C   -0.0329234381    1.1412727317    0.0358938617
 C   -1.3459943602    1.9086634053    0.1426649211
 C   -1.9171633729    2.2965890923   -1.2436310961
 C   -0.8839410630    2.7653612623   -2.2892867029
 C    0.2899582052    3.6157629546   -1.7624068775
 C    1.4720354710    2.7811616778   -1.2378573513
 C    1.2336368114    1.9895441682    0.0678236366
 H   -2.0694446969    1.2799173434    0.6687099888
 H   -1.1875075341    2.8133928218    0.7381442216
 H   -2.4564500532    1.4367982968   -1.6536725443
 H   -2.6634072312    3.0831940892   -1.0853118987
 H   -0.4634768705    1.8877616683   -2.7971985817
 H   -1.4204867623    3.3253548605   -3.0629965094
 H    0.6666465066    4.2347312062   -2.5845198717
 H   -0.0563081161    4.3193465414   -0.9931633795
 H    1.7673097413    2.0742399695   -2.0233637930
 H    2.3345174940    3.4371928670   -1.0750069467
 H    1.1574880157    2.6948866857    0.9050522034
 H    2.0819770697    1.3257812188    0.2540274925