24

 C   -3.4159626223    1.9147561944    1.2930993741
 C   -2.9611692861    0.5792275257    0.6971389553
 C   -2.9799854954   -0.6050693004    1.6836117028
 C   -4.3940119424   -0.9646866850    2.1620369325
 C   -2.3261063869   -1.8111783824    1.0338547348
 N   -0.8552325242   -1.8386595574    0.9606074702
 C   -1.5639257687   -2.8768579645    1.7417963596
 C   -1.2310028373   -2.8816149336    3.2164731755
 O    0.1187708930   -3.2638744140    3.4248535148
 H   -3.3172716766    2.7215950171    0.5601080270
 H   -4.4626287469    1.8899018420    1.6119258345
 H   -2.8092057669    2.1840403652    2.1650312044
 H   -3.5877530043    0.3315025393   -0.1715681051
 H   -1.9370804674    0.6841546407    0.3200589864
 H   -2.3754916614   -0.3172511001    2.5518834359
 H   -4.3723501280   -1.8086570016    2.8590208566
 H   -4.8736935344   -0.1250477815    2.6721796457
 H   -5.0332042679   -1.2487370185    1.3170722337
 H   -2.8576850460   -2.1519872754    0.1429727120
 H   -0.5442159044   -2.2125254406    0.0687788721
 H   -1.6036327727   -3.8718601704    1.3005077240
 H   -1.4357003726   -1.8977309561    3.6604827669
 H   -1.8468288789   -3.6187961616    3.7427371041
 H    0.6431943287   -2.6621755113    2.8825478724