18

 C   -0.0322782692    1.5625535210    0.0651084529
 C    0.0010395602    0.0334760225    0.1296383778
 C   -1.3895427437   -0.5817618402   -0.0845340207
 N   -1.4152666011   -2.0333756192   -0.0390121172
 C   -1.2423025569   -2.7028094662    1.2385345222
 C   -1.6216297604   -2.7750198514   -1.1647862172
 O   -1.6539730637   -3.9867893720   -1.2209081741
 H    0.9642301029    1.9859466372    0.2189565584
 H   -0.3958266650    1.9122101467   -0.9075693391
 H   -0.6927262039    1.9790088840    0.8337927793
 H    0.6822039990   -0.3642705898   -0.6321088967
 H    0.3993821683   -0.2848787497    1.0999989943
 H   -2.0864205649   -0.1884641965    0.6697022031
 H   -1.7766397064   -0.2712954781   -1.0618225288
 H   -1.9707887856   -2.3291509558    1.9682532090
 H   -1.3996946232   -3.7693594061    1.0770840680
 H   -0.2362064737   -2.5486330166    1.6444096496
 H   -1.7651255327   -2.1302362200   -2.0546855806