20

 C   -0.5956412960    1.7040904544    0.0748040283
 C   -0.0435137097    0.2768006968    0.0559319623
 C    1.1988066944    0.0089254166   -0.8649283593
 C    1.8158274741   -0.8255758689    0.2898187445
 O    3.1979112874   -0.7668074767    0.5279544001
 C    0.8240229173   -0.1522670997    1.2726969163
 C   -1.1556044141   -0.7510666502   -0.2053173750
 N   -1.8504100266   -0.5641998462   -1.3697692464
 O   -1.4219915969   -1.6604173860    0.5572063405
 H    0.2081258498    2.4163883701    0.2868126945
 H   -1.0475036559    1.9916916339   -0.8804575927
 H   -1.3615294922    1.8194460360    0.8492767195
 H    1.0399537542   -0.4803695946   -1.8297543677
 H    1.7638497429    0.9340247212   -1.0281592753
 H    1.5809208160   -1.8864092506    0.1727283092
 H    3.4331690272    0.1518535035    0.6963597986
 H    1.2774925312    0.7213915901    1.7543432243
 H    0.3396996637   -0.7816532064    2.0183580817
 H   -1.5338773832    0.0729888225   -2.0794375415
 H   -2.5084799939   -1.2792186056   -1.6348529619