17

 O    0.1077899531    1.4003073738   -0.1591580991
 C    0.0442751027    0.0182140528    0.0487249308
 C   -0.1217213011   -0.5119724081    1.4920064850
 O   -1.3659131840   -1.1730462194    1.1521136696
 C   -1.3128776231   -0.7050582809   -0.2161215394
 C   -2.4641081402    0.2058328509   -0.5595414209
 C   -3.8225257385   -0.0372012804   -0.0322162925
 N   -3.0134344312    1.0869590866    0.4932445873
 H   -0.7155464253    1.8005871979    0.1486747996
 H    0.8935505968   -0.4104050145   -0.4866687101
 H    0.6326627627   -1.2257036012    1.8412309322
 H   -0.2573673108    0.2721621839    2.2478297050
 H   -1.2590545944   -1.5436249956   -0.9225240981
 H   -2.3624690340    0.6901336372   -1.5285337864
 H   -4.6896489877    0.2519939874   -0.6179727321
 H   -3.9629322734   -0.8940938064    0.6197118177
 H   -2.6360943315    0.7635271159    1.3841834314