19

 C   -0.0285357405    1.6151244346   -0.0612644561
 C    0.0199446132    0.0828866249    0.0011217593
 C    0.7874558621   -0.4470664316    1.2227607513
 C    2.2665683899   -0.0762625129    1.2489361586
 O    2.8481377448   -0.7524859653    2.3529411064
 C   -1.4086378348   -0.5170307103    0.0117783133
 C   -2.1803913474   -0.1874809706   -1.1844853915
 N   -2.7732946261    0.0801874276   -2.1398896189
 H    0.9720659110    2.0426239076   -0.1652356200
 H   -0.6235297930    1.9553295771   -0.9136867982
 H   -0.4762838654    2.0288786109    0.8503049413
 H    0.5172635610   -0.2853912255   -0.9059796412
 H    0.3177156495   -0.0844636623    2.1464239651
 H    0.7266074257   -1.5418510691    1.2511837845
 H    2.7402785927   -0.3783174767    0.2997919881
 H    2.3908789965    1.0127210931    1.3440531062
 H    3.7739160516   -0.4987091904    2.4087650934
 H   -1.3581866210   -1.6082943091    0.0978628992
 H   -1.9583285399   -0.1568869221    0.8903716793