21

 O    0.2405815010    1.4260250478    0.1180448874
 C    0.0368585645    0.0232862624   -0.0336437765
 C    0.7128125088   -0.7615672479    1.1000753253
 C    0.2696179359   -0.4103204523    2.5035927109
 C   -0.8229531090    0.2280609227    2.9383916083
 C   -1.9731380628    0.8108275365    2.1425320571
 C   -2.4140939404    0.0026680810    0.9294372845
 C   -2.5114523586    0.6375699874   -0.4403769685
 C   -1.4308349460   -0.3670829537   -0.1500754736
 H    0.3620419256    1.6015649756    1.0574106581
 H    0.5306320255   -0.2423160068   -0.9779126693
 H    0.5581526532   -1.8363790046    0.9264846272
 H    1.7986201079   -0.6085198505    1.0374303649
 H    0.9762496809   -0.7310278828    3.2679862738
 H   -0.8929424119    0.3827836680    4.0140954574
 H   -2.8293459095    0.9360686868    2.8152426683
 H   -1.7109143171    1.8295054106    1.8274472976
 H   -3.1566919359   -0.7570384786    1.1578970852
 H   -3.3276729318    0.3516494436   -1.0947708219
 H   -2.1951035186    1.6712931944   -0.5252407009
 H   -1.5564037416   -1.3566327396   -0.5841133553