19

 C   -0.1150373067    1.5401910715    0.0217722694
 C    0.0513666216    0.0276039301   -0.0006024858
 C    1.1528513170   -0.5718015435   -0.9214190811
 O    0.8310258658   -1.8857015324   -1.4459543977
 C    1.6970799055   -2.5475418598   -0.4862367792
 C    1.8680017834   -1.2466403674    0.2756514506
 C    2.8881222157   -0.5409928533    1.1472743555
 O    1.8256908423    0.2088120962    1.7950576735
 C    0.7933475172   -0.6236356828    1.2040373573
 H    0.8265792693    2.0325277348    0.2785627202
 H   -0.4469324820    1.9078314499   -0.9547699448
 H   -0.8587803514    1.8423207388    0.7663860969
 H   -0.9021787306   -0.4736784356   -0.1965273971
 H    1.6380742955    0.0678628476   -1.6666735530
 H    1.1972618794   -3.3762655558    0.0290508906
 H    2.6114453615   -2.9222697144   -0.9674832929
 H    3.4103854103   -1.1882058981    1.8658717975
 H    3.6181345298    0.1090587890    0.6509310217
 H    0.2218122565   -1.1645055649    1.9651485985