18

 C    0.0022582245    1.4624491371   -0.0312721689
 C    0.0275770667   -0.0389508085   -0.0578392532
 C    0.5647016794   -0.9675889150   -1.1694926079
 C    0.0556336894   -1.9363710125   -0.0831111322
 C    0.0663285179   -3.3739643995   -0.0800710797
 N    0.0777205950   -4.5311134380   -0.0834644727
 C    0.5377703625   -0.9985396444    1.0870438605
 C   -0.8383249002   -1.0337074125    1.7784585954
 C   -1.1694772851   -1.0129600936    0.2741861937
 H    1.0151381392    1.8725589465   -0.1072850801
 H   -0.5821001441    1.8590859631   -0.8685881976
 H   -0.4429488825    1.8384302289    0.8961243019
 H    0.0180549188   -0.9742227223   -2.1174634756
 H    1.6451847370   -0.9604893910   -1.3427584589
 H    1.5389571844   -1.0131525698    1.5200567719
 H   -1.0910416179   -1.9460427251    2.3254187624
 H   -1.1200904276   -0.1480699040    2.3545418662
 H   -2.1364460174   -1.0442021994   -0.2298809551