20

 C    0.0511186368    1.5261933790    0.1658128367
 C   -0.1348602291    0.0281253476   -0.0960972389
 C    0.7081389257   -0.4805744161   -1.2582093100
 C    2.2741317990   -0.5577637591   -1.1038401489
 C    2.2000829327   -2.0564283242   -1.4001075109
 N    1.3496909381   -2.6462352955   -0.3510631845
 C    0.7050464451   -2.0019218780   -1.5377987668
 C   -0.1727198452   -2.7214693791   -2.3909819597
 C   -0.9358275436   -3.3064365126   -3.1161680972
 H    1.0930430394    1.7631821085    0.4077650508
 H   -0.2280235121    2.1224533661   -0.7104091905
 H   -0.5668527535    1.8598007906    1.0051099780
 H    0.1202949935   -0.5473828117    0.7997308997
 H   -1.1915115451   -0.1784990673   -0.3109655157
 H    0.4552871411    0.0548855485   -2.1787437109
 H    2.8031275748    0.0144049617   -1.8680626913
 H    2.6748027187   -0.3119882531   -0.1170426624
 H    2.9059185752   -2.6652090452   -1.9519739490
 H    1.3120990480   -3.6523277445   -0.5151750743
 H   -1.6040775993   -3.8252589456   -3.7577441543