17

 C   -0.0072040065    1.5520345523    0.0045117796
 C    0.0162247722    0.0480423673    0.0512759902
 C    0.4993518911   -0.7420300933   -1.1772914812
 O    0.4078571749   -2.1201699305   -0.6961098457
 C   -0.1525596442   -1.9554837677    0.6215103509
 C    0.7419900279   -0.8106600629    1.1833157843
 O    2.1225270991   -0.9873252777    1.1165046186
 C   -1.1944337058   -0.8354358124    0.4175628757
 O   -2.3586572694   -0.6650659406    0.6186507975
 H    1.0068883574    1.9536376189   -0.0941808309
 H   -0.5984413657    1.9130652211   -0.8436405256
 H   -0.4499968980    1.9637008774    0.9161574054
 H   -0.1403944004   -0.6108340624   -2.0564778054
 H    1.5369745953   -0.5161774833   -1.4463223836
 H   -0.3218400902   -2.9179669608    1.0962108661
 H    0.4686823600   -0.4778973680    2.1872197485
 H    2.2824998022   -1.6536033273    0.4344162656