23

 C   -0.0186922321    1.6277083244   -0.0508608038
 C   -0.0332138950    0.0992679134   -0.1297489372
 C   -1.4267371611   -0.4965833825    0.1114132735
 C   -1.4527615169   -2.0192864676    0.0136807402
 C   -2.8028798061   -2.7987607843    0.1345019914
 C   -2.4172010088   -3.6920442971   -1.0887081939
 C   -3.4257518672   -3.9873569171   -2.1896029532
 C   -1.3105175763   -2.6635505077   -1.3777277595
 O   -0.7051837605   -2.3663673334   -2.3700190196
 H    0.9865474307    2.0253278157   -0.2214268823
 H   -0.6818314771    2.0689739575   -0.8033301178
 H   -0.3539976699    1.9798463070    0.9314917271
 H    0.3254947051   -0.2297336475   -1.1108829483
 H    0.6665848960   -0.3135195880    0.6094522249
 H   -1.7951677974   -0.1941905728    1.1012673409
 H   -2.1326398442   -0.0784582086   -0.6190369486
 H   -0.7026700614   -2.4550864223    0.6875819294
 H   -2.9883350365   -3.3131605974    1.0784316100
 H   -3.6579641444   -2.1552685160   -0.0938602981
 H   -1.9479275795   -4.6212238265   -0.7396974147
 H   -3.9066740459   -3.0673440182   -2.5376219622
 H   -2.9313057838   -4.4489690655   -3.0495366844
 H   -4.2087435277   -4.6675636154   -1.8397184739