21

 C    0.3140893496    1.1649410405   -0.0489320375
 C    0.1050345652   -0.3269651835    0.1140144036
 O    1.0475705769   -1.0966262200    0.1263677628
 C   -1.3336819303   -0.8031815634    0.2238883910
 C   -1.9195590440   -0.9913576244   -1.2212177363
 C   -2.4553357175   -2.4419548580   -1.2700442223
 C   -1.5854376950   -3.1951628390   -0.2601680045
 C   -1.4809273380   -2.2038838891    0.9116422135
 O   -0.5156055135   -2.5083315847    1.8863649052
 H    1.3565882778    1.3761624634   -0.2897422119
 H   -0.3442202278    1.5713986384   -0.8240474458
 H    0.0483773582    1.6691411137    0.8880641496
 H   -1.9045195794   -0.0434834648    0.7662409404
 H   -2.6888681584   -0.2498791198   -1.4494608598
 H   -1.1282691370   -0.8674770854   -1.9684872590
 H   -3.5035379569   -2.4656924045   -0.9490383093
 H   -2.4183480879   -2.8604527310   -2.2791419763
 H   -1.9981094887   -4.1587703926    0.0490858373
 H   -0.5829316459   -3.3707863997   -0.6691806401
 H   -2.4387741715   -2.2014621447    1.4466636556
 H    0.3428322139   -2.4064705617    1.4513928039