17

 C   -0.4335058596    1.3589146471    0.4318340429
 N   -0.0024348352   -0.0123490193    0.2031598267
 C    1.3410016909   -0.2396219966   -0.3120053978
 C    0.9779908782   -0.6405772964    1.0777415796
 C    1.6222016754    0.0704256789    2.2676536347
 C    0.7779241406    0.0680047035    3.4533207678
 C    0.0669868684    0.0502245632    4.4302087727
 C   -0.7331868415    0.0348512366    5.5361001073
 N   -1.4140016308    0.0226606711    6.4774368655
 H    0.3753645637    2.0590150568    0.6957022464
 H   -0.9045158454    1.7296187886   -0.4833677854
 H   -1.1803094460    1.3758522621    1.2310066217
 H    1.4399431737   -0.9811310015   -1.1002608123
 H    1.9992603980    0.6239370365   -0.4173463372
 H    0.7629353997   -1.6879839437    1.2812526620
 H    2.5675190534   -0.4352175201    2.5050410954
 H    1.8861565164    1.1025813831    2.0139458500