15

 C   -0.0226683929    1.4321362824    0.0216619827
 C    1.4329614556    1.9115494536    0.0096223191
 C    2.2123185888    1.2550538907    1.1265085093
 O    1.5973525181    1.2808547459    2.4181270768
 C    1.6852036287    0.0225798472    1.7320605080
 C    0.3761081031   -0.5610678481    1.2274198674
 O   -0.0826037802    0.0148312940    0.0179760974
 H   -0.5455184268    1.8398639109    0.8994174161
 H   -0.5474444067    1.7640774060   -0.8779513480
 H    1.9007826003    1.6461563043   -0.9460284369
 H    1.4764217232    3.0031457399    0.1070697888
 H    3.2886151184    1.4289423193    1.1376390911
 H    2.3737045250   -0.6838801467    2.1954222724
 H    0.5042039428   -1.6286391933    1.0219943504
 H   -0.3826410773   -0.4558181161    2.0209262453