18

 N   -0.5678224518    1.0796759022   -0.1376597327
 C    0.0392759301   -0.2583566589    0.0207435721
 C    0.7686802502   -0.7044911237   -1.1700882267
 C    1.3542102679   -1.0586899654   -2.1587677134
 C    0.9620802205   -0.2561226115    1.2739370634
 N    1.8825983263    0.8916815729    1.2088396705
 C    0.1831635504   -0.3014171342    2.6044879057
 N   -0.8121598898    0.6237656969    2.7093481275
 O    0.4979117425   -1.0615161725    3.5012178807
 H    0.1842212637    1.7251005671   -0.3695813428
 H   -1.1976477621    1.0724635108   -0.9341854561
 H   -0.7774501103   -0.9660399871    0.2114746488
 H    1.8743853317   -1.3740345763   -3.0293111372
 H    1.5498094293   -1.1741830121    1.2538006045
 H    1.4923685240    1.6729115101    1.7271569331
 H    2.7558327861    0.6562844094    1.6668211396
 H   -1.1248185769    1.1108110210    1.8753683873
 H   -1.3736046820    0.6150601712    3.5458130955