14

 N    0.4771345844    0.3537179552    1.0324579656
 C   -0.0434655773    0.1772094743   -0.2106999306
 O    0.4869318326    0.5291751205   -1.2483715564
 C   -1.3506057925   -0.5349534990   -0.2336330609
 O   -2.0967338914   -0.7803945122    0.9645196716
 C   -1.7298005229   -1.9007666165    0.1682932570
 C   -2.7120591819   -1.9872393833   -1.0692825198
 O   -3.6334528561   -0.9060127120   -0.9732396255
 C   -2.3264607357   -0.6355805560   -1.4699915139
 H    1.3231273890    0.8913160917    1.1247816183
 H   -0.0931803490    0.1746868617    1.8421879002
 H   -1.1407915217   -2.6916980225    0.6160742201
 H   -2.9859221422   -2.8662469804   -1.6377255018
 H   -2.1984069952   -0.1633812414   -2.4338706538