19

 O   -0.7193036215    1.1701626370    0.9849253424
 C   -0.0580420686    0.2493546562    0.1277933456
 C    0.5695659528   -0.9509441949    0.8858630088
 C   -0.7644435502   -1.7355227717    0.6700463637
 C   -1.1083913350   -0.7153664635   -0.4618813469
 O   -0.6259536597   -3.0903458582    0.2661140353
 C   -1.4082298362   -3.9471817470    1.0952850019
 C   -2.0761925268   -3.0286284108    2.0791686935
 C   -1.7088505663   -1.7767031628    1.8337612758
 H   -0.0485234463    1.6084281512    1.5187354973
 H    0.5888730258    0.7749447554   -0.5848998146
 H    1.3699420531   -1.4239287302    0.3105364826
 H    0.9069043379   -0.7777397642    1.9120421544
 H   -2.1307598021   -0.3372933645   -0.5262264796
 H   -0.7951555887   -1.1176939886   -1.4279098320
 H   -2.1309495264   -4.5052270825    0.4795237179
 H   -0.7585173110   -4.6906929922    1.5833298273
 H   -2.7494776984   -3.3743453607    2.8531501378
 H   -2.0117261025   -0.8774359180    2.3522002889