16

 C    0.0443536162   -1.1347589192   -0.0644558153
 C    0.0167750264    0.0682097464   -0.0161943905
 C   -0.0379809247    1.4857150543    0.0562968033
 C   -1.1355774831    2.3556354694    0.6829412606
 C   -0.4862881428    3.5444020094   -0.0712240475
 C    0.9003263442    3.7090488054    0.6126173346
 C    1.2461576242    2.3581350684   -0.0059212114
 C    0.1839717130    2.5037818205   -1.0589561299
 H    0.0716183746   -2.1948948672   -0.1084074489
 H   -2.1133226844    2.0916166907    0.2725460129
 H   -1.1942381918    2.4179605576    1.7754455438
 H   -1.0768424939    4.4109752810   -0.3578198399
 H    1.4867378709    4.5087213392    0.1513497040
 H    0.9167655611    3.8185383824    1.7028033081
 H    2.2100704571    1.8751928222   -0.0966081423
 H    0.1923297629    2.3733433494   -2.1310139616