20

 C    0.0742784130    1.4950776120   -0.0908783447
 C   -0.0183239477   -0.0278439649    0.0722899435
 C    0.7100275808   -0.5211268566    1.3286974865
 N   -1.4107509395   -0.4985826785    0.0341197733
 C   -2.3133707914   -0.1722438681    1.1233362946
 C   -1.8256086748   -1.2172408062   -1.0648034872
 N   -3.1434628035   -1.6713964329   -1.0146326123
 O   -1.1264303783   -1.4171082979   -2.0463402978
 H    1.1228919688    1.8062096535   -0.1346929713
 H   -0.4157709071    1.8120671660   -1.0153467857
 H   -0.3893574925    2.0300039964    0.7459682710
 H    0.4406618891   -0.4895599952   -0.8032817238
 H    0.2896776532   -0.0904968892    2.2446175027
 H    0.6576712553   -1.6110105071    1.4082612216
 H    1.7648648607   -0.2329199120    1.2874581951
 H   -3.2927280744    0.1269716673    0.7386390330
 H   -2.4543614287   -1.0040587677    1.8302116619
 H   -1.9130894605    0.6698305704    1.6909306241
 H   -3.5211154828   -1.9504673047   -0.1221347334
 H   -3.3231476396   -2.3329274246   -1.7550598812