20

 C    0.0034042398    1.5945018070    0.0008438115
 C    0.0290558699    0.0650946881   -0.0332761692
 C    0.7618918297   -0.4788910583   -1.2712518365
 C    0.8416686266   -2.0040988330   -1.2324946084
 O    1.4604120584   -2.4724672153   -0.0316102808
 C    0.8016655514   -2.0521844344    1.1450072410
 C    0.6857317916   -0.5181515152    1.2277883509
 C   -0.5298555965   -2.6965778494    1.2735615688
 N   -1.5682481219   -3.1948497287    1.3698997461
 H    1.0193912651    2.0042668025    0.0423794575
 H   -0.4826626220    1.9995359873   -0.8927204944
 H   -0.5417777515    1.9633889480    0.8759403849
 H   -1.0083262807   -0.2970063584   -0.0688576217
 H    0.2528597472   -0.1646479191   -2.1899715274
 H    1.7787204904   -0.0662076509   -1.3057413249
 H   -0.1631117321   -2.4434746450   -1.3265857224
 H    1.4592217026   -2.3971163921   -2.0437303391
 H    1.4165818038   -2.4229430797    1.9717997495
 H    1.7046348365   -0.1255326754    1.3299801463
 H    0.1313451918   -0.2383905780    2.1299824181