14

 N   -0.0280952751    1.4737361991    0.1468035468
 C   -0.0669977840    0.0814732745   -0.0131214553
 C   -1.1796991492   -0.6795239772   -0.0817569194
 N   -1.1077513438   -2.0396420778   -0.2876421239
 C    0.0714293215   -2.7236655289   -0.4729040712
 N    0.0919257621   -3.9719192812   -0.6775925708
 O    1.2027222287   -1.9454840865   -0.4148411133
 C    1.2257060586   -0.5779845569   -0.1763119595
 O    2.2934819572   -0.0275491035   -0.1199658932
 H    0.9209743869    1.7734074393    0.3370657752
 H   -0.6640915658    1.8296138514    0.8475312418
 H   -2.1783525748   -0.2746895253    0.0244707523
 H   -1.9407731965   -2.6027885039   -0.3288672033
 H    1.0467377141   -4.3025784629   -0.7886460061