21

 C   -0.0038980105    1.5706836368    0.3397123356
 C    0.1619999641    0.0856354414    0.0828218125
 C    0.6022466073   -0.6183732546   -1.1954855405
 C    1.7695549032    0.0517823971   -1.9341709489
 C    1.5547194820    1.3352475142   -2.7155991109
 O    2.8128470253    1.7073200065   -3.2667518409
 C    2.5947966052    0.0591272334   -0.6040384125
 C    1.4422148166   -0.6950161277    0.0806909169
 O    1.6386090760   -1.8151337539    0.8749766909
 H   -0.8535783128    1.9804280038   -0.2179549734
 H   -0.1931898526    1.7522249211    1.4040801992
 H    0.8823257375    2.1483434347    0.0681503466
 H   -0.6240756175   -0.5097903162    0.5469931074
 H   -0.0324341284   -1.3828319916   -1.6294653071
 H    2.2211032028   -0.6689964650   -2.6233729029
 H    0.8095658185    1.1531581228   -3.5082368992
 H    1.1564047282    2.1321868004   -2.0731005068
 H    2.6996381727    2.5341287031   -3.7442819735
 H    3.4968242647   -0.5509895511   -0.6715723044
 H    2.8642625689    1.0369242156   -0.1915666489
 H    1.6831845888   -1.5304863808    1.7942275907