15

 O    0.0017387454    1.4799633161   -0.0167845474
 C    0.0534682262    0.0569528064   -0.0484285973
 C    0.7274768456   -0.4474145762   -1.2433125767
 C    1.3267674047   -0.8237710461   -2.2141878819
 C    0.7133555977   -0.4792928424    1.2340104061
 C   -0.0258753426   -0.1875346391    2.5492453624
 O   -0.2245642751   -1.6237966478    2.7667069965
 C    0.4264688846   -1.9442881969    1.6016157769
 O    0.6196029955   -3.0235369441    1.1468622035
 H    0.8604090096    1.8107582881   -0.3039316267
 H   -0.9958318033   -0.2636958381   -0.0595081160
 H    1.8376564333   -1.1750792458   -3.0770310000
 H    1.7795126751   -0.2402874365    1.2373465607
 H    0.5660846499    0.2475313856    3.3557688593
 H   -0.9822433165    0.3291620470    2.4504173107