10

 C   -0.0131276895    1.3029835049    0.0098023310
 C    1.1840756110    2.0161220565    0.0017998571
 N    2.3712902603    1.4071747369   -0.0130311494
 C    2.3412924155    0.0731681362   -0.0197295035
 C    1.1440902337   -0.6399699239   -0.0117335292
 N   -0.0431257959   -0.0310220696    0.0031011054
 H   -0.9696466206    1.8195305987    0.0218948816
 H    1.1854464402    3.1032564599    0.0074803413
 H    3.2978119777   -0.4433776558   -0.0318094949
 H    1.1427176776   -1.7271041139   -0.0174249395