15

 O    0.1337704328    1.2325071280   -0.4299554668
 C   -0.1386796510   -0.0957355116    0.0026745589
 C   -1.6317703769   -0.1708373280    0.2859447065
 N   -2.3960829423    0.1683948061   -0.8982111802
 C   -3.3957882519   -0.6172520070   -1.3845924559
 O   -3.7728251969   -1.6532034351   -0.8646335471
 C   -3.9924484581   -0.0983734585   -2.6112408278
 C   -4.5068879509    0.3012836490   -3.6217192247
 H    1.0423860932    1.2744193980   -0.7408382911
 H    0.1275078134   -0.8291743104   -0.7723114689
 H    0.4190228882   -0.3438153094    0.9182275412
 H   -1.9227309225   -1.1789957334    0.5869726194
 H   -1.8757254104    0.5173049899    1.1058148612
 H   -2.1210715516    0.9938495725   -1.4070306134
 H   -4.9707541250    0.6436312100   -4.5144079814