19

 C    0.2260604409    1.5499010627   -0.0117232695
 C    0.0360878630    0.0182198320   -0.0191358350
 C    0.4865744177   -0.5814042805   -1.3308450975
 C    1.5949167808   -1.3108649172   -1.4554843103
 C    2.4358021576   -1.5578623266   -0.2386166853
 O    2.9630606442   -0.3021172870    0.3359320097
 C    2.1825719494   -0.5084618398    1.5117278166
 C    1.6323810405   -1.8249708008    1.0465935708
 C    0.7123902306   -0.6326682233    1.1923748284
 H    1.2877133591    1.7920684639   -0.1008106155
 H   -0.3092616380    2.0201787155   -0.8432361704
 H   -0.1549278394    1.9794749015    0.9209517934
 H   -1.0431761611   -0.1762058896    0.0656457715
 H   -0.1406056859   -0.3754827148   -2.1952872642
 H    1.9055271750   -1.7189737084   -2.4118919176
 H    3.2630456881   -2.2496588074   -0.4116867977
 H    2.5921292655   -0.1698605765    2.4562561016
 H    1.5007264624   -2.7825750782    1.5313071848
 H    0.0954630497   -0.6717028955    2.0876901162