20

 C   -0.0316816813    1.5150463408    0.0383458931
 C   -0.0018240261    0.0061955299    0.0017477073
 C    0.3455423206   -0.8052123064   -1.2851898846
 C   -0.3825102074   -1.9577596890   -0.5408482166
 C    0.5558399586   -2.2146448218    0.6528853836
 C    0.8427041626   -0.7339870372    1.0631813718
 C   -1.3332680770   -0.8410183116    0.0066176880
 C   -2.0575162204   -1.0407142023    1.2497091803
 N   -2.6173512049   -1.1965423978    2.2501574718
 H    0.9776858808    1.9252967888   -0.0788009911
 H   -0.6546180999    1.9252833933   -0.7631918457
 H   -0.4277435980    1.8771617203    0.9935188329
 H   -0.1977828252   -0.4515649520   -2.1651833146
 H    1.4030728099   -0.9455768632   -1.5243477737
 H   -0.7914946115   -2.8204645542   -1.0651592434
 H    0.0722516780   -2.7851578722    1.4494665213
 H    1.4566161787   -2.7535554937    0.3478506514
 H    1.9001883591   -0.4662982696    0.9829182408
 H    0.5134472091   -0.5073563904    2.0808071854
 H   -2.0215657257   -0.4886534416   -0.7659611578