18

 C   -0.1188019356    1.5669197328   -0.0536971445
 C    0.0072927750    0.0390279821    0.0095889942
 C    0.8895101938   -0.5082980414   -1.1486123801
 N    2.2014834767   -0.6529095077   -0.5325732003
 C    2.1969325697   -0.7102470104    0.8329008830
 O    3.1362469446   -0.9392386611    1.5616154181
 C    0.7592065247   -0.4335767432    1.2469692774
 C    0.4267826652   -0.1576618271    2.6447154265
 O    0.1791111743   -1.4464166467    2.0793520967
 H    0.8676796030    2.0427786823   -0.0438097347
 H   -0.6325613582    1.8755012575   -0.9695634797
 H   -0.6865969366    1.9535332225    0.7973175380
 H   -0.9845198603   -0.4188291814   -0.0113690177
 H    0.5131767604   -1.4694539061   -1.5227617469
 H    0.9275781132    0.1901152762   -1.9907542347
 H    3.0253686537   -0.9196227973   -1.0483148211
 H    1.2366258026   -0.1192213466    3.3706320522
 H   -0.4609415164    0.4283933854    2.8786334235