21

 C   -0.0216979955    1.3849421736    0.0651127197
 O   -0.0577908226   -0.0085648190    0.2559335755
 C   -1.3223330601   -0.5665221710   -0.0289521072
 C   -1.2241925245   -2.0764347640    0.1495289254
 C   -2.5747804880   -2.7666418955   -0.1066848116
 O   -3.0618191994   -2.4581850429   -1.3854084218
 C   -2.4738235534   -4.2875190136    0.0507136349
 C   -2.0026175010   -4.8568560927    1.3677690042
 O   -2.7789828031   -4.9911020837   -0.8896911059
 H    0.9904523016    1.7225221377    0.3015503534
 H   -0.2555264674    1.6617413156   -0.9751302621
 H   -0.7330983888    1.9078356408    0.7246186726
 H   -2.0890771647   -0.1512978790    0.6499577847
 H   -1.6352848792   -0.3305124016   -1.0564843909
 H   -0.4757888392   -2.4701014569   -0.5476372062
 H   -0.8773789865   -2.2885667543    1.1668453499
 H   -3.2917838780   -2.4182026537    0.6599530048
 H   -3.1841082139   -3.3184432951   -1.8213711019
 H   -0.9144280590   -4.7501812583    1.4441425878
 H   -2.4393134304   -4.3198782059    2.2151674712
 H   -2.2546076670   -5.9167176605    1.4206153434