16

 C    0.1851469281    1.3768228385   -0.1412085456
 C   -0.0661331890   -0.0864451829   -0.0737690642
 C   -1.1950584417   -0.8435096244   -0.0181470742
 C   -0.7701376438   -2.2121131610    0.0246291882
 C    0.5879028948   -2.1967301955   -0.0004642295
 C    1.6460064683   -3.2432547138   -0.0037514885
 O    2.3558501022   -3.3274735309   -1.2364077840
 O    1.0309648973   -0.9004360899   -0.0587349078
 H    0.7351113185    1.6503959493   -1.0490901328
 H   -0.7649717059    1.9153633383   -0.1432421680
 H    0.7746457667    1.7248402910    0.7147891049
 H   -2.2080469406   -0.4719233204   -0.0104438411
 H   -1.3942526904   -3.0912919096    0.0663815101
 H    2.3429492223   -3.0734607326    0.8324110147
 H    1.1770669996   -4.2186965420    0.1496361156
 H    2.7077426236   -2.4497733540   -1.4183787676