20

 C   -0.0403441027    1.5588439557    0.0152009139
 C    0.0205434602    0.0463646841   -0.0159047918
 C   -1.1957597409   -0.6446672105    0.5739055499
 C    0.6863926113   -0.6967369813   -1.1743594488
 C    1.6306698732    0.0529008046   -2.1140113002
 C    2.9173038120    0.1842004058   -1.2698581417
 O    2.5079891497    0.1232306654    0.1010183228
 C    1.3442514019   -0.6596281235    0.1813153397
 H    0.9231542102    2.0116163180   -0.2248048091
 H   -0.7912397406    1.9417947894   -0.6858376838
 H   -0.3193014390    1.9036486660    1.0173845934
 H   -2.1010329243   -0.4042328452    0.0038128178
 H   -1.0826972240   -1.7338239180    0.5694472740
 H   -1.3609407703   -0.3301703656    1.6108431154
 H    0.2017942388   -1.5954638307   -1.5393071345
 H    1.8083955089   -0.5136306744   -3.0320580869
 H    1.2404272274    1.0332333984   -2.4046972314
 H    3.6114980647   -0.6412441337   -1.4896256522
 H    3.4492435863    1.1288798104   -1.4158637182
 H    1.4256592073   -1.5225274148    0.8377450313