19

 C   -0.2148272971    1.6661824196   -0.1026302396
 C   -0.1576022248    0.1398710199   -0.0166046131
 C    0.7711918976   -0.4788604598   -1.0781162290
 C    0.7997549114   -1.9716456836   -1.0403754521
 C    1.7716883371   -2.8563053053   -0.6723558196
 C    3.1685311226   -2.7050227090   -0.1878074355
 O    1.2870062675   -4.0952850794   -0.8077913524
 N   -0.0547676003   -3.9608240999   -1.2838884793
 N   -0.2940372779   -2.7338485758   -1.4026882711
 H    0.7756534016    2.1118015425    0.0441347060
 H   -0.5827869422    1.9939370670   -1.0811428643
 H   -0.8817036909    2.0804834773    0.6593285774
 H    0.1828931945   -0.1678290969    0.9797284745
 H   -1.1610710198   -0.2819790031   -0.1421639859
 H    0.4438756346   -0.1537429962   -2.0734778869
 H    1.7895845513   -0.0946922144   -0.9470550110
 H    3.2825991949   -3.1321793342    0.8137676623
 H    3.8688514071   -3.2245776437   -0.8495121838
 H    3.4461599031   -1.6501170150   -0.1475913068