17

 C   -0.2358084007    1.5404614684    0.0651661559
 C    0.0984024818    0.0619848967   -0.0095570202
 C    1.1875198435   -0.4511472713   -0.9935950184
 C    1.8859411173   -1.0437234244    0.2220904540
 C    2.1567642852    0.0029873614    1.2421065061
 N    0.8024855456   -0.5343320663    1.2020613721
 C    2.3943356785   -2.4212172412    0.3430256140
 O    2.5833699120   -3.1568925286   -0.5956602551
 H    0.6552531998    2.1695453591    0.1521004633
 H   -0.7681127467    1.8477541639   -0.8411917128
 H   -0.8827124647    1.7439091256    0.9245653651
 H   -0.8241762738   -0.5117819156   -0.1267446838
 H    0.8311047335   -1.2093420695   -1.6910980447
 H    1.7566874725    0.3017374385   -1.5460529890
 H    2.6962116714   -0.2917643014    2.1378367950
 H    2.3702270091    1.0120506711    0.8982507928
 H    2.5832819558   -2.7432425565    1.3919175856