12

 C    0.0420647431   -1.1973267324    0.0307412937
 C   -0.0109596680    0.0004735873   -0.0083682521
 C   -0.0342365871    1.4620590841   -0.0398823484
 C    1.4216391318    2.0296501576   -0.0393380991
 C    1.4566289967    3.4811827721    0.1109676586
 N    1.4763748798    4.6276328229    0.2486001724
 C   -0.7912551891    1.9550256526   -1.2021460142
 N   -1.3768928315    2.3450938740   -2.1172352593
 H    0.0721385324   -2.2593099200    0.0618364872
 H   -0.5398217179    1.8346337834    0.8602496818
 H    1.9648392606    1.5673455520    0.7897137845
 H    1.9248363994    1.7400413064   -0.9658866351