18

 C   -0.0322061819    1.4677904236   -0.0533444442
 N   -0.0732628135    0.0266010279    0.1143628404
 C    0.6980757289   -0.5953540471    1.0500564664
 O    1.5224815713   -0.0366153673    1.7450962589
 C    0.5569816492   -2.1293799822    1.0793775181
 O    0.8598911216   -2.6763909889    2.3747032740
 C   -0.5094887800   -3.0729643663    2.5885003349
 C   -0.8426737475   -2.7983967321    1.1081788849
 O   -1.9381730356   -1.9647602319    0.7972149349
 H    0.9469798169    1.8182802466    0.2742995021
 H   -0.1803762083    1.7283525110   -1.1053263731
 H   -0.7969656835    1.9780172225    0.5462139465
 H   -0.8978627447   -0.4700831720   -0.1905429521
 H    1.2371685793   -2.5245725832    0.3134450966
 H   -0.5913346786   -4.1044465719    2.9474385377
 H   -1.0369751669   -2.3947699251    3.2725810955
 H   -0.8625263443   -3.7119073696    0.5036386454
 H   -2.7159495523   -2.5119014941    0.6542467728