21

 C   -0.0446113056    1.5913928708   -0.0160226579
 C   -0.0727291839    0.0689960965   -0.0171274419
 C    1.1336044525   -0.6033912802   -0.7163423723
 O    1.9277587876   -0.3009002800    0.4853373740
 C    0.6555991548   -0.6162051298    1.1807790252
 C    0.5858889452   -0.1452565087    2.6066432460
 C    0.5545727023   -2.1370218814    0.8999216448
 C   -0.4086280573   -2.6684018814   -0.1320197846
 C    0.9284206105   -2.1239940789   -0.5706604590
 H    0.9515150951    1.9640640720    0.2306651012
 H   -0.3254007003    1.9793577566   -1.0013047499
 H   -0.7587057881    1.9966204752    0.7092859156
 H   -1.0750533361   -0.2812424636   -0.2699025852
 H    1.5737557452   -0.2209390781   -1.6378512736
 H    0.7290572911    0.9358295540    2.6769889993
 H   -0.3859621180   -0.3987521452    3.0426110032
 H    1.3632948946   -0.6329044326    3.2042876554
 H    1.0146993947   -2.8128851535    1.6117989891
 H   -0.4974133556   -3.7509302773   -0.1648808509
 H   -1.3378438709   -2.1629067240   -0.3641073380
 H    1.6767147520   -2.7885519704   -0.9852992805