20

 O   -0.2145504384    1.5784224738   -0.3960346571
 C   -0.0204537698    0.2421511465    0.0385665888
 C   -1.3559366873   -0.4809910378   -0.0801602772
 C   -1.2668011740   -1.9499999405    0.3333259689
 N   -2.5954039979   -2.5610791930    0.2446424246
 C   -2.9364719178   -3.3034889357   -0.9393307620
 C   -2.7730499568   -4.0153233769    0.3799373994
 C   -1.6313615475   -4.9540810391    0.5275627888
 O   -1.6969193323   -5.9850254247    1.1516226371
 H    0.6204909046    2.0474680073   -0.3108667019
 H    0.7399569071   -0.2699867002   -0.5747252205
 H    0.3304767198    0.2081224203    1.0832630103
 H   -2.1002267600    0.0271695404    0.5409447678
 H   -1.7031608346   -0.4071567588   -1.1173848973
 H   -0.5157458055   -2.4599656439   -0.2913037968
 H   -0.9322752890   -2.0306311070    1.3745078086
 H   -3.9378558671   -3.1684968625   -1.3388414035
 H   -2.1597188731   -3.4670085248   -1.6878868005
 H   -3.6572443103   -4.3141965139    0.9369193193
 H   -0.6943451301   -4.6560089797    0.0082392629