16

 O    0.0930901012   -0.1205837436    0.0297311620
 C    0.0512381720    1.0770667795    0.1428869402
 C    1.2662223308    1.9836546106    0.0040904094
 C    1.4785827165    2.9016170970    1.2482417933
 C    2.6634001831    2.2451304820    1.9284415865
 C    3.1795645013    2.6159318908    3.2218934100
 O    2.7048751931    3.4846826050    3.9309174425
 C    3.1572273620    1.2845460799    1.1142566917
 N    2.5024386778    1.1979958025   -0.0928541012
 H   -0.9019619199    1.6144442859    0.3433489726
 H    1.1039370025    2.5811441415   -0.9030665253
 H    1.7044808063    3.9295768494    0.9474454127
 H    0.5943269634    2.9515533744    1.8926487819
 H    4.0686215610    2.0298293204    3.5498662059
 H    4.0017111392    0.6332773553    1.3059313595
 H    2.3929584397    0.2782221795   -0.5025488019