23

 C    0.0543574876    1.3592475087   -0.0886547098
 O   -0.0175150627   -0.0260996022    0.1505263127
 C   -1.3223134434   -0.5788097260    0.0693945178
 C   -1.8138358110   -0.7299501436   -1.3785172084
 C   -3.1696939363   -1.4502721527   -1.4317110410
 C   -3.1093851343   -2.8080318681   -0.7176173308
 C   -2.6192592416   -2.6532046631    0.7268723212
 O   -2.4415323257   -3.9075741219    1.3733056498
 C   -1.2708431995   -1.9364171585    0.7715468442
 H    1.0850810188    1.6661222145    0.1072202453
 H   -0.1946276133    1.6280466953   -1.1257695142
 H   -0.6146148935    1.9230352233    0.5813033226
 H   -2.0246143745    0.0805760786    0.6121108624
 H   -1.8924488846    0.2494943193   -1.8619897558
 H   -1.0604169870   -1.3031480679   -1.9340087007
 H   -3.9354979772   -0.8216130010   -0.9565116494
 H   -3.4852090309   -1.5832539579   -2.4718256955
 H   -4.0964108046   -3.2889975194   -0.7278206721
 H   -2.4196866353   -3.4817446773   -1.2421904273
 H   -3.3580932172   -2.0469909635    1.2814924650
 H   -3.2809399366   -4.3777705175    1.3429010413
 H   -0.5196127965   -2.5643521534    0.2773051547
 H   -0.9502954105   -1.8060793157    1.8091227379