21

 O    0.0196937618    1.4048660908   -0.1981076248
 C    0.0223787702    0.0102781929    0.0156497663
 C    0.2137343345   -0.5457630061    1.4646339581
 C   -1.0459396803   -1.4482322365    1.2787910896
 C   -2.3298238592   -0.9114705014    1.9616959743
 C   -2.6054410264   -0.0325600120    0.7094153191
 C   -3.4957419390   -0.6895036169   -0.3898799885
 C   -2.2235932058   -1.1006214686   -1.1976365067
 C   -1.3543347537   -0.6299126397   -0.0278236410
 H    0.9290545819    1.7186554004   -0.1723939788
 H    0.7081711738   -0.4947223963   -0.6836284548
 H    1.1548482274   -1.0677005304    1.6530349697
 H    0.0783217150    0.2284086939    2.2255206563
 H   -0.8579181131   -2.5235908245    1.2730248317
 H   -3.1034497491   -1.6637940518    2.1474078679
 H   -2.1525950199   -0.3700095519    2.8963554195
 H   -2.7336039777    1.0407201833    0.8509672345
 H   -4.0954321631   -1.5289478885   -0.0261854587
 H   -4.1603405087    0.0020775532   -0.9123342186
 H   -2.1319133478   -2.1507812611   -1.4921719451
 H   -2.0823317507   -0.4815368686   -2.0893764798