17

 C    0.0127281594    1.5385575393    0.0109021952
 C   -0.0368084678    0.0132416053    0.0037894328
 C   -1.4484636763   -0.5366137385    0.0125989511
 O   -2.4448261802    0.1670688538    0.0238572554
 C   -1.6009920375   -2.0006112370    0.0069886953
 N   -0.6590754737   -2.9315292497   -0.0048866061
 C   -1.3251708282   -4.1221155413   -0.0050777418
 C   -2.6902474082   -3.9134309006    0.0067178779
 N   -2.8469009143   -2.5601286146    0.0143453261
 H    1.0486455694    1.8882213199    0.0040041189
 H   -0.4977619302    1.9521126770   -0.8627979776
 H   -0.4830970332    1.9434385201    0.8970255231
 H    0.4781089586   -0.4078021103   -0.8689982095
 H    0.4923138001   -0.4163819083    0.8637981181
 H   -0.8013087848   -5.0659775831   -0.0136404046
 H   -3.5274465792   -4.5917559748    0.0102079513
 H   -3.6968117338   -2.0180481071    0.0236813244