19

 C   -0.0105352128    1.4406673588   -0.2522198601
 O    1.2774253781    1.7950552271    0.2869342800
 C    1.5538614176    0.4292526867    0.6520085037
 C    0.2303176366   -0.0662938270    0.0165265855
 C   -0.7495500552   -0.7590482796    0.9368139790
 C   -2.0780561644   -1.4152441957    0.4515221759
 C   -1.2979594051   -2.5964015654   -0.1735734052
 C   -0.7271153702   -2.2899220351    1.2316524410
 O   -2.1178762816   -2.1670835431    1.7276379557
 H   -0.8340800315    1.8855679537    0.3231724960
 H   -0.1130410691    1.7359557854   -1.3033309924
 H    2.4798063970    0.0596327413    0.1953422145
 H    1.6190975330    0.2995332032    1.7411166601
 H    0.3984627227   -0.6285461144   -0.9032114782
 H   -0.9080609902   -0.1847975045    1.8551349574
 H   -3.0031475554   -0.9419031752    0.1203148985
 H   -1.8626782443   -3.5266994901   -0.2386944904
 H   -0.6764201784   -2.4213844794   -1.0536849406
 H   -0.0286148667   -2.8678133666    1.8380202793