13

 N   -0.0858499098   -1.0834716051   -0.0569082198
 C   -0.0915380858    0.0733286067   -0.0726624436
 C   -0.0523904008    1.4958396171   -0.0851028199
 O   -1.3046270172    2.2192360351    0.2945427038
 C   -0.5373245402    3.3162033292   -0.1490285875
 N   -0.0508171121    4.1541335820    0.6598334677
 C    1.4007829018    3.7462990606    0.6662509273
 C    1.3670209951    2.3488387344   -0.0024243646
 C    0.3748349084    2.4692248141   -1.0946332255
 H    2.0885787991    4.4184663708    0.1331627304
 H    1.6827498562    3.7248292384    1.7220597385
 H    2.2554586251    1.7288604510   -0.0896648393
 H    0.4224560502    2.4219720858   -2.1738012976