18

 C    0.0082056360    1.4911805662   -0.0197656185
 C    1.2844019914    0.7292172468    0.0123963817
 C    2.1467925335    0.6562086872    1.2707039856
 C    2.1416556492   -0.7727929377    1.8052984286
 N    1.4458151110   -0.9950555959    3.0865371863
 C    0.8150684310   -1.4416156574    1.8265015763
 C   -0.3488940148   -0.5998647343    1.3260100398
 N   -0.0106649895    0.0295753162    0.0321255571
 H   -0.2670281418    2.0354782435    0.8836770125
 H   -0.3561702653    1.9370578007   -0.9420089125
 H    1.8260166385    0.5928871801   -0.9222888251
 H    3.1639196376    0.9894301894    1.0462400481
 H    1.7578203255    1.3154388677    2.0518294926
 H    3.0155213015   -1.3825074850    1.5915968602
 H    1.8540965531   -1.7939180537    3.5659252169
 H    0.7733387874   -2.5090835959    1.6297559361
 H   -1.2401961363   -1.2157239790    1.1716233939
 H   -0.5909750082    0.1417252813    2.0992928204