20

 C    0.0069460520    1.4737867769   -0.0960024864
 C    0.0396588959   -0.0410762058    0.1207546436
 O    0.6841658914   -0.3739960446    1.3519240110
 C   -1.3496436583   -0.6458550652    0.0411493031
 C   -1.9969842566   -1.2248807349   -1.1925208895
 C   -0.9900059590   -1.9853703637   -2.0673959248
 C   -0.6193296763   -2.8819286619   -0.8406811996
 C   -1.6472726100   -2.1192472785    0.0059651012
 H    1.0141869286    1.8919091566   -0.0192467668
 H   -0.4033333268    1.7202331332   -1.0809361892
 H   -0.6227232952    1.9602818928    0.6595836906
 H    0.6842074247   -0.4870194679   -0.6426055343
 H    0.0945243982   -0.1139495031    2.0680834099
 H   -2.0726114359   -0.1011263502    0.6512492170
 H   -2.9685368132   -0.8800198224   -1.5274708396
 H   -1.4829160953   -2.5606141568   -2.8542709516
 H   -0.1886179743   -1.3984903341   -2.5280125509
 H   -0.8949732853   -3.9262665855   -1.0005559874
 H    0.4139392609   -2.8465206895   -0.4837268899
 H   -2.3120133856   -2.5730068355    0.7317803035