16

 C   -0.0068950697    1.4827483665    0.0131856568
 C    0.0051292465    0.0275638092    0.0032660422
 C    0.0220274721   -1.1765193196    0.0073752003
 C    0.0354312787   -2.6494466076   -0.0495479657
 C   -1.3938460620   -3.2108490796    0.1300993751
 N    0.5869584931   -3.1893841344   -1.3094237716
 C    0.8867423648   -3.1578599271    1.0531437195
 N    1.5427892104   -3.5494669229    1.9191792867
 H    0.5036997451    1.8717902734    0.9005269308
 H    0.4998960558    1.8898676094   -0.8683736995
 H   -1.0308766074    1.8711771994    0.0196233246
 H   -2.0275611340   -2.8341148302   -0.6775223156
 H   -1.3636047864   -4.3012318037    0.0872914631
 H   -1.8172097947   -2.8889975486    1.0828976169
 H    0.0146703121   -2.8378591859   -2.0734959013
 H    1.5184527457   -2.8087679883   -1.4556214824