18

 C    0.0138315973    1.5407547084   -0.0792228407
 C    0.0465492931    0.0452427268    0.1374709250
 N    1.2651560178   -0.7917728145   -0.1626872661
 C    2.3816149349   -0.0087985846    0.3160884165
 O    3.3354283069    0.4023238413   -0.2706958257
 C    1.9196771151   -0.0221899823    1.7896344427
 O    1.7745378905    1.1735022834    2.5140292263
 C    0.6464711624   -0.6846435914    1.2696312330
 C   -0.0009465734   -1.8644674925    1.9308406923
 H    0.8184245888    2.0587211475    0.4431249555
 H    0.0789736550    1.7656861656   -1.1485340130
 H   -0.9362110190    1.9381103969    0.2926414437
 H   -0.8227936461   -0.4634478083   -0.2762811107
 H    2.5223417917   -0.7617671657    2.3401471588
 H    2.6554156503    1.5291545569    2.6774847633
 H   -0.5537920571   -1.5441357552    2.8211466675
 H   -0.7051844035   -2.3545499884    1.2531328614
 H    0.7436401754   -2.6036134138    2.2436231101