22

 C    0.0728559851    1.5748958808   -0.0244045595
 C   -0.0069007756    0.0441941419    0.0132209465
 C   -1.4326802405   -0.5274539735    0.0374447202
 C   -1.4352856622   -2.0557378817   -0.1399759000
 C   -2.8551450118   -2.6235060750   -0.0140075735
 C   -3.5036377212   -2.1282088844    1.2796084949
 O   -3.4953704562   -0.7134892098    1.3595912103
 C   -2.1834790001   -0.1783585118    1.3316850035
 H    1.1113347290    1.9096735639   -0.1102948730
 H   -0.4776450274    1.9773398852   -0.8821346858
 H   -0.3424850158    2.0323878534    0.8789579449
 H    0.5105073384   -0.3610540936   -0.8659799091
 H    0.5465486616   -0.3322581336    0.8848992728
 H   -2.0007112423   -0.0853723592   -0.7942873532
 H   -0.9927694046   -2.3261247387   -1.1057637787
 H   -0.7945067130   -2.5048302684    0.6332815555
 H   -3.4653128251   -2.2933270984   -0.8637001476
 H   -2.8429382992   -3.7196626208   -0.0277029734
 H   -4.5530566834   -2.4311681318    1.3434901101
 H   -2.9747270102   -2.5574435011    2.1497125829
 H   -1.6042213343   -0.5483258780    2.1984443567
 H   -2.3016003214    0.9023017146    1.4469437255