18

 C    0.0887230408   -0.5696125199    1.2383882167
 C   -0.3237481032   -0.1422689974   -0.1738703009
 C    0.6996200856   -0.3974183131   -1.2731575538
 C    0.6892150437    0.6078151439   -2.4151365349
 O    0.9999644802    1.9090616648   -1.9578864448
 O    2.0350287534   -0.7628531701   -0.8708099637
 C    1.2626105320   -1.7344097810   -1.5786587549
 C    0.8654014949   -2.9320095606   -0.8703594757
 N    0.5390275240   -3.9149456345   -0.3568938617
 H    0.2256128420   -1.6492930969    1.3242075516
 H    1.0231734935   -0.0872440578    1.5352135519
 H   -0.6888546937   -0.2749277656    1.9488456978
 H   -1.2624470001   -0.6308767898   -0.4635050853
 H   -0.5178775809    0.9352115404   -0.1813108798
 H    1.3837220669    0.2792416003   -3.2018651434
 H   -0.3146495252    0.6645154315   -2.8494447557
 H    1.8954577237    1.8810092798   -1.6017588822
 H    1.6035425524   -1.9376898841   -2.5935123912