20

 C   -0.0304576937    1.5749686762    0.0126101986
 C    0.0314736598    0.0467748659    0.0079867851
 C    0.7310229810   -0.5069204883   -1.2471468243
 C    0.8937683144   -2.0262889733   -1.1625797224
 O    1.5475937910   -2.4216357437    0.0398293382
 C    0.8049532790   -2.0321937981    1.1887559272
 C    0.7410884835   -0.5056618666    1.2648120848
 O    2.0572291296    0.0183663867    1.4044770889
 H    0.9769249227    1.9958540464    0.0751406638
 H   -0.5097651330    1.9546732903   -0.8958688312
 H   -0.5999023299    1.9440122163    0.8726567203
 H   -0.9952326665   -0.3489893044    0.0272550492
 H    0.1669660096   -0.2451880082   -2.1499356276
 H    1.7204209095   -0.0430876885   -1.3455471303
 H   -0.0928286096   -2.5169028762   -1.2201157120
 H    1.5081897032   -2.4099596411   -1.9821404739
 H   -0.2078140206   -2.4664446268    1.1614272891
 H    1.3388630769   -2.4378514323    2.0527680472
 H    0.1906092164   -0.2011116077    2.1634793642
 H    2.6251235667   -0.5383957167    0.8573154050