15

 N   -0.2940772179    1.3481066198   -0.4058161422
 C   -0.0956761030    0.0020920197   -0.1096480805
 C   -1.0110123958   -1.0097697374   -0.0003125042
 C   -2.5042191495   -1.0202122292   -0.0638882887
 C   -2.9343857908   -0.4464573966   -1.4081211228
 O   -3.1135431763    0.7321727002   -1.5907564704
 O   -0.3698052529   -2.1893933333    0.1908154379
 N    0.9927248106   -1.9639910129    0.2447533130
 C    1.1474394686   -0.6758245005    0.0586498134
 H    0.2477693680    1.9865530011    0.1594422069
 H   -1.2674228941    1.6207249115   -0.4508920150
 H   -2.8606156760   -2.0468848023    0.0546175080
 H   -2.9342971256   -0.3940313423    0.7265706170
 H   -3.0252229021   -1.1782313128   -2.2377451596
 H    2.1444627869   -0.2574902051    0.0482364671