21

 C   -0.0890207035    1.4642444864   -0.1716982994
 C   -0.0271823289   -0.0389566429    0.0409535955
 O   -1.3420561393   -0.5542746822    0.0069938595
 C   -1.3974062333   -1.9551341889    0.1788987668
 C   -2.8457553366   -2.3891298456    0.0771482792
 C   -3.5635990421   -2.2687821871   -1.3181921204
 C   -3.7988005023   -3.7838177527   -1.2726714808
 O   -2.5130401517   -4.4099870870   -1.1725805446
 C   -3.1156962783   -3.9047169093    0.0255467661
 H    0.9164782801    1.8950605443   -0.1496059528
 H   -0.5455320685    1.6960715431   -1.1381988679
 H   -0.6875214175    1.9381982355    0.6115801826
 H    0.5885548006   -0.5160183628   -0.7405070774
 H    0.4485188844   -0.2734101151    1.0089269829
 H   -0.8021366141   -2.4675454642   -0.5926369873
 H   -0.9805782878   -2.2405388501    1.1614029639
 H   -3.4384739480   -1.9037338804    0.8578422912
 H   -4.4811214845   -1.6791550964   -1.2656170067
 H   -2.9511962113   -1.9185438026   -2.1520244406
 H   -4.5993665947   -4.3728263711   -1.7048308586
 H   -3.2525159324   -4.6049619208    0.8420071887