17

 C   -0.0630711855    1.3798311932    0.0085023295
 O   -0.0217174351   -0.0433890171    0.0030361503
 C   -1.2183808539   -0.6617736149    0.0105363053
 N   -2.3760967592   -0.0167402553    0.0216610578
 N   -3.2936565417   -1.0170950664    0.0257354163
 C   -2.7338531977   -2.2501777393    0.0174793711
 C   -1.3685063607   -2.0712513434    0.0072756408
 C   -0.2971839842   -3.1103488256   -0.0045318450
 O   -0.9194307299   -4.3881561740    0.0018244738
 H    0.9763153015    1.7117216604    0.0014489243
 H   -0.5877371854    1.7604703118   -0.8742284826
 H   -0.5736420454    1.7540561736    0.9021753474
 H   -4.2689098931   -0.7791148124    0.0344669068
 H   -3.3198248695   -3.1542629278    0.0194923625
 H    0.3416991794   -2.9829191511   -0.8941868289
 H    0.3606959815   -2.9830340984    0.8711455066
 H   -0.2272977309   -5.0550655134   -0.0057951861