19

 C    0.4075650341    1.7185950109   -0.3753054115
 C    0.0691896077    0.2651636998   -0.1608147167
 N    1.1770545741   -0.6651904133    0.0016359344
 C    0.2807965570   -0.4531347020    1.1529138107
 C    0.8401671163    0.2413172828    2.3537340799
 O    1.8231415926    0.9562817978    2.3202240183
 C    0.0942794403    0.0356116273    3.6377042699
 C    0.9266184480   -0.3379018069    4.8294100493
 N    0.3506629764    0.9940993788    4.7205485266
 H    1.2728491019    2.0024392432    0.2244872232
 H    0.6417861243    1.8919981727   -1.4310315541
 H   -0.4407270319    2.3575232138   -0.1081795939
 H   -0.8015103544   -0.0896919729   -0.7129372909
 H    0.9690757135   -1.5643819663   -0.4246936635
 H   -0.4461509700   -1.2294714801    1.3830917434
 H   -0.9239655545   -0.3362029132    3.5689965155
 H    0.4906967208   -0.9785415678    5.5905930621
 H    1.9927154925   -0.4605504972    4.6596531357
 H    1.0731184514    1.6277260225    4.3737411116