14

 C   -0.0557488385    1.4635682793    0.0088385422
 N   -0.0312504723   -0.0002590268    0.0007879317
 C   -1.2461808930   -0.6647964783    0.0045219879
 N   -2.3509758285   -0.0349728198    0.0146941004
 N   -1.0807240624   -2.0517970724   -0.0040760095
 N    0.0822712223   -2.7284081375   -0.0145049298
 N    1.1716132724   -2.1032258122   -0.0174407686
 C    1.1938723068   -0.6668843212   -0.0097570207
 O    2.2509641081   -0.0894093818   -0.0126158446
 H    0.9771683418    1.8025291917    0.0026668898
 H   -0.5920862220    1.8281205636   -0.8697577869
 H   -0.5781951891    1.8188326233    0.8995658507
 H   -3.1528479065   -0.6609033472    0.0160635554
 H   -1.8941333589   -2.6474392607   -0.0024059280