16

 C    0.0912858043    1.5094942316    0.0693469856
 C   -0.0215141258    0.0216064232   -0.0010591858
 C   -0.1619071785   -0.7276316292   -1.1015517881
 C   -0.1265825437   -2.1792502321   -0.7545490469
 O    1.1163754925   -2.6043334010   -0.1389865719
 C    0.0301725249   -2.2651253186    0.7180740406
 C    0.0576495687   -0.8405397854    1.2509790619
 C   -0.8023738017   -3.1701256268   -1.5526550894
 N   -1.3590811102   -3.9387958213   -2.2123373129
 H    1.0653944902    1.8097905813    0.4748880724
 H   -0.0228333027    1.9683183064   -0.9156645114
 H   -0.6693339572    1.9312084186    0.7380517899
 H   -0.2456151655   -0.3675332327   -2.1183802007
 H   -0.3767253506   -3.0838536664    1.3042098426
 H    0.9713777387   -0.6470209811    1.8256877188
 H   -0.7889290836   -0.6529547064    1.9235036054