18

 C    0.6624197824    1.3611715663    0.1290724149
 C    0.1165854787   -0.0158907065   -0.0835987756
 C    0.0350375492   -0.6456828357   -1.2551587074
 C   -0.5141451253   -2.0401738231   -1.3141065946
 O   -0.1372315321   -2.8417754141   -0.1700569941
 C   -0.0039951814   -2.2349828673    1.0209441151
 N    0.4472844439   -2.8064071167    2.0585449964
 C   -0.4171736119   -0.7728440179    1.1238872449
 O   -0.0030446273   -0.2297561475    2.3450240841
 H    1.4902452348    1.3391044100    0.8439852820
 H    1.0080511760    1.7982322603   -0.8110236583
 H   -0.0978005009    2.0192112025    0.5660666613
 H    0.3535288221   -0.1849907854   -2.1846890656
 H   -1.6127202043   -2.0440246498   -1.3785794101
 H   -0.1337788544   -2.5903999257   -2.1778748982
 H    0.7108508042   -3.7747371567    1.8822626456
 H   -1.5239620931   -0.7531349041    1.0637039802
 H    0.3346338794   -0.9900063986    2.8513676794