19

 C   -0.0928317285    1.4540030508   -0.1459662894
 C    1.2920760453    0.9469181408    0.1236261072
 C    0.1303108421   -0.0325420151    0.0783475208
 C   -0.3585862701   -0.7186620263    1.2869218898
 C   -0.7637095355   -1.9972939209    1.3513574618
 C   -1.0965695597   -2.3811777319    2.7502682650
 O    0.0289734787   -2.2713137787    3.6625323304
 C   -0.8891237718   -1.1822848283    3.5777793420
 C   -0.4442843885   -0.0522052914    2.6571517660
 H   -0.5898256912    2.0153978137    0.6371115671
 H   -0.3450600843    1.7746823398   -1.1504293520
 H    2.0028744226    0.9107461945   -0.6942246880
 H    1.7366901742    1.1621403271    1.0884197331
 H    0.0862555119   -0.6471976417   -0.8157381616
 H   -0.8014223637   -2.6843945535    0.5147075636
 H   -1.8004779246   -3.1718982998    2.9905769070
 H   -1.4497171161   -0.9680853069    4.4839613421
 H    0.5143141909    0.3705078710    2.9798545991
 H   -1.1748325715    0.7669926069    2.6633097261