16

 O    0.0027564139    1.3714902030   -0.2459560380
 C    0.0149751286    0.0025723088    0.1292150473
 C   -1.4091878145   -0.5008977802   -0.0021728415
 C   -2.0400926163   -0.5898962743   -1.4385501308
 C   -2.2285129861   -2.0950390754   -1.2234508739
 O   -0.9430371726   -2.6597987254   -0.9655208485
 C   -1.6206517534   -2.0247858386    0.1280787601
 C   -1.8660429068   -2.7872961914    1.3121367540
 N   -2.0695641060   -3.3609664479    2.2955828258
 H    0.9073203129    1.6975036669   -0.2302257636
 H    0.6704721203   -0.5924408505   -0.5220402752
 H    0.3596442727   -0.1297449612    1.1673900051
 H   -2.0689223716    0.0451858220    0.6764269147
 H   -2.9783424377   -0.0389491713   -1.5189104156
 H   -1.3848150653   -0.3260831297   -2.2703923344
 H   -2.9960963982   -2.7642276048   -1.5935256156