20

 C   -0.0099179087    1.4873079913    0.0455672112
 C    0.0410149283   -0.0266155268   -0.0134316279
 C    0.3008458884   -0.6501320512   -1.4167393828
 C   -1.0367325049   -1.3584497807   -1.2557180117
 C   -1.2098574146   -2.0600937520    0.0352799647
 C   -0.1417880105   -2.7073930914    0.8920610956
 O    1.0900255360   -2.0143171247    0.9052151761
 C    0.9098666698   -0.6204184254    1.0877571414
 N   -1.3822056326   -0.5930224475    0.0202185161
 H    0.9772369387    1.9199053982   -0.1516431490
 H   -0.7138065600    1.8730291555   -0.6971687010
 H   -0.3478743667    1.8262053182    1.0309461225
 H    0.2687035922    0.1064743681   -2.2041067559
 H    1.1894495632   -1.2712290406   -1.5426703968
 H   -1.7718496562   -1.4708195148   -2.0477406390
 H   -2.1730911022   -2.5581677612    0.1431927336
 H   -0.5396349765   -2.7885965878    1.9192320217
 H    0.0739690824   -3.7211632199    0.5380577696
 H    1.9121603233   -0.1805359773    1.0712613136
 H    0.4537086607   -0.4086922800    2.0701648980