19

 O   -0.0392837783   -0.1181759707   -0.1376422304
 C   -0.0160490522    1.0858130583   -0.1210250129
 C    1.2282681163    1.9333736972    0.0006512543
 C    1.3660183275    2.9040427482   -1.1806307505
 C    2.5912092831    3.8060042993   -1.3146435120
 C    3.6602886139    3.0407386612   -2.1152272251
 C    3.0904490739    1.6687794106   -2.4671979820
 C    1.7247324402    2.3941450499   -2.6138666510
 C    2.5270239765    3.7447294629   -2.8213618042
 H   -0.9605583782    1.6748467855   -0.2124246073
 H    1.1360338311    2.5275730266    0.9219263310
 H    2.0960397741    1.2793567970    0.1080346514
 H    0.4635130665    3.5237081892   -1.2489578335
 H    2.8615688989    4.6536814945   -0.6971544692
 H    4.6984973920    3.3440802248   -2.0697874812
 H    3.4569044012    1.3361759152   -3.4422464931
 H    3.1712508914    0.8432793199   -1.7522402015
 H    0.9505665784    1.9951530690   -3.2660482674
 H    2.5020325636    4.5184722114   -3.5741096052