18

 C   -0.0488899096    1.4972607168    0.0169035299
 C    0.0291848053   -0.0136443608    0.0201716639
 C    0.7790141052   -0.6772563445   -1.1604617043
 O    0.9689585976   -2.0308762754   -0.7226358690
 C    0.4237705270   -2.1068302911    0.6182476101
 C    0.7477942718   -0.7289433615    1.1942401423
 C   -1.1051240495   -2.0179440110    0.4170031831
 O   -1.9418665538   -2.8871568054    0.4323669185
 N   -1.2848660872   -0.6761908630    0.1190020923
 H    0.9550831245    1.9317859579    0.0262813661
 H   -0.5640551434    1.8678179475   -0.8765422197
 H   -0.5907653809    1.8586834571    0.8953060590
 H    0.1873574099   -0.6606237516   -2.0832687958
 H    1.7524451072   -0.2076742840   -1.3524623430
 H    0.7849108929   -3.0112345386    1.1000817296
 H    1.8202685020   -0.5256661857    1.2349597250
 H    0.2765840787   -0.5218519845    2.1566621174
 H   -2.0783916477   -0.3837000221   -0.4335120455