17

 C   -0.0423919973    1.4802143081    0.0341410063
 N    0.0347886082    0.0275988918    0.0232839864
 C    0.8331482456   -0.4783313117    1.1307384446
 C   -1.2996241014   -0.5624527354   -0.0140163807
 C   -1.2931984450   -2.0005884142   -0.2555547131
 C   -1.3263338502   -3.1925126287   -0.4498590792
 C   -1.3215943258   -4.6118596734   -0.6880262108
 O   -2.3151442008   -5.2906426812   -0.8144184457
 H    0.9678548972    1.8976823268   -0.0012799581
 H   -0.5866360609    1.8326272210   -0.8478771477
 H   -0.5459745361    1.8850449028    0.9332811493
 H    0.4132928767   -0.2164213255    2.1211854569
 H    0.9067989017   -1.5669914809    1.0687553639
 H    1.8429447112   -0.0625827943    1.0697889202
 H   -1.8754509383   -0.3713960230    0.9162336195
 H   -1.8662426158   -0.0815406623   -0.8217254099
 H   -0.3066200388   -5.0550520600   -0.7499662418