17

 O   -0.4638509024    0.3316919641    0.5796010883
 C   -0.1808858027    1.3869636210    0.1094062831
 O   -0.9859931915    2.2192683631   -0.6272768461
 C    0.0783234327    3.2438442165   -0.7249620968
 C   -0.1269338224    4.4708313421    0.1350234869
 C   -0.7451471812    4.2540323931    1.4972600548
 C    0.7482902686    4.3337971132    1.3761645492
 C    1.5429535617    3.0289395697    1.2998410905
 C    1.0446792675    2.3042763036    0.0324752273
 H    0.2711590492    3.4638919241   -1.7746211835
 H   -0.2698124599    5.4251950328   -0.3567370114
 H   -1.2567183421    5.1018588199    1.9388185871
 H   -1.2174871988    3.3001641892    1.7053987590
 H    1.2470451532    5.2025349360    1.7913612417
 H    2.6096968341    3.2511677565    1.2014099885
 H    1.4255928816    2.4074130010    2.1935467497
 H    1.8471219022    1.8512363044   -0.5519345782