15

 O    0.0841404892    0.0669600269    0.5162713813
 C   -0.0534937500    1.2190159642    0.1884529081
 C    1.1150037044    2.0422706282   -0.1904501802
 N    2.0373210858    2.6712167630   -0.4910038592
 C   -1.3728450338    1.9143348560    0.1033587471
 C   -2.1418244596    2.3026497160   -1.2013886535
 C   -2.9201761252    2.8632609794    0.0151566774
 C   -2.7232214673    1.4981610084    0.7360870185
 N   -1.5736576226    3.3578711076    0.5380604714
 H   -1.6454237389    3.0433017707   -1.8270464326
 H   -2.5959157155    1.4839361573   -1.7595239304
 H   -3.7978257423    3.5081892754    0.0113794336
 H   -3.2296175540    0.6190735184    0.3298972143
 H   -2.7573737010    1.5200693401    1.8283281622
 H   -1.6049607190    3.3890737285    1.5630298921