14

 O    0.0781720862    1.3581336180    0.0089124560
 C   -0.0072832576   -0.0402264196    0.0022369182
 C   -1.4771741321   -0.4468846711    0.0115471868
 O   -2.3886045227    0.3485700195    0.0226436279
 C   -1.7488361657   -1.8920489072    0.0067290804
 C   -2.9021342767   -2.6180683346    0.0122631033
 N   -2.6005302500   -3.9662136564    0.0032687110
 C   -1.3042839670   -3.9985845206   -0.0070708326
 O   -0.7059985404   -2.7920462000   -0.0058214094
 H    1.0089640495    1.5989425088   -0.0008758804
 H    0.4615830076   -0.4977855348   -0.8858989864
 H    0.4753007932   -0.5069668780    0.8782090024
 H   -3.9156103098   -2.2516686153    0.0220224242
 H   -0.6581388146   -4.8627054887   -0.0163755014