21

 C   -0.1023815497    1.5556167677    0.2875829556
 C   -0.0466180509    0.0587998794    0.0521096503
 C   -1.3261593484   -0.5464375379   -0.4706113280
 O   -1.6234057507    0.0155710426   -1.7392694554
 C   -2.8369099416   -0.4300589357   -2.2806280120
 C   -3.0474079409    0.2651233220   -3.6146307310
 O   -3.9928943113    0.0655629896   -4.3294296982
 C    1.2487529186   -0.5570999136   -0.4186523671
 C    0.7680784005   -0.7981223469    0.9919013899
 H    0.8592181896    1.9340498452    0.6468775012
 H   -0.3531849126    2.0832933844   -0.6372046883
 H   -0.8623464690    1.8095205753    1.0365196716
 H   -1.2280246142   -1.6410350244   -0.5579959964
 H   -2.1588394472   -0.3468648022    0.2263023658
 H   -2.8458373042   -1.5214831029   -2.4451242266
 H   -3.6951750579   -0.2007989642   -1.6249071075
 H   -2.2393284684    0.9850035038   -3.8719415421
 H    1.1983602066   -1.3794983332   -1.1240964035
 H    2.0990424897    0.1001777113   -0.5645758313
 H    1.2860513299   -0.2990146208    1.8037440517
 H    0.3994860621   -1.7869148997    1.2454594515