15

 C    0.3474390881    1.4555601377    0.0522513085
 C   -0.1017754145    0.0021197899   -0.0380709870
 C    0.4563874923   -0.7641594651   -1.2587577767
 C    1.7132337900   -1.4310644907   -0.6950203354
 C    1.4295866484   -1.5353066154    0.8008809991
 O    1.9985798785   -2.1930760045    1.6220982212
 O    0.3815986353   -0.7253148772    1.1138465600
 H    1.4364245076    1.5391665788   -0.0277883798
 H   -0.1020564537    2.0403100034   -0.7566421298
 H    0.0410549636    1.8910350346    1.0067678488
 H   -1.1930568403   -0.0513259559    0.0071981818
 H   -0.2616426619   -1.5207974191   -1.5870627406
 H    0.6507288394   -0.0985515620   -2.1022858744
 H    1.9331463004   -2.4176315202   -1.1045701207
 H    2.6113341069   -0.8174438542   -0.8249390252