19

 C   -0.1095890046    1.5426031872   -0.0354322974
 C   -0.0695925574    0.0224651711   -0.0225782459
 C    1.1692777513   -0.6037165537   -0.7092040018
 O    1.9516442560   -0.2948925809    0.4965962683
 C    0.6801923669   -0.6160440968    1.1889771715
 C    0.5967458815   -0.1485654746    2.6133363804
 C    0.6092764927   -2.1433164902    0.8844602066
 O   -0.3456850135   -2.5325439227   -0.1160674518
 C    0.9727544350   -2.1311976693   -0.5280988246
 H    0.8662908765    1.9666389628    0.2125836192
 H   -0.4032605035    1.9080722648   -1.0252547142
 H   -0.8455599092    1.9198536054    0.6827682393
 H   -1.0355716022   -0.4140075164   -0.2741712082
 H    1.6125225470   -0.2285634441   -1.6313188729
 H    0.7307801422    0.9336798164    2.6826211793
 H   -0.3775252587   -0.4082295147    3.0400861811
 H    1.3729695683   -0.6284913990    3.2189163727
 H    0.8916747704   -2.8959814838    1.6130926818
 H    1.5734327912   -2.8749187814   -1.0390313535