20

 C   -0.1127572938    1.6162516701    0.0624168889
 C    0.1302798570    0.1101204994    0.1196343443
 C    1.3770035235   -0.6974967782   -0.1786100986
 C    2.6882654364   -0.1781661010    0.4667884289
 N    2.4205565701    1.1060251062    1.1603303288
 C    2.0689057369   -0.1873316407    1.8046973188
 C    0.7362204464   -0.7425099551    1.2163705583
 C    0.0234173476   -1.8758196700    1.8880655903
 O   -0.6450369617   -1.4730877702    3.0791857014
 H    0.4812417729    2.0865379717   -0.7252533029
 H   -1.1699174461    1.8057223028   -0.1565107003
 H    0.1443223658    2.1123557383    0.9962529848
 H   -0.7113426728   -0.4425882280   -0.3020333405
 H    1.3769339698   -1.4841979994   -0.9240583157
 H    3.6872223980   -0.4510153201    0.1530286612
 H    3.3034892186    1.4046238749    1.5758909995
 H    2.4703410988   -0.4650609360    2.7704137655
 H   -0.6700536804   -2.3487846834    1.1736368787
 H    0.7350285886   -2.6471114127    2.2073440132
 H   -1.2147334152   -0.7320700287    2.8467534155