18

 O   -0.1650404827    1.4458420770    0.0987169461
 C    0.0067751485    0.0372050346    0.0341145737
 C   -1.3805397901   -0.5819842456   -0.0944490069
 C   -1.3710151382   -2.1039203677   -0.0822484332
 O   -0.5443407923   -2.5316871977   -1.1392687540
 C   -1.1521466613   -2.7531412817    1.3141536681
 O   -2.5501159057   -3.0823912063    1.4149275304
 C   -2.7793785904   -2.7442349451    0.0335429932
 H    0.7055490785    1.8537226573    0.0960831442
 H    0.6218497739   -0.2579461146   -0.8260204224
 H    0.5065363457   -0.3424281853    0.9411287216
 H   -2.0092364329   -0.2238970844    0.7279481002
 H   -1.8378609711   -0.2354994621   -1.0281713839
 H   -0.5287670797   -3.4946740240   -1.1467089532
 H   -0.5142545755   -3.6497827755    1.2794304673
 H   -0.8178588636   -2.1080046948    2.1341967919
 H   -3.6476517628   -2.0887485238   -0.0975889800
 H   -2.9018266302   -3.6363266203   -0.5997459033