14

 N    0.4486537482    1.4815075867   -0.3121052105
 C   -0.0523767812    0.1521554178    0.0465078938
 C    0.6927275700   -0.3852161121    1.2223880024
 C    0.2902196661   -0.8195523433    2.4588975745
 N    1.4403669535   -1.2241360915    3.1220670823
 N    2.4514100177   -1.0689587246    2.4085988356
 O    2.0079187700   -0.5188618821    1.1345368155
 C   -1.0020364037   -0.8758998901    3.0189438932
 C   -2.1097567649   -0.9210418744    3.4862255295
 H    1.4090523819    1.4099793850   -0.6344846665
 H   -0.0936927847    1.8461209811   -1.0887069038
 H   -1.1049808374    0.2333602185    0.3328303606
 H    0.0071937625   -0.5968220432   -0.7626952654
 H   -3.0847453280   -0.9585492779    3.9060662489