18

 C   -0.1176647740    1.6406090535    0.0021035013
 C    0.0622814946    0.1295048048    0.0151678427
 C    1.0910441509   -0.6150705339   -0.8740644207
 C    2.4419592643    0.0859402757   -0.9031009964
 O    2.7248964350    0.7047305886    0.3500685298
 C    2.1443845702    0.0711974714    1.4880632528
 C    0.8428500419   -0.6273681927    1.1203067993
 O    1.1860740159   -1.6557586198    0.1440117012
 H    0.8305688967    2.1668007063    0.1232822371
 H   -0.5738941656    1.9636060270   -0.9402196000
 H   -0.7912905962    1.9528231997    0.8078314424
 H   -0.9025132938   -0.3707278134   -0.1079835595
 H    0.7934182472   -1.0031792416   -1.8526738781
 H    3.2135358075   -0.6571366338   -1.1556164593
 H    2.4684282226    0.8844990581   -1.6538511769
 H    2.8316626611   -0.6760542218    1.9129415157
 H    1.9848368182    0.8605412450    2.2320412845
 H    0.3150412635   -1.0268808831    1.9913370939