20

 C    1.2809208907    1.0326598147    0.1979830874
 C    1.4598293291   -0.1653238724   -0.6955816468
 C    0.1169218227    0.1034911453   -0.0523912654
 C   -0.3916321870   -0.7558929193    1.0808679713
 C   -1.7630663839   -1.3427810180    1.2825520703
 C   -2.2939662368   -2.1660895893    0.0926203608
 C   -1.3886316508   -2.3185488800   -1.0688263248
 N   -1.1334984093   -3.1205915717    0.1448165425
 C   -0.5543178664   -2.2580389831    1.2480294931
 H    1.7434697577    1.0030758587    1.1798812882
 H    1.2602872676    2.0183679951   -0.2536259795
 H    1.5661474136   -0.0056229052   -1.7634319192
 H    2.0309280605   -1.0035476444   -0.3106944804
 H   -0.6543563135    0.4958287497   -0.7081154107
 H   -0.0406778689   -0.3854732625    2.0456414315
 H   -2.3995930294   -1.0777304886    2.1172442875
 H   -3.3101494429   -2.5478150785    0.0822093785
 H   -1.7605326626   -2.9402990596   -1.8798085117
 H   -0.6929182852   -1.5525127471   -1.3747321355
 H   -0.0566304652   -2.7930172338    2.0476988830