21

 C   -0.0817024474    1.5806354549    0.0801062639
 C    1.4701216683    1.4775214263   -0.0109393238
 C    1.7721064230    0.8415265256    1.3597723228
 C    0.7782517755   -0.3642515764    1.2775836142
 O    1.3993703878   -1.6367623659    1.1259634848
 C    2.4765695553   -1.6577935489    0.2019314244
 C    2.1606319494   -0.9407031844   -1.1242600495
 C    1.2144443613    0.2462940649   -0.9548465899
 C    0.0050111578    0.0351351844    0.0011960668
 H   -0.5064647451    2.0370324619    0.9796062221
 H   -0.5405922222    2.0126002959   -0.8126573655
 H    2.0865928202    2.3199352678   -0.3265715417
 H    2.8075992128    0.5306555819    1.5023155062
 H    1.5185578812    1.5183177242    2.1807227494
 H    0.1444680803   -0.4609054994    2.1618238084
 H    3.3792814098   -1.2273117372    0.6588984706
 H    2.6895611278   -2.7159913809    0.0239762488
 H    3.0980826322   -0.6404119352   -1.6081379506
 H    1.6694695903   -1.6463310058   -1.8058924533
 H    0.8819410986    0.6056686122   -1.9333816992
 H   -0.8433566169   -0.5951614457   -0.2667350889