18

 N   -0.0731766675    1.1401992814   -0.9866796180
 C   -0.0206528644    0.1377522851   -0.2163808310
 C   -1.2960298536   -0.6414771393    0.0734310772
 O   -1.7347256080   -0.5272378711    1.4125039571
 C   -1.2192858551   -1.4334947611    2.3710792918
 C    0.1316721438   -1.0214928170    2.9658048311
 O    1.2997160405   -1.5381965176    2.3316667814
 C    1.3430884618   -1.5111949955    0.9470856237
 O    1.1517160691   -0.2108304377    0.4021628787
 H    0.8555015069    1.5592319816   -1.0797229573
 H   -2.0628036815   -0.1786999722   -0.5486583138
 H   -1.2111896438   -1.6973454005   -0.2234046732
 H   -1.9528924834   -1.4268707945    3.1841911179
 H   -1.1787140729   -2.4601239797    1.9745199310
 H    0.1663817070    0.0754185819    2.9908021765
 H    0.2006120048   -1.3890930986    3.9937962873
 H    2.3583576756   -1.8114815367    0.6776058297
 H    0.6285254708   -2.2098078584    0.4949641797