27

 C    0.5326409343    0.9728507903   -0.8165949973
 C    0.1339865499   -0.4367241970   -0.3693571983
 C   -1.3323360464   -0.5365816500    0.0742084271
 O   -2.1601886625   -0.1851194154   -1.0408179688
 C   -2.9562180390    0.9657577153   -0.8711384955
 C   -1.7688130844   -1.9321709313    0.6141054650
 C   -0.9291704756   -2.3123045373    1.8482634677
 C   -3.2486037997   -1.8514208690    1.0371070830
 C   -1.6231184310   -3.0109362043   -0.4750262850
 H    1.5822880801    1.0031516237   -1.1247811452
 H   -0.0754609975    1.2972213329   -1.6651978254
 H    0.4045359669    1.7013799851   -0.0075151812
 H    0.3012111325   -1.1373701922   -1.1946597391
 H    0.7826977908   -0.7539877507    0.4536893078
 H   -1.4971980482    0.1911621778    0.8850042970
 H   -3.5241859832    1.1016459812   -1.7961535999
 H   -3.6663659677    0.8621933932   -0.0378892320
 H   -2.3507391141    1.8674192705   -0.6979945787
 H   -0.9593431921   -1.5258129582    2.6117264370
 H   -1.3219646502   -3.2274670875    2.3042493572
 H    0.1186707123   -2.4984838188    1.5965613380
 H   -3.8878536663   -1.6013262675    0.1870301610
 H   -3.5844679953   -2.8126187088    1.4405796322
 H   -3.4003418337   -1.0956386700    1.8167935916
 H   -0.5757334368   -3.1924765145   -0.7351215324
 H   -2.0423823122   -3.9615514575   -0.1282100890
 H   -2.1539728508   -2.7131297300   -1.3830033367