20

 C   -0.0032196959    1.5185313140   -0.0165700436
 C    0.0315749816    0.0189823985   -0.0029627962
 C   -0.8795972755   -0.8560233542    0.8144153289
 C    0.6120769283   -0.9358233755    1.0376191347
 C    1.3365323156   -1.7082679276   -0.1055988262
 C    2.6985497537   -2.3149656451    0.0030211066
 O    3.1548240371   -2.6065480560   -1.3116674225
 N    0.3266480223   -2.2293835190   -1.0558980018
 C    0.7615611132   -0.8034534713   -1.1149829770
 H    0.9804308064    1.9414332127   -0.2550026343
 H   -0.7136105192    1.8956360706   -0.7631133227
 H   -0.3071619909    1.9129296579    0.9585313724
 H   -1.4160179842   -0.3292783245    1.5986788183
 H   -1.4098752324   -1.6858067221    0.3649108891
 H    1.0815521344   -0.6949770930    1.9838254426
 H    3.3743670619   -1.6103587702    0.5147851116
 H    2.6511025471   -3.2287265793    0.6188162509
 H    3.9504534671   -3.1414271971   -1.2449846563
 H    0.8666440786   -2.7108675875   -1.7764562000
 H    1.2031110206   -0.3911632914   -2.0133061543