21

 C   -0.2239979531    1.5419906401   -0.1271588176
 C    0.0426599507    0.0415895860   -0.0043971537
 C    0.8603637579   -0.5491526521   -1.1794070269
 C    1.3305008011   -1.9160422835   -0.6640568230
 C    1.5545425375   -1.6841552430    0.8254781076
 O    2.2766648022   -2.3409453480    1.5435860608
 C    0.7983728595   -0.4262474978    1.2677169069
 C    1.8273196981    0.5588599033    1.8765711558
 O    2.3866665860    0.0507286662    3.0637944098
 H    0.7059367635    2.1179686732   -0.1736681178
 H   -0.7880860342    1.7549686562   -1.0412494079
 H   -0.8102398927    1.9180228368    0.7175872599
 H   -0.9288910571   -0.4711280387   -0.0000424910
 H    0.2743590727   -0.6121665268   -2.1000111087
 H    1.7269906195    0.0899847158   -1.3898554548
 H    0.5327475154   -2.6654600510   -0.7645435422
 H    2.2230166380   -2.3270464053   -1.1403733242
 H    0.1149934029   -0.6879535233    2.0828865256
 H    2.6039732024    0.8019678841    1.1305517065
 H    1.3265980929    1.4967913058    2.1355895654
 H    2.6442474167   -0.8655668382    2.8827816895