27

 C    0.0476235453    1.6062311177   -0.1130076266
 C    0.0130362221    0.0899608875   -0.0167964463
 O    0.6556770613   -0.4485773196   -1.1517293104
 C    0.6803087800   -1.8617721106   -1.1637262316
 C    1.3990831507   -2.3019315145   -2.4354146276
 C    1.5458871659   -3.8258418655   -2.6629572645
 C    0.1666219815   -4.5056623258   -2.7624876786
 C    2.2952010789   -4.0295311390   -3.9932999478
 C    2.3618873173   -4.4781830529   -1.5302508556
 H    1.0804326191    1.9641269391   -0.1521914329
 H   -0.4652965755    1.9444757410   -1.0178950656
 H   -0.4440418863    2.0563896498    0.7546517960
 H    0.5165023317   -0.2501815673    0.9049271346
 H   -1.0291521294   -0.2698579110    0.0390764057
 H    1.1964102623   -2.2361210605   -0.2640860671
 H   -0.3490598783   -2.2556867883   -1.1307866988
 H    0.8649464656   -1.8627608792   -3.2871465282
 H    2.3957825405   -1.8434933012   -2.4285107809
 H   -0.4461900887   -4.0438627235   -3.5447468787
 H    0.2765098005   -5.5673160660   -3.0100639865
 H   -0.3904498062   -4.4464900583   -1.8221624062
 H    3.2874592193   -3.5662793695   -3.9630658775
 H    2.4293055469   -5.0952451170   -4.2087881698
 H    1.7441767372   -3.5852980466   -4.8294355261
 H    1.8479574293   -4.4189214507   -0.5656688163
 H    2.5366216777   -5.5389153277   -1.7419001416
 H    3.3396679613   -3.9961600804   -1.4192331610