21

 C   -0.1872738264    1.2727540743   -0.3849746541
 C    1.1903931025    1.0518349718    0.1845849810
 C    0.2351077996   -0.1110194127    0.0388892091
 C   -0.3425471675   -0.7475241696    1.2610806205
 C    0.2937633687   -2.0464966727    1.8251627487
 C   -1.1296968141   -2.6630223957    1.9992630058
 C   -1.7711047931   -1.3739662356    1.4214633963
 C   -1.9862040381   -0.2581657356    2.4510104516
 O   -0.6218411257    0.2087405059    2.3174369722
 H   -0.8997746787    1.7894239522    0.2475976570
 H   -0.2861868816    1.4732099041   -1.4460014161
 H    2.0453068365    1.0971664760   -0.4806043661
 H    1.3706015897    1.4174827494    1.1886192321
 H    0.4545480956   -0.8179642709   -0.7568520926
 H    0.9165835738   -2.5800191053    1.1015471885
 H    0.8713432758   -1.8851134338    2.7377894989
 H   -1.2972180085   -3.5447978081    1.3767201704
 H   -1.4255103026   -2.9085903379    3.0231062123
 H   -2.4952129369   -1.4698642878    0.6131263838
 H   -2.7010886553    0.5177449311    2.1487623818
 H   -2.2150605938   -0.5745392092    3.4767622588