16

 C   -0.0744780927    1.5613045597    0.0106898907
 C    0.0399317153    0.0383901554   -0.0221868534
 C    0.7545573550   -0.4851935479   -1.2760869907
 O   -0.0577863983   -0.1173163175   -2.3730625157
 N    0.7384277063   -0.4631570746    1.1665456969
 N    1.9867335749   -0.1574494501    1.4808379866
 N    2.2286275407   -0.8025051135    2.5830105211
 N    1.1299822098   -1.4953201458    2.9335628573
 N    0.1990574311   -1.2873019209    2.0518239853
 H    0.9164684579    2.0216657138    0.0451908116
 H   -0.5847480983    1.8900846712   -0.8960356277
 H   -0.6456086267    1.8912468942    0.8819503393
 H   -0.9498200562   -0.4209586837    0.0267283702
 H    1.7587247489   -0.0414178797   -1.3344913365
 H    0.8678205734   -1.5765858736   -1.1961417357
 H    0.3936482388   -0.3648861970   -3.1849913394