16

 C   -0.0122740975    1.5900424876    0.0086419175
 C    0.0037445485    0.0612148200    0.0034379063
 N   -1.3378732507   -0.5251360100    0.0128443172
 C   -2.0040016199   -0.8156563096    1.1808609455
 N   -3.1999776764   -1.2636688591    1.2463465219
 C   -3.9202986611   -1.4380018326    0.0316832277
 O   -5.0853016887   -1.7396077202    0.0405761636
 N   -3.2208738915   -1.2549154712   -1.1938597371
 C   -2.0239269974   -0.8073040901   -1.1456505360
 H    1.0116943369    1.9746628092    0.0012705553
 H   -0.5314136978    1.9806765467   -0.8714885006
 H   -0.5164641661    1.9747895229    0.8999835245
 H    0.5242242308   -0.3179932434   -0.8813020336
 H    0.5390563671   -0.3238081871    0.8767407429
 H   -1.4267359730   -0.6508866096    2.0913687418
 H   -1.4623223132   -0.6359846635   -2.0647037768