18

 C   -0.1845202582    1.5082502562    0.3406560423
 C   -0.0676209992    0.0165241697    0.0346013529
 O    0.6970298751   -0.6635213284    1.0306218244
 C   -1.4374565392   -0.6478630153   -0.1589770129
 C   -1.3101139525   -2.1244823037   -0.5143060461
 O   -2.6089342639   -2.7039517710   -0.7007438899
 C   -3.0079751626   -3.6581468514    0.1581796696
 O   -4.0795042500   -4.1815817091    0.0951577962
 H    0.8077005424    1.9425251940    0.4886336480
 H   -0.6815681826    2.0433025991   -0.4744624491
 H   -0.7721897897    1.6728652239    1.2527474344
 H    0.5182922577   -0.1122674249   -0.8848176270
 H    0.3102969696   -0.4549545213    1.8887302238
 H   -2.0269019494   -0.5470558427    0.7627706741
 H   -1.9947697525   -0.1308588125   -0.9482127362
 H   -0.7673157388   -2.2540387707   -1.4564164988
 H   -0.7602631319   -2.6583503924    0.2683425735
 H   -2.2365236544   -3.8999212296    0.9165955308