15

 C   -0.0317685896    1.4756511476    0.0105875900
 C    0.0099591913   -0.0389888357    0.0022519054
 O   -1.3568946485   -0.5051857945    0.0105607927
 C   -1.5605195645   -1.8139374767    0.0052025257
 C   -2.7299911466   -2.5212872846    0.0104771041
 C   -2.2750960687   -3.8607566089   -0.0000703157
 N   -0.9677556121   -3.9714483461   -0.0107786398
 O   -0.5038348456   -2.6345936415   -0.0072858795
 H    0.9880130796    1.8711007907    0.0046437606
 H   -0.5559399118    1.8549453318   -0.8706675964
 H   -0.5419595374    1.8455648215    0.9039510973
 H    0.5134774309   -0.4274440703   -0.8893165275
 H    0.5274413802   -0.4368083711    0.8816101929
 H   -3.7339802005   -2.1366884826    0.0202363681
 H   -2.8650995767   -4.7673485797   -0.0002981781