21

 C   -0.0181995964    1.6002559044    0.0831961120
 C    0.0605516172    0.0922025458    0.1664252409
 N    1.2188303209   -0.7264100517   -0.2760669560
 C    2.4666966506    0.0176523003    0.1192492575
 C    2.0627381050   -0.0231204030    1.5938246547
 C    2.9354458773   -0.3081659599    2.7494615676
 N    2.2066868209    0.9759926874    2.6532717237
 C    0.7703064994   -0.7041614668    1.1954791516
 C    0.1808390845   -1.8917862364    1.8964442748
 H    0.8050319572    2.1056932280    0.5891303691
 H   -0.0392431586    1.9277859692   -0.9624551762
 H   -0.9450491759    1.9407941259    0.5558690011
 H   -0.8515905672   -0.3898612115   -0.1841880515
 H    3.3450326125   -0.5876723647   -0.1184695619
 H    2.5762537620    1.0018413079   -0.3492042617
 H    2.5967083796   -0.9611382693    3.5496054838
 H    4.0105882521   -0.3172674992    2.5847263841
 H    2.8416333529    1.7125584830    2.3523868689
 H   -0.2894050623   -1.5886797284    2.8393817368
 H   -0.5835227587   -2.3675285148    1.2756832178
 H    0.9476416571   -2.6394635261    2.1252407131