13

 O    0.0055077816    1.4320386319    0.0106095870
 C   -0.0185619749    0.0137521988    0.0021867687
 C   -1.3998935279   -0.4506201813    0.0125405159
 C   -2.5308573325   -0.8624615438    0.0208685593
 C   -3.8495671350   -1.3696254237    0.0305413313
 N   -4.9481272678   -0.6091324666    0.0404802739
 N   -5.8917521525   -1.5356030810    0.0465347809
 N   -5.4520615457   -2.7873471564    0.0409104209
 N   -4.1516092158   -2.7052214208    0.0306311039
 H    0.9286545689    1.7049098764    0.0017195938
 H    0.4826158260   -0.3964299418   -0.8901117188
 H    0.4995031854   -0.4072250528    0.8796963698
 H   -6.8757461998   -1.3103701589    0.0548081434