18

 C   -0.1404029051    1.5330839623    0.0658180285
 N    0.1301846628    0.0933416122    0.0755360864
 C    1.3809220837   -0.5044632161   -0.3042136407
 C    2.6060237062    0.3083321516    0.1135639027
 O    2.8366368053    1.5033521243   -0.5904715090
 C    2.0215340977    0.3037199108    1.5622615842
 O    2.4249254776    0.7300195871    2.6078915912
 C    0.8605683156   -0.5802766923    1.1447995121
 C    0.2194468630   -1.6752103508    1.9421231356
 H    0.6868125527    2.1676958213    0.3983095037
 H   -0.3994174612    1.8209709772   -0.9570872476
 H   -1.0108003140    1.7143961780    0.7033014568
 H    1.3759702916   -1.2994141467   -1.0422433313
 H    3.5047395056   -0.3321980005    0.1311389310
 H    3.5224586590    1.9928845929   -0.1222908289
 H   -0.3645860241   -1.2555293037    2.7681562402
 H   -0.4557617412   -2.2572901976    1.3102049563
 H    0.9718090846   -2.3429918301    2.3729967090