18

 O   -0.0810683429    1.3343455592    0.0368662228
 C    0.0369386942   -0.0610548490    0.0227513082
 C    1.0141180289   -0.6957786732    1.0191967643
 C    1.2583501679   -2.1016063437    0.3895830822
 N    0.4553989102   -2.1705567927   -0.8558654033
 C   -0.9990617838   -2.1294384957   -0.6022074557
 C   -1.2429050294   -0.9854679198   -1.5311818299
 C   -1.3358948932   -0.7340632216   -0.0384289370
 C    0.2921371949   -0.7683350144   -1.3623945397
 H    0.8029208891    1.7080587164   -0.0530517171
 H    1.9423869221   -0.1132232563    1.0749174077
 H    0.5943974088   -0.7379919466    2.0281018997
 H    2.3131243345   -2.2459288915    0.1345647657
 H    0.9664004228   -2.9233541486    1.0492748906
 H   -1.5886675438   -3.0155874165   -0.4025030357
 H   -1.9361462419   -0.8487611363   -2.3460076794
 H   -2.2038061401   -0.5318616366    0.5756905891
 H    1.0120893516   -0.3894737932   -2.0882741126