18

 O   -0.6005237396    0.7204820354    0.8211338873
 C    0.0739358131    0.9390257356   -0.1543512808
 C    1.3414894162    1.7681525177   -0.1375539861
 C    1.3672814935    2.8450330675   -1.2380121489
 C    2.5900662656    3.7633128258   -1.1135029372
 C    2.6841288703    4.6288480986   -2.3625788921
 O    2.6945371892    3.8240488103   -3.5539651166
 C    1.9583591061    2.6919150863   -3.5088371393
 N    1.3126847070    2.1858577207   -2.5457907720
 H   -0.1983221909    0.5356750151   -1.1512132065
 H    1.4498731795    2.2145099703    0.8553740710
 H    2.1886352667    1.0886191579   -0.3072021790
 H    0.4580149765    3.4557148787   -1.1349237741
 H    2.5257622843    4.3981390740   -0.2239952926
 H    3.4977349132    3.1548833398   -1.0207484938
 H    1.8334884209    5.3194898060   -2.4244552628
 H    3.6049342644    5.2155051228   -2.3935077263
 H    1.9788937841    2.2020260075   -4.4809101003