21

 C    0.0502215193    1.4704661846    0.1250640072
 C   -0.0261176199   -0.0269799227    0.0018084504
 C   -0.0420802815   -0.6599478209   -1.1757998208
 C   -0.1631399163   -2.1598867642   -1.2947089587
 C    1.0663400011   -2.9243197026   -0.7592807183
 O    1.6125238853   -2.3892740400    0.4371284247
 C    0.6877362593   -2.0773648832    1.4301258812
 C    1.0403839420   -0.8744425022    2.2482426069
 C   -0.1255478019   -0.8106695265    1.2735217216
 H    0.9338951618    1.7772638080    0.6979109504
 H    0.0899982833    1.9546999499   -0.8545566534
 H   -0.8197486128    1.8658341007    0.6659397018
 H    0.0337394752   -0.0809673226   -2.0934147484
 H   -1.0534552990   -2.4983813664   -0.7522493799
 H   -0.3104548056   -2.4578521682   -2.3380484940
 H    0.7993774148   -3.9843196566   -0.6211289490
 H    1.8880478144   -2.8799640824   -1.4809000649
 H    0.2264227677   -2.9361705036    1.9204380266
 H    0.8288188337   -0.8808102606    3.3114961327
 H    1.9572577751   -0.3701033799    1.9637041426
 H   -1.1106902257   -0.8071588706    1.7403540714