21

 C    0.0720665639    1.5401375880   -0.0298194231
 C    0.0071392799    0.0117185760   -0.0185256398
 O    0.8074714227   -0.5172530420    1.0300085378
 C   -1.4443491713   -0.5351150773    0.0599101095
 C   -2.3292397169   -0.0578575070   -1.1113415870
 C   -1.4444163725   -1.9960422205    0.1259864693
 C   -1.4707418757   -3.1994713530    0.1349328681
 C   -1.4689511440   -4.6553949094    0.1779334796
 O   -2.4576653931   -5.1657254601   -0.7114671533
 H    1.1176332340    1.8559404784    0.0126071804
 H   -0.3793883302    1.9682222477   -0.9287062682
 H   -0.4467333442    1.9606336865    0.8414665439
 H    0.4640156578   -0.3793328721   -0.9352393819
 H    0.4397435123   -0.2100809590    1.8663525825
 H   -1.8800115205   -0.1437696279    0.9937009545
 H   -2.4575730198    1.0273001682   -1.0943889580
 H   -1.8844928938   -0.3426614385   -2.0699655773
 H   -3.3170194685   -0.5205522807   -1.0517342400
 H   -0.4650135577   -5.0213657079   -0.0927652637
 H   -1.6582659444   -4.9867352592    1.2123650998
 H   -2.4160338678   -6.1262344100   -0.6623658732