21

 C   -0.0200609653    1.5439195948   -0.2400696225
 C   -0.0741638421    0.0446333152    0.0816670489
 C    0.6951820401   -0.3304806179    1.3093011909
 O    0.3497932676   -1.5476891961    1.9941490850
 C    0.3829130401   -0.3169835681    2.7373568825
 C    1.8554788468    0.0311512812    3.1056775964
 C    2.8681027352   -0.9549906535    2.5749565031
 C    2.8287708212   -2.4813940767    2.6105603478
 C    2.1964062138   -0.0017024542    1.6115638382
 H    1.0059013554    1.8807295668   -0.4185255618
 H   -0.6018875755    1.7661131154   -1.1391962029
 H   -0.4288035898    2.1389053530    0.5828088513
 H   -1.1111458210   -0.2768671278    0.2277732347
 H    0.3150269321   -0.5303337313   -0.7698065055
 H   -0.5109664020   -0.0388643789    3.2838804623
 H    2.1042906208    0.8011585870    3.8253071777
 H    3.8651310475   -0.5685804985    2.7864173390
 H    2.0701466394   -2.8573056870    3.2976821814
 H    2.6120171146   -2.9043573847    1.6273038629
 H    3.8015038686   -2.8664907040    2.9350404500
 H    2.7552138922    0.7355919252    1.0483795807