23

 C   -0.1658656376    1.5115384244    0.0704059601
 C   -0.0114886549   -0.0100731363   -0.0327455200
 C    0.7418892171   -0.4188676357   -1.3240266870
 C    0.0519755935   -0.0437345868   -2.5522770630
 C   -0.5381209264    0.2673174920   -3.5528223548
 C    0.6952119102   -0.5869623359    1.1916123714
 C    0.0029022228   -0.4852212899    2.5818464922
 C    0.5316474423   -1.9073152025    2.9083222942
 C    0.7577077646   -2.1306756303    1.3890213130
 H    0.8142269542    1.9999768245    0.1346285374
 H   -0.6842970175    1.9133966279   -0.8043259434
 H   -0.7352223903    1.7894566741    0.9625368770
 H   -1.0141759460   -0.4569109390   -0.0859051054
 H    1.7421529863    0.0363699032   -1.3134800040
 H    0.9015958638   -1.5043674986   -1.3202548870
 H   -1.0488976900    0.5386658100   -4.4430388876
 H    1.7082677453   -0.1672112805    1.2556298540
 H    0.2951084265    0.3351788423    3.2416510966
 H   -1.0876856354   -0.4758359376    2.4789453554
 H    1.4773978770   -1.8714405808    3.4566218175
 H   -0.1420671258   -2.5930013069    3.4272564936
 H   -0.1022614280   -2.6246760570    0.9229019480
 H    1.6662039184   -2.6532484706    1.0791192316