19

 O    0.8504788790    0.1300368861   -1.0212120981
 C    0.0460027509    0.0089826570    0.1496717946
 C   -1.2818362120   -0.5175255908   -0.1833730281
 C   -2.3436803580   -0.9947727513   -0.4853014644
 C    0.7361001013   -0.8357226834    1.2498997862
 C    2.1328185095   -0.2431104518    1.5870755655
 C    1.8953413700    0.5068952503    2.8754793823
 C    0.7122013178    0.2180589073    3.4136981400
 C   -0.0611978630   -0.7791459861    2.5840718761
 H    0.8363091557   -0.7230960840   -1.4698059858
 H   -0.0563232591    1.0353945430    0.5243244841
 H   -3.2908079933   -1.3955178008   -0.7508798712
 H    0.8117452295   -1.8606665731    0.8730325884
 H    2.8801248142   -1.0357938374    1.7290454371
 H    2.5062696179    0.3864286709    0.7731971087
 H    2.6325891227    1.1771158054    3.3038229686
 H    0.3332456333    0.6141346587    4.3494273051
 H   -1.1071819713   -0.4918633214    2.4267975206
 H   -0.0905994752   -1.7608192785    3.0756983703