25

 C   -0.0686281798    1.6182978581   -0.0410289587
 C    0.0453977450    0.0932824204    0.0691593455
 C   -1.3105528182   -0.5995043062    0.0303149430
 C   -2.1406827437   -0.6247270405   -1.2835468349
 C   -2.6228976015   -2.0525058264   -0.9138000069
 C   -1.4309755267   -2.1521628353    0.0918365292
 C   -0.2323242769   -2.9121482177   -0.4749646818
 O   -1.7460986855   -2.5645261109    1.4112160047
 C   -2.1879551021   -3.8961558352    1.5517825471
 H    0.9163974159    2.0944974653   -0.0119542922
 H   -0.5531045107    1.9136957863   -0.9780741842
 H   -0.6632906434    2.0300005189    0.7819537135
 H    0.6803482627   -0.2806307138   -0.7439128878
 H    0.5567631589   -0.1676834603    1.0048032060
 H   -1.9391755602   -0.2161147904    0.8422107912
 H   -2.9058227559    0.1434420414   -1.4117719089
 H   -1.5005700293   -0.6232778860   -2.1719439868
 H   -3.5753887716   -2.0307766599   -0.3775246614
 H   -2.6783160414   -2.7949828929   -1.7141709226
 H    0.0490585261   -2.5212732216   -1.4570917069
 H    0.6321128815   -2.8257964858    0.1903698009
 H   -0.4630201791   -3.9740743291   -0.6048268340
 H   -2.5396267495   -4.0067363202    2.5809560419
 H   -3.0211373586   -4.1275460108    0.8713776564
 H   -1.3886742059   -4.6311152173    1.3799270277