16

 C   -0.0207343383    1.4339731644   -0.0944409387
 N    0.0235107685    0.0077899205    0.1690941590
 C   -1.1689132303   -0.7085320396    0.0851206237
 C   -2.4588337305   -0.1922985662    0.0680060143
 N   -3.3366892715   -1.2447973328    0.0441816275
 C   -2.6389150274   -2.4274603305    0.0311649006
 C   -1.2861899303   -2.1219241041    0.0593457991
 C   -3.2925415883   -3.6765977648   -0.0038608026
 N   -3.8428393809   -4.6973343314   -0.0337914731
 H    0.9932344216    1.8380527829   -0.0554799287
 H   -0.4649567177    1.6903659926   -1.0706785208
 H   -0.6068876413    1.9366252032    0.6833875178
 H    0.7899229684   -0.4580923174   -0.2942933539
 H   -2.8120767495    0.8244698906    0.0778798601
 H   -4.3387633285   -1.1724583987    0.0270786589
 H   -0.4823936839   -2.8412250988    0.0670119369