23

 C    0.3910013391    0.7818285368    1.6996934131
 C   -0.1346949167   -0.6576397056    1.5847141336
 C   -0.3594052141   -1.2766559048    2.9723456050
 C   -1.4041441381   -0.6824479889    0.7475207427
 C   -1.3414248170   -0.6462763636   -0.7611370756
 C   -1.8780997142   -1.8721305610   -0.0624147078
 C   -1.1357432429   -3.1990707581   -0.1270280486
 C   -1.6929628211   -4.1891450446    0.8728608057
 O   -1.0647288390   -4.7175976303    1.7541582619
 H    1.3260859110    0.8146322426    2.2682412827
 H    0.5758716541    1.2185878591    0.7133474905
 H   -0.3337792856    1.4219025440    2.2169627774
 H    0.6342668269   -1.2480034400    1.0688849170
 H   -0.6376750157   -2.3314210991    2.9037630771
 H    0.5486563849   -1.2089847177    3.5807287893
 H   -1.1561900577   -0.7479595407    3.5094796151
 H   -2.2093669437   -0.0990594766    1.1919649336
 H   -2.0297842919   -0.0151891370   -1.3128596156
 H   -0.3572267271   -0.7279510586   -1.2141164135
 H   -2.9589430960   -1.9915838196   -0.1064195491
 H   -1.2736021130   -3.6351332254   -1.1279699313
 H   -0.0630379018   -3.0886870036    0.0471160638
 H   -2.7804603203   -4.4043296173    0.7416841330