15

 O   -0.1719789340    1.4391907495    0.1935402716
 N    0.0270990247    0.0389657295    0.2029835258
 C   -1.0549865956   -0.5755902586    0.0130095400
 C   -2.5668839970   -0.4754666925   -0.1298047637
 C   -2.4755978459   -1.6428684943   -1.1561075767
 C   -1.5346333415   -2.0274674699    0.0184387004
 N   -2.6669708019   -1.5630447141    0.9533862959
 C   -0.7563296402   -3.2857582312    0.2403306707
 O   -0.4534851703   -4.0389354331   -0.6476555929
 H    0.7251787312    1.7661246709    0.3217452862
 H   -3.2182153465    0.3942292901   -0.1336759219
 H   -3.3761807191   -2.2549692928   -1.2179187176
 H   -2.0116413949   -1.4365266376   -2.1191851910
 H   -2.2672843204   -1.2054131247    1.8271568137
 H   -0.4635046087   -3.4730376813    1.2967702696