22

 C   -0.0299678034    1.5869761934    0.1229032002
 C   -0.0428435722    0.0599216284    0.2321390672
 C   -1.3248581640   -0.5602923073   -0.3403467263
 C   -1.4010841018   -2.0679870393   -0.1658185266
 C   -0.3917403488   -2.8850310239   -0.9494336309
 N   -1.7375312164   -2.5003755531    1.1985507029
 C   -2.7290485632   -2.7184073788    0.1118015791
 C   -3.9715688310   -2.0000937408    0.1773811533
 C   -5.0252025376   -1.4205841018    0.1999824238
 H    0.8876260283    2.0090973742    0.5446028222
 H   -0.0961530821    1.9119068535   -0.9216860596
 H   -0.8775504291    2.0276023208    0.6591826262
 H    0.8362444565   -0.3457751474   -0.2840738088
 H    0.0473516497   -0.2386285537    1.2834113557
 H   -2.1917283771   -0.1101903277    0.1527699728
 H   -1.4117575942   -0.3208228251   -1.4089822402
 H    0.6304126863   -2.6660640567   -0.6225845753
 H   -0.5617555343   -3.9588770234   -0.8188463165
 H   -0.4515299448   -2.6627043646   -2.0203350289
 H   -1.2862329871   -3.3870050897    1.4141284363
 H   -2.8301849163   -3.7368939045   -0.2594284168
 H   -5.9522934874   -0.9038929424    0.2293926501