16

 C    1.4384420894   -0.4829603986    0.1466178086
 C    0.0407627508    0.0264357090    0.0615782956
 N   -0.1792597170    1.3646909088    0.0795379614
 H   -1.1150754787    1.7323643773    0.1474064596
 H    0.5598363901    1.9722029215    0.3871354554
 N   -0.9569109081   -0.8070953522   -0.0723669513
 C   -0.9935544337   -2.2028254408   -0.1737785247
 C   -0.0580868325   -3.2375736077   -0.1939444172
 N   -0.7646577794   -4.3717145922   -0.3126585151
 N   -2.0687434797   -4.0404731355   -0.3629046372
 N   -2.2312337349   -2.7313581629   -0.2804627459
 H    2.1515318705    0.3308185783    0.2842639901
 H    1.5247893983   -1.1926881542    0.9759416277
 H    1.6897784454   -1.0306647700   -0.7680786254
 H   -1.9062590148   -0.4432461819   -0.1228839115
 H    1.0181143442   -3.2417647288   -0.1368121001