17

 O   -0.7567842555    1.0783215026    0.6877513671
 C    0.1182862518    1.1272739931   -0.1382030637
 C    1.3443603079    2.0117160836   -0.0613022489
 C    1.2531574960    3.0616890202   -1.2147224117
 C    0.6852001993    4.2725026876   -0.5126739631
 C    0.7516396558    4.1604051502    0.8118398338
 C    1.3952949573    2.8624990689    1.2427737022
 C    0.8030321422    2.1898631944    2.4817125312
 O    1.3699540588    1.3056801939    3.0713554652
 H    0.0596538949    0.5168872164   -1.0679185341
 H    2.2204222825    1.3656265599   -0.1794021588
 H    2.2435122654    3.2717998950   -1.6387850411
 H    0.6305465334    2.7128113592   -2.0484589225
 H    0.3075640763    5.1323271959   -1.0538971272
 H    0.4342800970    4.9146648207    1.5231682950
 H    2.4512791418    3.0324642080    1.4989048688
 H   -0.1601246849    2.6069846403    2.8410458577