21

 C    0.0562937486    1.5790610806    0.0601012309
 C   -0.0139664816    0.0500599450    0.0033534945
 C   -1.4470587566   -0.5290882269   -0.0502750914
 C   -2.2015739419   -0.1105938792   -1.3261212719
 C   -1.4255302229   -2.0281070539    0.0995912081
 C   -1.9448445324   -2.7816877201    1.1339926002
 N   -1.6864512894   -4.0812035073    0.8436414312
 N   -1.0283010418   -4.2407126768   -0.3183852734
 C   -0.8688250535   -3.0000565020   -0.7706992223
 H    1.0916456023    1.9159107581    0.1725573898
 H   -0.3417744765    2.0452701037   -0.8462960077
 H   -0.5127660544    1.9697525274    0.9117736204
 H    0.5490182992   -0.3140794698   -0.8662273531
 H    0.4891056441   -0.3670824113    0.8834863588
 H   -1.9956790517   -0.1219506156    0.8105376914
 H   -2.2984259815    0.9765124015   -1.3986096093
 H   -1.6781194153   -0.4618593068   -2.2223208352
 H   -3.2072113992   -0.5405653848   -1.3399733625
 H   -2.4674712771   -2.4926611912    2.0327379274
 H   -1.9278057794   -4.8947459280    1.3829711384
 H   -0.3588741093   -2.8429633626   -1.7103544942