23

 C   -0.1542543389    1.5783689468   -0.0403032193
 C    0.0719844190    0.0633648608    0.0011167298
 C    0.8835472986   -0.4880509379   -1.1556602928
 C    1.6682933662   -1.4941566839   -0.7724664800
 C    1.5304045781   -1.7598383546    0.6858534374
 C    1.1938995614   -3.1638135753    1.1607246488
 C    2.5428959887   -2.5655827143    1.4609499016
 C    0.8281136480   -0.5067664940    1.2502357473
 C    1.8427284302    0.4793021963    1.8462268218
 H    0.7872172811    2.1343422884   -0.0680627245
 H   -0.7231862918    1.8497750425   -0.9361747819
 H   -0.7262196809    1.9226228528    0.8280005841
 H   -0.9228233073   -0.4089569980   -0.0325744000
 H    0.7756553056   -0.1213548550   -2.1709569781
 H    2.3062188484   -2.0896346611   -1.4173810231
 H    0.4880599740   -3.2640132182    1.9792018998
 H    1.1305008342   -3.9527202029    0.4184075834
 H    3.4079671741   -2.9471001541    0.9275206857
 H    2.7511149240   -2.2761137169    2.4856881986
 H    0.1111240574   -0.7803544325    2.0322514251
 H    2.5874287692    0.7801446370    1.1020393593
 H    1.3540296593    1.3825629572    2.2227900592
 H    2.3786631615    0.0226342670    2.6833538277