13

 N   -0.0139181340    1.3852181001    0.1570325712
 C    0.0421540644    0.0018044309    0.0430851790
 N   -1.0561380946   -0.7518219305    0.0153753925
 N   -0.6501558508   -2.0591846058   -0.0115103668
 C    0.7033260333   -2.1414485655   -0.0151217839
 C    1.1742960717   -0.8489834292    0.0219292741
 O    2.5228298409   -0.8293041088    0.0180879606
 N    2.9503483330   -2.1657495361   -0.0220646333
 C    1.8808233971   -2.9327035307   -0.0394224101
 H    0.6890442795    1.8650942848   -0.3886953442
 H   -0.9386840816    1.7413336047   -0.0475261668
 H   -1.3470854445   -2.7803078516   -0.0137122019
 H    2.0161060457   -4.0036848324   -0.0699570103