19

 C    0.1015323783    1.6033963137   -0.0942060499
 C    0.0145175398    0.0790968501    0.0268194754
 O    0.6028476954   -0.2388375228    1.2935226785
 C   -1.4577446326   -0.3949369193   -0.0058781668
 C   -2.3107682317    0.2048878322    1.0952023224
 O   -3.4106795711    0.6643359582    0.9225895271
 C    0.8034736833   -0.6116474416   -1.1105147761
 C    2.2720801886   -0.2347715982   -1.1435329148
 O    2.8713784809    0.0583331535   -2.1463376652
 H    1.1425449361    1.9339470730   -0.0492716384
 H   -0.3290601306    1.9395918990   -1.0411266703
 H   -0.4396186502    2.0857027188    0.7240339181
 H    0.5700315134   -1.1949691400    1.4135355701
 H   -1.9280634726   -0.1775655306   -0.9690966765
 H   -1.4741004612   -1.4878678305    0.1285668975
 H   -1.8454532373    0.1809398757    2.1034596540
 H    0.7505856052   -1.7011321744   -0.9585274591
 H    0.3662774201   -0.3974490621   -2.0899181830
 H    2.7766172462   -0.2596585447   -0.1543463429