16

 C    0.0207151769    1.4513643615    0.0184118099
 C    1.2706563024    0.6508554772    0.0485903754
 C    1.9831627501    0.3658754634    1.3984642396
 C    0.8846849627   -0.3853952833    2.0795233511
 C   -0.1991701107   -0.5696575390    1.2764942604
 N   -1.2083501505   -1.2401312104    1.8996868746
 C   -0.7255377318   -1.4681808974    3.1078858123
 N    0.5431071591   -0.9645310826    3.2786106833
 N   -0.0645624529   -0.0279649242   -0.0355952731
 H   -0.3083338005    1.9310603679    0.9368357973
 H   -0.2648182825    1.9599854230   -0.8980144718
 H    1.8738330917    0.5930311368   -0.8511564113
 H    2.8892644869   -0.2311888279    1.2329323320
 H    2.2940567178    1.2870204118    1.9069758267
 H   -1.2366705085   -1.9947144055    3.8997791269
 H    1.1061110598   -1.0535624513    4.1074822667