19

 O   -0.1788515375    1.3475193582   -0.1026065934
 C    0.0077815625   -0.0409488950    0.0124357502
 C    0.6348179305   -0.6387275821   -1.2649290392
 C   -0.0616952402   -0.1025603576   -2.5100148431
 O   -1.4571674872   -0.0124275996   -2.3937597961
 C    0.6260799337    0.9172627348   -3.3780515520
 C    0.4358766012   -0.5071400586   -3.8643509147
 C    0.8457939878   -0.3592564259    1.2273122840
 O    1.2617533936    0.5088709123    1.9577615686
 H    0.2667117150    1.7405376298    0.6647955889
 H   -0.9673929644   -0.5379889350    0.1567068717
 H    1.7037575387   -0.4020661090   -1.3132414775
 H    0.5382239765   -1.7308137807   -1.2128899164
 H   -1.6346284745    0.7695292476   -1.8547557627
 H   -0.0018537238    1.6807233933   -3.8231310755
 H    1.6229956986    1.2474709196   -3.1071615862
 H    1.3032162845   -1.1561339644   -3.9251137741
 H   -0.3190777716   -0.6808443082   -4.6220857266
 H    1.0618539267   -1.4310220695    1.4117130042