17

 C    0.1551080695    1.4508453793   -0.0793473961
 C    0.0456321086   -0.0588050600    0.0180278655
 O    0.9608386879   -0.7532462044   -0.8781515203
 C    1.4674604496   -1.5979299155    0.1789482282
 C    2.7580334728   -1.0651263674    0.8322710009
 N    1.9364347737   -0.1514232902    1.6816594428
 C    0.6866211701   -0.7963959726    1.2432700810
 C   -1.3323091207   -0.5221140112   -0.2215228420
 N   -2.4142016734   -0.8996864196   -0.3740350549
 H    1.1518490911    1.7512799720    0.2466075881
 H   -0.0107920584    1.7674767965   -1.1124377503
 H   -0.5940054889    1.9321744273    0.5563013282
 H    1.3718757490   -2.6600727164   -0.0482048569
 H    3.2913997197   -1.8413269236    1.3947747803
 H    3.4566074384   -0.5526894969    0.1643364767
 H    2.1141861458   -0.2154972236    2.6753843443
 H    0.0189263953   -1.1977320739    2.0048559446