23

 C   -0.0131544928    1.4628921844    0.0123330643
 N    0.0628786467    0.0126999749   -0.0341198930
 C    0.7141386806   -0.6485714721    0.9930252161
 O    1.3493074653   -0.0398416501    1.8439396303
 N    0.6224182625   -2.0272046533    0.9599153796
 C   -0.0167740111   -2.7290484201   -0.1369332016
 C    1.2350512275   -2.7899001717    2.0570733631
 C    0.2134202021   -3.6935508549    2.7591065720
 C    2.4734190872   -3.5683972123    1.5927215987
 H    0.9669215118    1.8564156678    0.2822188872
 H   -0.2934382076    1.8377735292   -0.9756595529
 H   -0.7371666650    1.8321278074    0.7512874237
 H   -0.7069998512   -0.4556075259   -0.4821079116
 H    0.2955197476   -2.3181187262   -1.1029107043
 H    0.2787285451   -3.7793284531   -0.1200088285
 H   -1.1163183804   -2.7013441043   -0.0859683120
 H    1.5636743183   -2.0225747865    2.7596503386
 H   -0.1546389332   -4.4898349663    2.1020064391
 H    0.6737794772   -4.1752289015    3.6272939625
 H   -0.6462465372   -3.1133759740    3.1071837196
 H    2.2234010675   -4.3475959500    0.8633358070
 H    3.2023759413   -2.8926843628    1.1373056406
 H    2.9499535778   -4.0625624486    2.4454534516