18

 C    0.1903101306    1.4335851659   -0.0809303501
 N    0.0444085605    0.0012370002   -0.0665977870
 C   -1.1339717013   -0.8757768269   -0.1321512022
 C   -0.1633606006   -2.0801142739   -0.0940226473
 C   -0.0801485659   -2.9538225144   -1.3344540742
 C    1.0112905067   -4.0004478269   -1.2960950369
 O   -0.8045752653   -2.7813429233   -2.2877755594
 C    0.9692574648   -1.0008503548   -0.0323711189
 O    2.1725834057   -1.0177558869    0.0064617452
 H    1.2583194911    1.6605464561   -0.0465397026
 H   -0.2356413602    1.8680175804   -0.9931571003
 H   -0.2981049845    1.8951544056    0.7856877546
 H   -1.8025093994   -0.7827584892    0.7299467498
 H   -1.6973379911   -0.7979899845   -1.0654173456
 H   -0.1935185827   -2.6879807815    0.8139522336
 H    0.7995666989   -4.7374674685   -0.5126331201
 H    1.0853982892   -4.5032470199   -2.2608137196
 H    1.9619412934   -3.5209399877   -1.0347865392