19

 C   -0.1189960161    1.3823861755    0.0007273888
 O    0.1067007135   -0.0078025743    0.0566994614
 C    0.6819058567   -0.5511665786   -1.1180494291
 C    1.2467533452   -1.9564116340   -0.8153709653
 C    0.9730291395   -2.8026362839   -2.0816176357
 C   -0.1415022040   -2.0386672131   -2.7612331749
 C   -0.9312134241   -2.5744976451   -3.8749737441
 O   -0.7609073796   -3.6697744734   -4.3630898445
 C   -0.3033449984   -0.8160145099   -2.2375705080
 H    0.8121107083    1.9367481021   -0.1956823434
 H   -0.8524848281    1.6602831430   -0.7711740157
 H   -0.5114071614    1.6842275758    0.9746980730
 H    1.4722990748    0.1323877203   -1.4782726672
 H    2.2995551808   -1.9319768214   -0.5275773577
 H    0.6775555252   -2.3477610224    0.0331105079
 H    1.8512742524   -2.8545940980   -2.7369150701
 H    0.6919716090   -3.8368764985   -1.8652076718
 H   -1.7246260057   -1.8914711453   -4.2532841962
 H   -1.0288441379   -0.0844987888   -2.5780707573