13

 C   -0.0571959630    1.5455284468   -0.0728182117
 C   -0.0044126084    0.0352201154    0.0184005169
 N    1.3078341023   -0.5933511121   -0.1948015439
 C    0.7116642237   -0.6765888750    1.1459404284
 C    1.3527985685    0.0752625274    2.1978430554
 N    1.8409006431    0.6766174011    3.0554365484
 C   -1.1661928482   -0.6643762282   -0.4929339600
 N   -2.0837691257   -1.2220434425   -0.9220893033
 H    0.8527994548    1.9724219510    0.3516175171
 H   -0.1350709941    1.8532990467   -1.1188270404
 H   -0.9223566200    1.9337364653    0.4709397411
 H    1.2224967908   -1.4893830641   -0.6694602308
 H    0.2889198562   -1.6230255619    1.4705712328