20

 C    0.1750534099    1.6508244555   -0.3935423810
 O   -0.3260067691    0.3400280295   -0.5387849455
 C    0.5958626112   -0.5640053178   -1.0962523460
 C    1.7660108468   -0.9825291269   -0.1866007373
 C    2.0575346618   -2.4282784685   -0.6026559849
 O    3.0297445068   -3.0936770030   -0.3249787125
 N    0.9910835786   -2.8363199895   -1.3609906328
 C   -0.1228462582   -1.9002647949   -1.4355914152
 C   -1.2704302834   -2.2538973493   -0.4843515903
 H    1.0160672374    1.6973228590    0.3130318989
 H    0.5096844813    2.0646830572   -1.3575064939
 H   -0.6412180584    2.2662576936   -0.0086983702
 H    1.0051558937   -0.1468171672   -2.0304259162
 H    2.6636047010   -0.3696409442   -0.2796625634
 H    1.4577017041   -0.9758462346    0.8651889765
 H    0.9120913294   -3.8039407783   -1.6340828242
 H   -0.5099157824   -1.8621380859   -2.4601998115
 H   -0.9289494316   -2.2897698948    0.5542530876
 H   -2.0681052172   -1.5117451390   -0.5571861581
 H   -1.6815228817   -3.2355181111   -0.7416252299