15

 C   -0.2788387612    1.4434075376    0.0944517551
 C    0.0203110345   -0.0142029998    0.0469274426
 N    1.1348993010   -0.4863863985   -0.4475818421
 O    1.0007125926   -1.8752510611   -0.2923586043
 C   -0.1922427176   -2.0777029329    0.2763640160
 C   -0.6011519470   -3.4737333481    0.5911967842
 C   -0.9425946261   -3.6565809052    2.0739348897
 O   -0.7039571563   -4.6628443951    2.6815064242
 N   -0.8473118756   -0.9819120778    0.5149844523
 H   -0.4447429035    1.7617419655    1.1279081211
 H    0.5483084307    2.0140623919   -0.3296259067
 H   -1.1927063935    1.6604570377   -0.4664238534
 H   -1.5177458915   -3.7064059892    0.0320025971
 H    0.1687709593   -4.1896536228    0.3007412065
 H   -1.4515629555   -2.7855547221    2.5359242077