19

 C    0.1808529104    1.4253747342    0.0067231441
 C   -0.0080360589   -0.0942531993   -0.0000208076
 C   -1.4778184006   -0.4799480637    0.0130085814
 O   -1.5571843751   -1.9200732055    0.0055169706
 C   -2.7993894334   -2.4394112102    0.0169299667
 O   -3.8093913909   -1.7904214263    0.0320185530
 C   -2.7010269090   -3.9655343001    0.0080837928
 C   -3.9860624361   -4.6430801063    0.0137496711
 C   -5.0344985855   -5.2271204088    0.0182729326
 H    1.2426545203    1.6861994999   -0.0028077983
 H   -0.2839888218    1.8892749546   -0.8698940819
 H   -0.2656337006    1.8791479797    0.8980584720
 H    0.4661199259   -0.5311667764   -0.8863422091
 H    0.4843294778   -0.5412339314    0.8712244617
 H   -1.9911868938   -0.1005263604    0.9030015697
 H   -2.0094304298   -0.0903814673   -0.8617741371
 H   -2.1090513702   -4.2535360460   -0.8694518994
 H   -2.0969873584   -4.2623693649    0.8744564140
 H   -5.9694671404   -5.7301957217    0.0227170836