17

 O   -0.2330969236    0.2486600729    0.1283801157
 C    0.0766371804    1.4109515101    0.0611695267
 C    1.4723588466    1.9060957830   -0.2559913221
 C    1.4867314575    2.8865946411   -1.4202239159
 O    0.5954490530    4.0280987657   -1.2329763207
 C    1.6550399866    4.9670470085   -1.4909513677
 C    2.4003562937    5.3910724752   -0.2195912983
 O    3.2751483865    4.2315730861   -0.3138328899
 C    2.6966684875    3.8335746446   -1.5678291074
 H   -0.6653234046    2.2181259405    0.2402484342
 H    1.8697897000    2.4245939627    0.6259976906
 H    2.1118125901    1.0451648220   -0.4734221380
 H    1.2406283739    2.3811492487   -2.3642003992
 H    1.4042783306    5.7027847564   -2.2558608624
 H    2.9746053607    6.3216706921   -0.3052959073
 H    1.7994642541    5.3980175691    0.6952328663
 H    3.4394785170    3.6430422414   -2.3435587447