18

 C   -0.0197509808   -1.2496293383   -0.0044679647
 C   -0.0352131054   -0.0477296226    0.0024377075
 C   -0.0189562059    1.4099499112    0.0106536081
 C    1.4068618298    1.9971765102   -0.0008683121
 C    1.4072769853    3.5273996244    0.0078834330
 C    2.8330913492    4.1146252720   -0.0036127263
 C    2.8492778668    5.5723017055    0.0046326644
 C    2.8342579636    6.7742080207    0.0115018610
 H   -0.0196635547   -2.3112466900   -0.0104271367
 H   -0.5754978482    1.7862200986   -0.8579575920
 H   -0.5571832055    1.7761497328    0.8949666809
 H    1.9549105294    1.6159401435    0.8690265886
 H    1.9365925316    1.6259814127   -0.8863143929
 H    0.8592488500    3.9086445604   -0.8620201886
 H    0.8775372736    3.8986002133    0.8933222128
 H    3.3896139155    3.7383560270    0.8650107737
 H    3.3713379690    3.7484122927   -0.8879113709
 H    2.8344804266    7.8358296858    0.0167145141