15

 C    0.3546389858    1.4308841108    0.0415650310
 O    0.5619043232    0.0393008205   -0.0385655496
 C    0.1978333370   -0.6328483810    1.1404000499
 C    0.4603953191   -2.0839151718    0.9345990282
 C    0.9430218456   -2.8320043813   -0.0849660927
 N    0.9660814272   -4.1706715482    0.3013550208
 C    0.5064787899   -4.1587296287    1.5061605005
 O    0.1728444218   -2.9282214401    1.9727522567
 H    0.9523433054    1.8856200773    0.8468272222
 H    0.6632167104    1.8589905424   -0.9144241253
 H   -0.7045187807    1.6750862744    0.2176952148
 H    0.7737266680   -0.2594276418    2.0063854634
 H   -0.8680566555   -0.4677411279    1.3805141135
 H    1.2716567731   -2.5075940330   -1.0575650873
 H    0.3552701597   -4.9867718515    2.1803455740