17

 C   -0.1475507416    1.5976781740   -0.1316124183
 C    0.0496124287    0.0913465432   -0.0503931197
 C    0.7504120311   -0.6426731774   -1.1918735659
 C    2.1905789702   -0.3334573876   -1.2650067282
 N    1.7484428313   -1.3273997574   -0.2686382759
 C    1.1551317841   -0.5300632038    0.8843438102
 C    2.0621438316    0.3561922574    1.5859745030
 C    2.8088165002    1.1045538476    2.1604429935
 H    0.7900413889    2.1214507065   -0.3345707446
 H   -0.8565114289    1.8470458014   -0.9285623338
 H   -0.5474415488    1.9896505672    0.8091866013
 H   -0.9043802933   -0.3917286683    0.1783283633
 H    0.2408793168   -1.1988018572   -1.9726572179
 H    2.7543555628   -0.7865091653   -2.0745282351
 H    2.5793822944    0.6205441751   -0.9203191065
 H    0.7226723956   -1.2435764514    1.5902151994
 H    3.4721385968    1.7524675761    2.6783352251