18

 O    0.3634233985    1.0846523328   -0.5634987848
 C    0.1341933929   -0.1163448497    0.1270658582
 C   -0.1117735048   -0.0974701799    1.6627659108
 C   -1.2458989101   -1.1356627415    1.4364326834
 C   -1.2828340324   -0.7051329869   -0.0492779555
 C   -2.4034695116    0.2728997837   -0.4915045124
 N   -3.0589343916   -0.3804824781   -1.6366162073
 C   -2.4228489602   -1.4580661076   -1.8214232062
 O   -1.3828313756   -1.7779406810   -1.0102475573
 H    1.2837905259    1.3389214517   -0.4477699886
 H    0.8715665545   -0.8861063330   -0.1389137543
 H    0.7168273055   -0.3787100986    2.3149925497
 H   -0.5037151531    0.8750493181    1.9723338301
 H   -0.8934219224   -2.1651638029    1.5353129260
 H   -2.1696859081   -1.0158896227    2.0061691682
 H   -3.1343276857    0.4515915809    0.3045775183
 H   -1.9963489748    1.2397414395   -0.7993418220
 H   -2.6292480370   -2.1900233246   -2.5944789962