16

 C    0.0496312493    1.5649109353   -0.0544438339
 C    0.0162260259    0.0386961083    0.0469760002
 N    0.6759113849   -0.4637947318    1.2369669101
 N    2.0399603509   -0.5931183311    1.2844758698
 C    2.2280681252   -1.0828060011    2.4933893810
 N    1.1037281678   -1.2636189307    3.2421440273
 C    0.1502408602   -0.8580587607    2.4188125701
 N   -1.2117244483   -0.9015271569    2.6738684715
 H    1.0835117683    1.9189492794   -0.0507427025
 H   -0.4290056449    1.8934380257   -0.9818617716
 H   -0.4744595700    2.0330101665    0.7852022136
 H   -1.0114169495   -0.3381870758    0.0614101691
 H    0.5207835374   -0.4109261697   -0.8121565455
 H    3.2168496681   -1.3186522424    2.8587509352
 H   -1.3783177033   -1.1602888373    3.6375350531
 H   -1.7126652019   -0.0546683677    2.4394101526