21

 C    0.0112887158    1.5374013898    0.0021514749
 C    0.0054875580    0.0219617335    0.0335826600
 C   -0.8639007153   -0.6596688358    1.0601139627
 C    0.6416847675   -0.6795023251    1.2227781578
 C    1.4084632427   -1.9933703569    1.0744270486
 C    1.7360964721   -2.3545714853   -0.3920749827
 C    0.5471006702   -2.0921769893   -1.2990492619
 O   -0.0031054340   -2.9565992121   -1.9410099406
 C    0.1152746687   -0.6328900382   -1.3418971647
 H    0.9473232704    1.9238794439   -0.4186347316
 H   -0.8119692953    1.9215315878   -0.6119576156
 H   -0.1018338715    1.9555566689    1.0073312537
 H   -1.4516203825   -0.0424685212    1.7316282333
 H   -1.3465274748   -1.5924356425    0.7805313146
 H    1.0315571476   -0.0160158778    1.9892333036
 H    2.3448726199   -1.9382653621    1.6380812443
 H    0.8313582254   -2.8109472673    1.5214380905
 H    2.5638142130   -1.7208244241   -0.7372481626
 H    2.0380279070   -3.3995771901   -0.4883105393
 H   -0.8239443481   -0.5577603956   -1.8987838713
 H    0.8829312833   -0.1016360105   -1.9247865238