21

 C    0.0039415993    1.4972477905   -0.0194477737
 C    0.0189783266   -0.0062037159   -0.0363666564
 C    0.5606201874   -0.9469979597   -1.1390744029
 C    0.0328055877   -1.9079834131   -0.0471253154
 C    0.0396334360   -3.4115898224   -0.0472196361
 C    0.6333705036   -0.9589474726    1.0660045281
 C   -0.3378018714   -0.9726992092    2.2310500082
 C   -1.5399791728   -0.9779183817    1.6451831168
 C   -1.2208528413   -0.9673092754    0.1623655921
 H    1.0196596669    1.9024920631   -0.0874257275
 H   -0.5711258752    1.8953095877   -0.8628760501
 H   -0.4492782544    1.8669340028    0.9068838430
 H    0.0236384881   -0.9455021012   -2.0938245555
 H    1.6434316550   -0.9381887700   -1.3044269312
 H    1.0610864308   -3.8012316943   -0.1202904045
 H   -0.4075612985   -3.7982828933    0.8750881663
 H   -0.5301507446   -3.8083997755   -0.8948137042
 H    1.7111593979   -0.9521093306    1.2421705805
 H   -0.0844998231   -0.9768897626    3.2821032692
 H   -2.5238351257   -0.9875206450    2.0933214210
 H   -2.0237149424   -0.9689569016   -0.5779859379