19

 C   -0.8151915412    0.2270549000   -0.0970854142
 C    0.6230312499    0.6468203316    0.2586543469
 C    1.2405842275   -0.2210624314    1.2569956402
 C    1.7560181465   -0.9799349259    2.0426884846
 C    2.3194664325   -1.8464694104    3.0305213273
 C    1.5658842725   -1.9738085126    4.3603703841
 O    0.3142571242   -1.3586216348    4.4504792294
 C    1.6061298580   -3.1534399565    3.4358825072
 O    0.4270125899   -3.5331012025    2.8262648867
 H   -1.4615716975    0.2638308634    0.7843793429
 H   -1.2306867047    0.8975184380   -0.8550518049
 H   -0.8356135495   -0.7937999347   -0.4871021581
 H    1.2404443900    0.6402005276   -0.6488243036
 H    0.6254654995    1.6849969513    0.6153769828
 H    3.4036623224   -1.8630093447    3.0969187647
 H    2.1336402804   -1.9611746230    5.2869727024
 H    0.3189887176   -0.5933980972    3.8570425566
 H    2.2528684755   -3.9932581633    3.6713076105
 H   -0.2515211834   -2.9360146149    3.1768700144