17

 C   -0.1271669606    1.5542026649   -0.0937760892
 C   -0.0866590085    0.0251560292   -0.0950651400
 C    1.1231477494   -0.5419672215   -0.9095534970
 O    1.8550240738   -0.8110721171    0.3571593710
 C    0.6672277116   -0.6317873940    1.0140316325
 N    0.0948126172   -1.1728560558    1.9986873551
 C   -1.3498522598   -0.8933488423    1.7167185689
 C   -1.4503609646   -0.6475191115    0.1619208044
 H    0.8739883803    1.9793848345    0.0263016786
 H   -0.5447333407    1.9264333015   -1.0356136520
 H   -0.7521459645    1.9309118529    0.7214061544
 H    0.9456600388   -1.4845702329   -1.4338519515
 H    1.6744394243    0.1646878950   -1.5321997841
 H   -1.9397892336   -1.7574262366    2.0321339405
 H   -1.7058823730   -0.0285814929    2.2914463789
 H   -2.3119557951   -0.0398873126   -0.1274758692
 H   -1.5221328152   -1.6134958208   -0.3482317011