20

 C    0.0733601938    1.5067137492    0.2242611698
 N    0.1479465892    0.0662848418    0.0406768638
 C   -1.0072792638   -0.7830694906    0.5117264128
 C   -0.0270782968   -1.9801923811    0.4016643875
 C    0.7309109859   -0.8313018620    1.1331589551
 C    2.1645406026   -0.7590436786    1.5672106662
 C   -0.5614738209   -0.6505270346    2.0062928895
 C   -0.7720783763    0.5399290356    2.9003813150
 O    0.0839356441    0.9907117366    3.6253458908
 H    1.0863276102    1.9202604100    0.2569892342
 H   -0.4358745418    1.9375289454   -0.6447547263
 H   -0.4590087948    1.8595429734    1.1220390265
 H   -2.0074548267   -0.6863942712    0.0865014615
 H   -0.2556512853   -2.8756062217    0.9823072504
 H    0.3219384756   -2.1920565262   -0.6083981790
 H    2.8286010614   -0.8305928247    0.7001069908
 H    2.3632012632    0.1768656516    2.0963780782
 H    2.3965978276   -1.5826742413    2.2497354125
 H   -0.8242391242   -1.5259160103    2.6193485532
 H   -1.8123099928    0.9417579687    2.9259370974