19

 O   -0.0910947390    1.4324878737   -0.0058662362
 C   -0.0160124591    0.0122910143   -0.0056698135
 C    0.7062725470   -0.5882590628    1.2271249280
 C    0.0408332880   -1.9623630866    1.4761918782
 C   -1.3740177817   -1.7871928096    0.9522406137
 O   -2.0703693920   -2.9426485794    0.6161154510
 C   -2.1368167561   -0.5455864685    1.3796714536
 C   -1.4027972080   -0.5869504547    0.0502206806
 O   -2.1381541607   -0.7083251991   -1.1304831189
 H    0.7971093855    1.7802770376   -0.1332980641
 H    0.4536354768   -0.3429762986   -0.9364011911
 H    1.7864967403   -0.6688887928    1.0778538154
 H    0.5450407933    0.0863196290    2.0739049661
 H    0.5238834063   -2.7487113633    0.8858592125
 H    0.0833509331   -2.2665390633    2.5268453106
 H   -2.5110627437   -2.7622230402   -0.2252662478
 H   -3.2152826617   -0.6362383537    1.3080595525
 H   -1.7801198364    0.0957501025    2.1784227857
 H   -2.5854858120    0.1280656757   -1.2979579364