15

 C   -0.0801010069    1.3447196261   -0.0911863675
 O   -0.0182539200   -0.0634221929   -0.0096004115
 C    0.5636126490   -0.6505823596   -1.1439096913
 C    0.6282259606   -2.1617800568   -0.8932252952
 C    1.0217108645   -2.9521287668   -2.1522189073
 O    1.0457700480   -2.4687216347   -3.2497583473
 C    1.5207752330   -2.5185187815    0.2098874707
 N    2.2538242286   -2.8316329609    1.0461832369
 H    0.9226707734    1.7888228570   -0.1790832185
 H   -0.6831672801    1.6748941686   -0.9506306206
 H   -0.5470238690    1.7000631689    0.8294784150
 H   -0.0318598552   -0.4715774680   -2.0503981403
 H    1.5752176216   -0.2580649593   -1.3296055740
 H   -0.3819783192   -2.5029837788   -0.6186025717
 H    1.2663868017   -4.0180427413   -1.9674483773