14

 C   -0.5983340057    1.3893895734    0.0798524190
 C   -0.0335495161    0.0118096956   -0.0160653272
 N    0.1254207455   -0.5822081742   -1.1449528517
 C    0.4814028122   -1.8955600637   -1.2858190909
 N    0.1057471508   -2.9172003313   -0.5802039184
 C   -0.5199372330   -2.7359599245    0.6266946385
 N   -0.3396609127   -1.8072852079    1.5032798686
 C    0.4254251185   -0.6812002491    1.2549691195
 O    1.2884127321   -0.2314962218    1.9680347987
 H    0.1231512380    2.0379762336    0.5881521831
 H   -0.8331328569    1.7826382613   -0.9095007801
 H   -1.5025642790    1.3793507606    0.6997815229
 H    1.0503187929   -2.1023979144   -2.1913456422
 H   -1.2051204866   -3.5397218877    0.8956511704