23

 C    0.0483029237    1.3616047076    0.2345539450
 O   -0.0246279773   -0.0393574908    0.3219578772
 C   -1.2368871737   -0.5598968578   -0.1911134234
 C   -1.1833607505   -2.0697665501   -0.1151806173
 C   -0.0502388503   -2.6766926690   -0.9237881755
 C   -1.5623918935   -2.7292760567    1.1907749520
 C   -2.4664180385   -2.8716072010   -0.0089643643
 C   -3.8527086240   -2.2800035447   -0.0236880581
 O   -4.7283893455   -3.2343834056    0.5663172287
 H    1.0127533353    1.6669706067    0.6480695283
 H   -0.0183136839    1.7127828768   -0.8080607684
 H   -0.7544146861    1.8515651948    0.8095364581
 H   -2.0861807408   -0.1575998942    0.3827717207
 H   -1.3688476474   -0.2336611868   -1.2388014925
 H    0.9119599142   -2.2742292222   -0.5957182821
 H   -0.0252005739   -3.7647469771   -0.8123951047
 H   -0.1628925801   -2.4519120781   -1.9916050661
 H   -0.9933881639   -3.5914696390    1.5212515320
 H   -1.9025179552   -2.0867922376    1.9969514424
 H   -2.4343027959   -3.8349418795   -0.5122668955
 H   -3.8786885748   -1.3313732313    0.5329354495
 H   -4.1573585530   -2.0597180970   -1.0602051367
 H   -5.6264755349   -2.8973332772    0.4949424409