22

 C    0.2247685564    1.5086853750    0.2553052654
 C   -0.1670710127    0.0783150467   -0.1420382639
 C    0.6167945666   -0.4598908906   -1.3346510945
 C    0.3953443827    0.3112187815   -2.6252605607
 C    1.9824063963   -1.0455106994   -1.0990955313
 C    0.8285889269   -1.9847877470   -1.4431383086
 C    0.3098403799   -2.9695028035   -0.4009632476
 C    0.8311322270   -2.5494186075   -2.7718143174
 N    0.8198537061   -3.0266812847   -3.8264603060
 H    1.2964025425    1.5783378245    0.4703479136
 H   -0.0058490703    2.2313295318   -0.5322858383
 H   -0.3182106712    1.8172926169    1.1535872449
 H   -0.0252904031   -0.5703153424    0.7264170906
 H   -1.2388323536    0.0456841702   -0.3777216971
 H    0.7509170401    1.3411597507   -2.5254835337
 H    0.9224249095   -0.1425232753   -3.4669506959
 H   -0.6696488030    0.3462132458   -2.8805122132
 H    2.7522539605   -0.8913983856   -1.8470417128
 H    2.3533073046   -1.1100535957   -0.0807642811
 H    0.4423583984   -2.5875831359    0.6121505980
 H   -0.7523158551   -3.1849907719   -0.5520893190
 H    0.8578789017   -3.9135618237   -0.4733456216