19

 C   -0.0551006801    1.5358357449    0.0778323227
 C    1.4420490772    1.9460570336   -0.0668214961
 C    2.2014468847    0.6312141279   -0.0650296748
 C    3.5107576023    0.3695827586   -0.1089762457
 C    3.9911616423   -1.0597168156   -0.0247532182
 O    3.0296456862   -1.9457377088    0.5243155574
 C    1.7529874615   -1.8540375916   -0.0916319689
 C    1.2226460900   -0.4528297251   -0.0060398665
 C   -0.0257774698    0.0244042076    0.0724769596
 H   -0.4967643085    1.9225129645    1.0053709804
 H   -0.6732854098    1.9333808111   -0.7367121340
 H    1.6132914866    2.4982538606   -0.9968358092
 H    1.7661056524    2.5997235777    0.7484649427
 H    4.2622968481    1.1498525213   -0.1910088768
 H    4.3151583235   -1.4171977410   -1.0210882058
 H    4.8641745242   -1.1317070932    0.6338524740
 H    1.8189717320   -2.1628615530   -1.1506200381
 H    1.1100694249   -2.5731766972    0.4235875047
 H   -0.9279394678   -0.5757239522    0.1250219528