22

 C   -0.1083531207    1.5991132213    0.2777832444
 C   -0.0084485046    0.0964394282   -0.0392468251
 C    0.8398030044   -0.6164388755    1.0299489341
 C   -1.4199248155   -0.5181094285   -0.0576254707
 O   -2.0251889712   -0.3295391205    1.2122813599
 C    0.5885348277   -0.1330380063   -1.4558106368
 C    2.0479659646    0.2932703178   -1.5886802506
 N    2.9423753084   -0.7323105614   -1.7307616355
 O    2.4024579573    1.4573360143   -1.5876907338
 H    0.8751727840    2.0703451614    0.2477550457
 H   -0.7404680741    2.1093897193   -0.4578777962
 H   -0.5549103461    1.7451273648    1.2638912896
 H    0.3516698080   -0.5470636872    2.0043669326
 H    0.9651447179   -1.6808469160    0.7950866440
 H    1.8342398830   -0.1676700751    1.1104751376
 H   -2.0130758556   -0.0372479876   -0.8524453595
 H   -1.3487008055   -1.5917458026   -0.3006390587
 H   -2.9168248086   -0.6863452307    1.1780048673
 H    0.4769004856   -1.1894908447   -1.7294195004
 H    0.0221217720    0.4554844753   -2.1853445926
 H    2.6780686518   -1.6920566442   -1.5962754238
 H    3.9228469770   -0.5002098620   -1.7242463914