18

 O    0.1090735448    1.3359997464   -0.3936520994
 C    0.0739824814   -0.0482459740   -0.0406048566
 C   -1.3750319709   -0.5382917909    0.0006488697
 O   -2.0378536830   -0.1682546210   -1.1950353839
 C   -1.4715651744   -2.0542837637    0.1421864506
 O   -0.8084498887   -2.4243743238    1.3376952408
 C   -2.9205609641   -2.5443158034    0.1837550790
 O   -2.9556066353   -3.9283119291    0.5377709568
 H   -0.1701408425    1.8441481093    0.3755359609
 H    0.6142294514   -0.5686208966   -0.8384613487
 H    0.5796245777   -0.2466054642    0.9102660363
 H   -1.8719429281   -0.0835895607    0.8781703025
 H   -1.6691221918    0.6933675721   -1.4332645829
 H   -0.9748439655   -2.5090023614   -0.7354331835
 H   -1.1769906370   -3.2860817734    1.5759081534
 H   -3.4607771766   -2.0234370177    0.9813027570
 H   -3.4262307558   -2.3465548408   -0.7672253676
 H   -2.6763336015   -4.4369777671   -0.2310506944