13

 C   -0.0482014320    1.4403109686   -0.0492439644
 N    0.0310390758   -0.0000349992   -0.0069290245
 N    0.0859304735   -0.7486577488   -1.1695950306
 C    0.1484807841   -1.9701379239   -0.6868029064
 O    0.2169180702   -3.0370593243   -1.4940624242
 N    0.1401018617   -2.0928146422    0.6733301118
 C    0.0655202650   -0.8279585655    1.0440790470
 O    0.0256878585   -0.3638289577    2.2985177181
 H    0.8267210252    1.8517127197   -0.5601109537
 H   -0.9496010342    1.7530152006   -0.5834361364
 H   -0.0824342447    1.8146159000    0.9744418896
 H    0.2526121902   -3.8135012576   -0.9234591475
 H    0.0619575568   -1.1316761596    2.8821855610