21

 C    0.0077125553    1.5904945998    0.0626557648
 C    0.1325234827    0.0637469597    0.0585595935
 C    0.6931079004   -0.5057904532   -1.2672331778
 C    2.1601014263   -0.1178596659   -1.3525638699
 O    2.5868969438    0.8426967411   -1.9385035543
 C    0.5397216372   -2.0509225591   -1.3675160590
 C   -0.9288052701   -2.5007878644   -1.5069507643
 C    1.3319626687   -2.5665295140   -2.4858056851
 C    1.9727118604   -2.9672188006   -3.4209834896
 H    0.9655639401    2.0749284600   -0.1455104139
 H   -0.7019450891    1.9261548068   -0.7006824589
 H   -0.3507832084    1.9457346284    1.0333794868
 H    0.7786846607   -0.2627208710    0.8856609207
 H   -0.8492362659   -0.3804255628    0.2510662364
 H    0.1804442164   -0.0360942143   -2.1141357782
 H    2.8399715200   -0.7795908531   -0.7647398553
 H    0.9431828267   -2.4850995912   -0.4408494914
 H   -1.3770630801   -2.0718463279   -2.4079338840
 H   -0.9831965347   -3.5892235377   -1.5890854426
 H   -1.5244375903   -2.1960771708   -0.6430949203
 H    2.5482943198   -3.3227860500   -4.2396688277