15

 N    0.0093260319    1.3291006342    0.0085452647
 C   -0.0183752742   -0.0098453334    0.0005978755
 N   -1.1922180176   -0.5903136441    0.0041188245
 C   -1.4357164915   -1.9165108841   -0.0016493611
 C   -0.6005812239   -3.0059353067   -0.0118271027
 N    0.7547477796   -3.0588769689   -0.0192143704
 C    1.5673019951   -2.0539471030   -0.0185198760
 C    1.3578009543   -0.6101862387   -0.0103448677
 N    2.3274152650    0.2421781598   -0.0124060989
 H    0.9140987008    1.7781828868    0.0057073779
 H   -0.8588611155    1.8362780707    0.0161061156
 H   -2.5004035142   -2.1501903125    0.0028403634
 H   -1.0816693121   -3.9808243091   -0.0143614482
 H    2.6302054230   -2.3154494053   -0.0256341239
 H    3.2328689592   -0.2301879156   -0.0202875528