18

 C   -0.1072192910    1.5298339315    0.1075296373
 C   -0.0372432510    0.0388020247    0.0232931617
 C    0.0876719113   -0.7153601000   -1.0718778822
 C    0.1148652519   -2.2122112249   -0.7670025458
 C    1.2364667717   -2.9262982564   -1.3703152685
 C    2.1444683697   -3.5223511118   -1.8845941570
 C    0.0965322511   -2.2343346355    0.7700681084
 N    1.2466858818   -1.5653334202    1.4019723115
 C   -0.0440798462   -0.8348420314    1.2416813544
 H    0.7378322504    1.9286071282    0.6824314944
 H   -0.0941403526    1.9900264180   -0.8838269738
 H   -1.0198532305    1.8568856052    0.6218158094
 H    0.1967041153   -0.3457832589   -2.0847968640
 H   -0.8151720511   -2.6757306397   -1.1310210454
 H    2.9569446644   -4.0425711806   -2.3276130923
 H   -0.3683872864   -3.0729488874    1.2757252024
 H    1.3181469383   -1.9034583180    2.3605944680
 H   -0.6092824569   -0.5622985428    2.1274824018