20

 C    0.1788631967    1.4011316608   -0.4816780019
 C    1.4922193242    1.6164777727    0.3201549514
 C    1.4010394018    0.1480828597    0.7906959375
 C   -0.0798272816    0.1130139767    0.3496484210
 C    2.3327924973   -0.9712406951    0.2934112405
 C    3.7196078994   -0.5322287774    0.8356894208
 C    3.1041142616   -0.7171639482    2.2220735426
 C    2.0560589541   -1.6237260877    1.7029595932
 N    1.6626677469   -0.2731533144    2.2036877233
 H   -0.5757213535    2.1878549961   -0.4231310754
 H    0.3693707352    1.1832616309   -1.5359150663
 H    2.3860720254    1.9173686203   -0.2333230193
 H    1.3560443142    2.3005723315    1.1630629419
 H   -0.7378240486    0.2986194673    1.2031131116
 H   -0.4289523291   -0.7782144145   -0.1789479870
 H    2.2267931804   -1.4243756096   -0.6912137853
 H    4.4860885842   -1.2894011995    0.6500514251
 H    4.0946913988    0.4543591965    0.5440592683
 H    3.5873535639   -0.7100269632    3.1901727381
 H    1.6303296387   -2.5550430130    2.0507097598