19

 C   -0.5682444134    0.8473065459    0.0047943729
 O    0.7618651228    0.3643873703    0.0002217696
 C    1.1083574878   -0.4689656391    1.0831322684
 C    0.1810480699   -1.5947667463    1.5409601587
 C   -0.0089724818   -2.6606990513    0.4966604651
 O   -0.1818981873   -2.4262493621   -0.8651313652
 C    1.3054530206   -2.6374343572    1.2028894408
 C    2.1930700571   -1.5126745683    0.6704751451
 O    2.4689072571   -1.5591674091   -0.7249261825
 H   -0.7805440840    1.4393415902    0.9070163709
 H   -0.6735119515    1.4920138784   -0.8706583616
 H   -1.2869701049    0.0227408328   -0.0677953027
 H    1.4353345655    0.1403393270    1.9367796131
 H   -0.4398583973   -1.5473463063    2.4282543078
 H   -0.6691103927   -3.4548931076    0.8406648878
 H    0.6958474673   -2.2166597832   -1.2169091277
 H    1.6657579709   -3.4642131362    1.8026312325
 H    3.1261333259   -1.3975754672    1.2316666084
 H    2.2361075380   -0.6788345406   -1.0566044814