21

 C   -0.2369034687    1.5345727789   -0.0647321108
 C    0.0336827014    0.0375426606    0.0395186820
 C    1.3515882095   -0.6569769245   -0.2941404620
 C    2.6274822753    0.1758127779   -0.3412646451
 C    2.6567823021    0.9611192518    0.9932260364
 C    1.7928453831    0.1379873694    1.9765681695
 O    1.0583229105    0.9138862372    2.9226251243
 C    0.8344507159   -0.6631677106    1.1156539667
 O    0.3335795876   -1.8415387341    1.6757862025
 H    0.4229558775    2.0278712255   -0.7867124001
 H   -1.2620752536    1.7053509833   -0.4058460147
 H   -0.1222979795    2.0351962343    0.8994854465
 H   -0.8094420293   -0.5837785269   -0.2502098178
 H    1.2965248204   -1.5568387167   -0.8969779941
 H    3.4892580750   -0.4973183635   -0.4108090546
 H    2.6772042588    0.8411023900   -1.2106156517
 H    3.6756081253    1.1072921854    1.3640703946
 H    2.2102001528    1.9515520763    0.8800495248
 H    2.4177256521   -0.5961679997    2.5082941345
 H    1.6835422402    1.3055506132    3.5403986875
 H   -0.2865616263   -1.5830018376    2.3672406316