22

 C    0.0386785420    1.5552336514   -0.0594397462
 C    0.0242596387    0.0215780974   -0.0004769614
 C   -1.4409636343   -0.4684632699    0.1072708528
 C    0.6950343130   -0.5514503776   -1.2716810755
 C    0.9500834891   -2.0555256955   -1.1671107880
 C    1.7625969899   -2.3337251063    0.0876814184
 O    1.1636593428   -1.7789408984    1.2677433857
 C    0.7485391222   -0.4714708982    1.2521119959
 N    0.8468335004    0.2468114723    2.2900325570
 H    1.0621966732    1.9379157404   -0.1115745269
 H   -0.5025332020    1.8980021460   -0.9484638205
 H   -0.4289516665    1.9852536124    0.8273046085
 H   -1.9991002182   -0.1842801593   -0.7914408119
 H   -1.5070275133   -1.5534881785    0.2225558320
 H   -1.9272252047   -0.0118435098    0.9733843527
 H    0.0702802030   -0.3182807804   -2.1410638086
 H    1.6534067960   -0.0384026793   -1.4287390853
 H    0.0072201008   -2.6115623441   -1.1306593751
 H    1.5031726253   -2.4200193537   -2.0400339129
 H    1.8549956404   -3.4035878446    0.2905582588
 H    2.7768253452   -1.9210294099   -0.0180026970
 H    1.3139821971   -0.2818753943    3.0300864875