15

 O   -0.1569199697   -0.1327029057   -0.0265235912
 C   -0.0402890468    1.0560129554   -0.1450049843
 C   -1.1244168254    2.0615058943    0.2289450946
 C   -1.2204543922    3.1936893389   -0.7823027149
 N   -0.7207693808    4.5071171933   -0.3445790566
 C    0.0797668301    3.6987395502   -1.2854952797
 C    1.2821039312    3.0027291581   -0.6818717718
 O    1.1105742617    1.5707819130   -0.6480081104
 H   -2.0569143067    1.5064945175    0.3342631202
 H   -0.8759601942    2.4856596258    1.2091171656
 H   -2.0626480734    3.1654265792   -1.4669578979
 H   -1.2012125604    5.2468295769   -0.8509742389
 H    0.1573001700    4.0241453435   -2.3180419569
 H    2.1909724105    3.1569164268   -1.2657448965
 H    1.4504075459    3.3778173828    0.3330670990