21

 C   -1.2535907409    0.9847626751    0.3040569369
 C   -0.3417264165   -0.2213560134    0.1377303394
 C    0.6764367930   -0.1985229390   -1.0252963785
 O    1.2513388622    1.1100996429   -1.2605393949
 C    2.4512339766    0.7604584351   -0.5293716406
 C    1.8393423591   -0.5646240543   -0.0630048895
 C    0.8521598786   -0.4944779497    1.1416279055
 C    1.1125709023    0.5303966832    2.2360525308
 O    0.7984796298   -1.8046795893    1.6960409195
 H   -0.6872598616    1.9156734351    0.2220892802
 H   -2.0220359033    0.9979876952   -0.4765400775
 H   -1.7669591753    0.9720369277    1.2716194498
 H   -0.9246410051   -1.1475541143    0.0829802529
 H    0.4299366410   -0.7117548692   -1.9587137859
 H    3.3034761828    0.6326078397   -1.2097308320
 H    2.7142386174    1.5060945858    0.2291547436
 H    2.4343640818   -1.4741357795   -0.1102053702
 H    1.1597076808    1.5512911607    1.8491897823
 H    0.3048351109    0.5036152692    2.9779227434
 H    2.0512342218    0.3043728465    2.7514571979
 H    0.0849612046   -1.8215457675    2.3439981671