11

 O   -0.1230105435   -0.0194088571   -0.0001076657
 C   -0.0290111036    1.1769200846    0.0072976652
 C    1.2655556884    1.9325628786   -0.0013263577
 N    2.3686597059    1.2475334922   -0.0187211957
 O    3.5196625231    1.9519381547   -0.0259464371
 C    3.5744518756    3.3838522454   -0.0149006385
 O    4.6588040469    3.8671655735   -0.0220397682
 N    2.3653798254    4.0732238935    0.0026617170
 C    1.2839444330    3.3757196703    0.0089891269
 H   -0.9218493237    1.8392565773    0.0220977442
 H    0.3347818526    3.9151271970    0.0230224093