17

 O    0.1581176240    1.3722708344   -0.1354010592
 C    0.0193819130    0.0075980297    0.0606705377
 C   -0.3518883000   -0.9424630445   -1.0429385062
 C   -1.3170172347   -0.7521195598    0.1311068142
 N   -1.2859326996   -1.7645205965    1.1773139478
 C    0.1408417177   -1.8757012335    1.5701713294
 C    0.8396674389   -0.5413357345    1.2112599801
 C   -2.5503053742   -0.0687860420   -0.1089418601
 N   -3.5127402085    0.5438368980   -0.3075725264
 H   -0.5410941778    1.6878920898   -0.7192845673
 H   -0.6696705027   -0.5000950639   -1.9813757691
 H    0.1411221707   -1.9033814777   -1.1478201642
 H   -1.8227901138   -1.4114364620    1.9646989060
 H    0.2149229189   -2.1225562946    2.6308738881
 H    0.5954110196   -2.7043115511    1.0176402267
 H    1.8935563400   -0.6829158676    0.9559653603
 H    0.7831479984    0.1824276158    2.0313491823