14

 C   -0.0159975196    1.4350244340    0.0824568211
 N   -0.0049170701   -0.0142718973    0.0484470796
 C    0.4707829110   -0.5728430458   -0.9989905951
 N    0.9595470132    0.0040909111   -2.1376840793
 C    0.4947901409   -2.0810910713   -1.0537208763
 O    0.9959560493   -2.6586977092   -2.0006032200
 C   -0.0897002531   -2.7907232137    0.0598130990
 C   -0.5581569380   -3.4635888738    0.9403689222
 H    1.0020347724    1.8574955765    0.0504428493
 H   -0.5731295217    1.8632342855   -0.7656508522
 H   -0.4857116923    1.7775786854    1.0069742789
 H    1.2611554517    0.9627841147   -2.1199831944
 H    1.4302974862   -0.6231476062   -2.7731613787
 H   -0.9765901799   -4.0412877900    1.7282926158