21

 O   -0.0886793583    1.4590847102   -0.0099065861
 C   -0.0490350169    0.0414739387   -0.0099687991
 C   -1.4339334548   -0.4968062261    0.1192669963
 C   -2.5852410154    0.1608758732    0.2266464148
 C   -3.3263629618    1.4179513548   -0.1623758997
 C   -4.3996058112    0.4463818037   -0.7856211710
 C   -3.7980975237   -0.7166542991    0.0857131467
 C   -3.2207754208   -2.0502586736   -0.4273493340
 C   -1.7308126262   -1.9972791226    0.0460401282
 H    0.8146816762    1.7824007386   -0.0689369064
 H    0.4099415003   -0.3461832312   -0.9384147149
 H    0.5753897414   -0.3422009429    0.8179235843
 H   -3.7373346346    1.9646631978    0.6934747044
 H   -2.8100460195    2.1220135838   -0.8161811057
 H   -5.4508481341    0.7008230889   -0.6278885269
 H   -4.2203884275    0.2859792758   -1.8522500963
 H   -4.3744824178   -0.8355565651    1.0123710852
 H   -3.7480105284   -2.9382548900   -0.0658946501
 H   -3.2476674042   -2.0739053611   -1.5228825024
 H   -1.0586824242   -2.5146068722   -0.6498393210
 H   -1.6009707183   -2.4912898116    1.0200938137