15

 O   -0.0117592566    0.0612639764    0.0050626352
 C   -0.0113825282    1.2590797788    0.0112146622
 C   -1.2949147532    2.1299350934    0.0327725291
 N   -0.7536384508    3.4676477008    0.0320481639
 C   -1.2316498291    4.7573900545    0.0441990601
 C   -0.1049589420    5.5442034366    0.0329726178
 N    1.0440281682    4.7791829149    0.0137891753
 C    0.6117402611    3.5418589816    0.0140548998
 C    1.2237359364    2.1810073233   -0.0005349498
 H   -1.9105445050    1.9154021296   -0.8480474091
 H   -1.8865779042    1.9066671724    0.9277422410
 H   -2.2833808284    4.9880555310    0.0593360185
 H   -0.0567510112    6.6225369932    0.0374032225
 H    1.8536615110    1.9673868488    0.8702513078
 H    1.8307802620    1.9758818146   -0.8894045843