17

 C   -0.0100132819    1.4606717183    0.0236542378
 C    0.0103924057    0.0049470577    0.0166008782
 C    0.0348482670   -1.1980892951    0.0235604896
 C    0.0373623012   -2.6651503193   -0.0141834442
 C   -1.4097001219   -3.1937455650    0.0173300564
 C    0.7761672837   -3.1567722334   -1.2738886002
 O    0.7384657596   -3.1009820475    1.1602282950
 H    1.0049588991    1.8729596845    0.0199093932
 H   -0.5303458948    1.8536763415   -0.8568544666
 H   -0.5226724363    1.8474018959    0.9112315419
 H   -1.9813629691   -2.8315158174   -0.8416166494
 H   -1.4089723563   -4.2900744028   -0.0102424243
 H   -1.9052179531   -2.8662344040    0.9337636203
 H    1.8094186327   -2.8034012418   -1.2605422004
 H    0.7791468209   -4.2530668058   -1.3028296253
 H    0.2906848477   -2.7930864236   -2.1837413747
 H    0.7438047260   -4.0647539024    1.1403356227