22

 C    0.2988463990   -0.4599849902    1.4336382343
 C    0.0445325112    0.1197003927    0.0339852602
 C    0.2605713992    1.6442459662    0.0811567281
 C    0.8770968747   -0.5520998290   -1.0770110439
 C    1.0692743722    0.2596497355   -2.3482086574
 N    2.0001142372   -1.3935658962   -0.6407323032
 C    0.8387213392   -2.0427934915   -1.2969850804
 C    0.0374554006   -2.9862934773   -0.5665856159
 C   -0.6599566029   -3.8119966948   -0.0381678409
 H    0.1412665998   -1.5371986482    1.4752062416
 H    1.3263306710   -0.2618480384    1.7508639783
 H   -0.3808119811    0.0122862172    2.1507343426
 H   -1.0095865758   -0.0556793556   -0.2251540520
 H    1.3106764511    1.8882380717    0.2800124892
 H   -0.0345386368    2.1449971494   -0.8446034450
 H   -0.3342595148    2.0764765398    0.8915725651
 H    1.6761657869    1.1513197415   -2.1638386005
 H    1.5729778141   -0.3352586331   -3.1168558992
 H    0.1095071286    0.5906461139   -2.7596489742
 H    2.7723291819   -1.3405490673   -1.3013768010
 H    0.9759259266   -2.3380018510   -2.3364823439
 H   -1.2700421720   -4.5309911252    0.4500267581