20

 C   -0.1523515646    1.3984784818   -0.0758904100
 O   -0.1247074843   -0.0138333608   -0.0783993044
 C    0.6830274873   -0.5544005999   -1.0814289734
 C    0.1659686437   -0.4652048151   -2.5474115193
 C    0.3147073816   -2.0134645225   -2.6811598513
 C    0.8187638786   -2.1077645415   -1.2164344887
 C    2.3567104123   -1.9763725394   -1.0559584498
 C    2.2253505757   -0.4277219872   -0.9091052916
 H    0.8465179450    1.8285729925    0.0902503147
 H   -0.5491954802    1.8032244818   -1.0187744485
 H   -0.8077438000    1.7073206813    0.7418714237
 H   -0.8754088254   -0.1361941104   -2.5888045139
 H    0.7555274792    0.1458057586   -3.2367408338
 H   -0.6349153021   -2.5241255264   -2.8558895269
 H    1.0284304712   -2.3569419564   -3.4351775705
 H    0.3005092169   -2.7967351810   -0.5496022704
 H    2.7510644627   -2.4621706476   -0.1606502353
 H    2.9390656969   -2.3226961162   -1.9143541742
 H    2.7508725771    0.1817179791   -1.6497096277
 H    2.4922707085   -0.0743932107    0.0900623915