17

 C    0.4230359779    1.3630790631    0.4549554419
 N   -0.1916574497    0.2074417266   -0.2099220387
 C    0.5700812131   -0.3829224220   -1.2452289041
 C    0.2638199074   -0.3404645668   -2.5796192898
 N   -0.7617721139    0.2853586411   -3.2378989411
 O    1.1805390806   -0.9741847235   -3.3077310647
 N    2.1813531831   -1.4999623594   -2.4298538953
 C    1.7998329660   -1.1178224071   -1.2315686308
 N    2.5772989196   -1.3896822246   -0.1164204850
 H    1.4025237337    1.1504174856    0.9084220751
 H    0.5617933502    2.1632199535   -0.2777501441
 H   -0.2525154742    1.7285613073    1.2346657107
 H   -0.4976071609   -0.4739911920    0.4758244509
 H   -1.5313168074    0.5093577675   -2.6216811235
 H   -1.0460779332   -0.1536776983   -4.1019042892
 H    3.2676646045   -2.1093917820   -0.2871251003
 H    2.0398089033   -1.5818658593    0.7172620979