16

 C    0.0743717096    1.2447296182   -0.2728508852
 O   -0.0706391661   -0.0700187338    0.2539441167
 C   -1.3420256725   -0.6117669441    0.1016262335
 C   -1.7182613513   -1.2011239572   -1.2545336192
 C   -1.3826454691   -2.1128869780   -0.0892125591
 N   -0.1492692227   -2.8335966224    0.0392607950
 C   -2.3744305327    0.0262577411    0.8931276001
 N   -3.1936688707    0.5548838454    1.5155097183
 H    1.1140632628    1.5307817233   -0.1061176756
 H   -0.1461587480    1.2693921613   -1.3479919964
 H   -0.5845335353    1.9531432613    0.2439230250
 H   -2.7467929499   -1.1178510659   -1.5870979096
 H   -0.9628942817   -1.0795665972   -2.0238529949
 H   -2.2320580891   -2.6072584991    0.3746076456
 H   -0.0563487033   -3.5218842465   -0.7004948119
 H    0.6334596500   -2.1915689665   -0.0272561922