21

 C   -0.0013021956    1.6248327584   -0.0660482919
 C    0.0628036975    0.0935860413   -0.0317928648
 C    0.8469492289   -0.5206584644   -1.1746326272
 C    1.5756642240   -1.5671116022   -0.7901310536
 C    1.4086055234   -1.8122790666    0.6657443927
 C    1.2931627554   -3.1613724976    1.2465446569
 O    2.4915528866   -2.4000160616    1.4029934661
 C    0.7158903472   -0.5593383767    1.2353960009
 C    1.7416976878    0.3306585265    1.9495366557
 H    0.9937620491    2.0771809749   -0.0347438586
 H   -0.4899239104    1.9607887516   -0.9869842184
 H   -0.5795640412    2.0188494177    0.7759681080
 H   -0.9733933161   -0.2709118609   -0.1022261378
 H    0.7672551321   -0.1494666433   -2.1912414801
 H    2.1940581833   -2.1992081627   -1.4162372412
 H    0.7059984360   -3.3056676978    2.1537412861
 H    1.3770317216   -4.0408910728    0.6078296563
 H   -0.0586550699   -0.8409106236    1.9559055243
 H    2.5283402367    0.6618578238    1.2641097135
 H    1.2680732633    1.2161572983    2.3819031935
 H    2.2230557003   -0.2328107722    2.7520294595