23

 C   -0.4481189273    1.4320656687   -0.1096678065
 C    0.1708854339    0.0480165970   -0.0756329595
 O    1.4856014885    0.0174398978   -0.6821539885
 C    2.0536404369   -0.6548260315    0.4585175294
 C    0.7317938773   -0.5449151214    1.2512697994
 C    0.7406231032    0.3327019536    2.5023304438
 C    1.3932240000   -0.3428359997    3.6925642509
 C    2.8742585112   -0.2060830367    3.9575001880
 C    1.8764086522    0.4693541658    4.8660233939
 H    0.1777811250    2.1678810891    0.4016184291
 H   -0.5668424664    1.7531822461   -1.1494407183
 H   -1.4390400417    1.4267621649    0.3573531031
 H   -0.4975055624   -0.6591644820   -0.5895912980
 H    2.3744181795   -1.6765945328    0.2165643863
 H    2.9092044876   -0.1062794810    0.8703901955
 H    0.2893867295   -1.5151017779    1.4968564624
 H    1.2595086529    1.2775464437    2.2962863668
 H   -0.2933431997    0.5995690406    2.7612484236
 H    0.9629117710   -1.3108420129    3.9406687171
 H    3.4169171001   -1.0660469870    4.3343920706
 H    3.4543547325    0.4250618133    3.2923067484
 H    1.7876116394    1.5493190449    4.8037392177
 H    1.7349895270    0.0708579973    5.8645484849