23

 C   -0.0026139834    1.4911750692    0.1460594226
 C   -0.0099062243   -0.0263725627    0.0744858169
 O   -1.3499450670   -0.4675989141    0.0180574195
 C   -1.4733439509   -1.8676366304   -0.0509423908
 C   -2.9107162966   -2.2704194759   -0.0951711363
 C   -3.9757448171   -1.4691966658   -0.0708882821
 C   -5.2718919642   -2.2349135974   -0.1834654297
 C   -4.8328428188   -3.7049279561    0.0448491610
 C   -3.3078919583   -3.7261814879   -0.2315091797
 H    1.0240854540    1.8665578146    0.1912417536
 H   -0.4908325032    1.9185868119   -0.7343591151
 H   -0.5382629321    1.8352774884    1.0353600593
 H    0.5435727188   -0.3746531717   -0.8146838689
 H    0.4965083425   -0.4579723419    0.9551130143
 H   -0.9473124257   -2.2603242453   -0.9428713376
 H   -0.9778461544   -2.3431935245    0.8175731414
 H   -3.9231307226   -0.3890732394   -0.0180975606
 H   -6.0272178302   -1.9084013189    0.5408281465
 H   -5.7225574611   -2.0921832262   -1.1765876099
 H   -5.0147012714   -3.9792496413    1.0887275358
 H   -5.3844298952   -4.4161611545   -0.5752417073
 H   -3.0788067102   -4.0932841911   -1.2429949054
 H   -2.7662498486   -4.3845370490    0.4590876425