23

 C    0.5396021806   -0.5052469232    1.3037209734
 C   -0.0349098243    0.0728513713    0.0026191251
 C    0.0609800220    1.6036731615   -0.0150124286
 C    0.6649671833   -0.5344227168   -1.2113989385
 C    0.4952776076   -2.0609124337   -1.3968212952
 O    0.2854853062   -2.2363139130   -2.7931241296
 C    0.4035765715   -0.9622419566   -3.4088788252
 C   -0.5569095694   -0.8434592299   -4.5704132231
 O    0.0999756760   -0.0170049663   -2.4126450593
 H    0.4251984496   -1.5926534472    1.3598832808
 H    1.6074179169   -0.2746551843    1.3982138515
 H    0.0320572750   -0.0743086392    2.1720720971
 H   -1.0941818831   -0.2092225135   -0.0711113890
 H    1.1047844633    1.9306400499    0.0651771758
 H   -0.3498420976    2.0103494212   -0.9415616971
 H   -0.4876662070    2.0358506765    0.8280092579
 H    1.7395443692   -0.2824359343   -1.1774743477
 H    1.3793148904   -2.6190847905   -1.0659825654
 H   -0.3808548171   -2.4414634341   -0.8562317422
 H    1.4501172028   -0.8211658386   -3.7432201462
 H   -1.5815101613   -0.9720293309   -4.2133859449
 H   -0.4580442580    0.1383418419   -5.0406426258
 H   -0.3367224566   -1.6138196403   -5.3135150637