21

 C    0.0492164894    1.5663361592    0.0348691689
 C    0.1311181881    0.0430795975   -0.0242000872
 C    1.0537382379   -0.5297657364   -1.1181087008
 C    1.2460861214   -1.9982324142   -0.6982441803
 C    1.2535437128   -1.9900884375    0.8479432209
 O    2.5578142011   -1.9830538715    1.4226590053
 C    2.9137407294   -0.6411584927    1.6325396688
 O    1.7266459861    0.0768465901    1.8806521113
 C    0.6381052893   -0.6226291469    1.2730364187
 H    1.0271133180    1.9946265198    0.2695545410
 H   -0.2881164907    1.9759891623   -0.9227001057
 H   -0.6522347608    1.8988525455    0.8072679660
 H   -0.8777172069   -0.3605674386   -0.1978649470
 H    0.6298349946   -0.4250610666   -2.1211893327
 H    2.0110697172    0.0057224502   -1.1191428751
 H    0.3978302208   -2.5982394422   -1.0481028191
 H    2.1564745383   -2.4610643243   -1.0867514816
 H    0.7355608640   -2.8561522314    1.2660433109
 H    3.5641720178   -0.5792235376    2.5123095119
 H    3.4422031956   -0.2275064823    0.7547493820
 H   -0.1504453032   -0.7067858923    2.0272392239