16

 O    0.2763366097    0.0238571828    0.3414302452
 C    0.3676063450    1.2034642295    0.4839150287
 O    0.8357916041    2.0148958456   -0.4966200708
 C    0.8674369483    3.3983257926   -0.2108512270
 C    1.9866775103    3.9448638244    0.6360408007
 C    1.9719312469    4.1785777658   -0.8584680173
 C    2.9726282179    3.4644213925   -1.7547926930
 C    4.2730747861    4.1352865115   -1.7660611508
 N    5.2936981058    4.6765927645   -1.7678733811
 H    0.0909843325    1.7570743450    1.3999252442
 H   -0.1189745831    3.8491629856   -0.1536647284
 H    1.7786923379    4.7746968201    1.3012378554
 H    2.7083932261    3.2286873972    1.0148694308
 H    1.7099156141    5.1774854710   -1.1913095439
 H    3.1065509711    2.4297502339   -1.4262548616
 H    2.5947030074    3.4158935480   -2.7824388312