21

 C   -0.2284566659    1.4817625498   -0.0690513769
 C    0.0073427774   -0.0171171956   -0.0107581174
 C   -1.1529601376   -0.8844737964    0.5279579949
 O   -0.3108007258   -1.4698176080    1.5461415960
 C    0.8123462615   -0.6401467595    1.1682509999
 C    1.9546351959   -1.4600631237    0.5690666103
 C    1.4215859168   -1.8530382859   -0.8200005449
 C    0.6616243280   -0.5936964977   -1.2822273015
 O   -0.3358670831   -0.8158426193   -2.2663959568
 H    0.7106714245    2.0256576388   -0.2230854127
 H   -0.8967788269    1.7308102255   -0.9006879332
 H   -0.6844292061    1.8526514292    0.8544620417
 H   -1.9795671714   -0.3106016501    0.9663837804
 H   -1.5583402384   -1.6307825112   -0.1625123242
 H    1.1161497933    0.0197975130    1.9893252548
 H    2.8476398664   -0.8281975458    0.4813139323
 H    2.2125224967   -2.3172604519    1.1970796648
 H    2.2076741564   -2.1542290048   -1.5192371817
 H    0.7133150070   -2.6833326275   -0.7319616308
 H    1.3927709684    0.1468214572   -1.6495646988
 H    0.0885418130   -1.1810618261   -3.0486820562