19

 C   -0.0886187434    1.5852589506    0.2112942109
 C    0.0136161995    0.0830973393    0.0319751945
 C   -1.2176989647   -0.5778088722   -0.5725092460
 C   -1.4969484957   -0.1001436500   -1.9850894827
 O   -2.5802055920    0.2218806632   -2.3994018882
 C    1.3683438898   -0.5414638280   -0.3080595562
 O    2.5103549315    0.2488859584   -0.3927197926
 C    0.7609891119   -0.7369534524    1.0626783000
 O    1.3806734953   -0.0164019495    2.1005534225
 H    0.8522766174    2.0179695904    0.5505487567
 H   -0.3539292111    2.0686229978   -0.7351038281
 H   -0.8625243954    1.8372300140    0.9439724940
 H   -1.0618069094   -1.6652878887   -0.6346337581
 H   -2.1129708208   -0.4105194618    0.0360872260
 H   -0.5987066737   -0.0746886867   -2.6443541770
 H    1.3961376115   -1.3723142339   -1.0082271214
 H    2.6971306109    0.5485531606    0.5082712697
 H    0.3481383824   -1.6992337842    1.3598487062
 H    2.0001731061   -0.6091160670    2.5405058798