20

 O   -0.0602414857    0.1096024888    0.3267052954
 C   -0.0151228332    1.2843531831    0.0679849504
 C    1.2483468512    2.1101816543   -0.0084291659
 C    1.4059298397    2.7879681571   -1.3809513040
 C    2.6285553911    3.7081955545   -1.4487362588
 C    2.7777315699    4.3806144138   -2.8199300380
 N    3.9264846439    5.2701676946   -2.9026499776
 C    3.8572443340    6.5792364886   -2.5430186433
 O    2.8515724235    7.1413353303   -2.1624950570
 H   -0.9476959531    1.8579044313   -0.1497738354
 H    1.1854773030    2.8867138175    0.7678997373
 H    2.1016207024    1.4657689104    0.2231947618
 H    1.4793715556    2.0155103113   -2.1577009258
 H    0.5011245724    3.3676112096   -1.6074942800
 H    2.5482368486    4.4925113809   -0.6874060221
 H    3.5372323639    3.1358674613   -1.2209652950
 H    2.8673441027    3.6264718974   -3.6095588543
 H    1.8917066082    4.9853454774   -3.0328200164
 H    4.8265637313    4.8894453226   -3.1463934214
 H    4.8351107508    7.0902061552   -2.6484891999