15

 C    0.0112365135    1.3843665492    0.0361213801
 N    0.1915917432   -0.0607631535    0.0565888443
 C    0.6519574112   -0.7343231820   -1.0314216182
 C    1.1324925769   -2.0048995547   -1.2189660281
 C    1.3638983475   -2.0497629762   -2.6142799010
 C    1.8843587094   -3.1696170556   -3.4235669501
 O    2.1939055908   -4.2394824144   -2.9565010509
 N    1.0624591320   -0.9219671169   -3.2275282504
 O    0.6096710663   -0.0774111292   -2.2092273603
 H    0.9559887458    1.9333279521   -0.0738442862
 H   -0.6438869466    1.6616596623   -0.7921324564
 H   -0.4671406235    1.6853420362    0.9697971560
 H    0.4515539235   -0.4684514300    0.9399757941
 H    1.2918727874   -2.7857483440   -0.4969284842
 H    1.9689299727   -2.9454300835   -4.5057269888