14

 C    0.1068924293    1.4669781586   -0.2775523917
 C    0.0733258151   -0.0272096741    0.0756391270
 O    0.7015298341   -0.2514558406    1.3079372301
 C   -1.3544957401   -0.5807707178    0.1142712538
 C   -2.2160881311   -0.4572171969   -1.1209974691
 O   -1.7524062754   -1.1061977036    1.1332201149
 H    1.1407576864    1.8172652945   -0.2314579865
 H   -0.2768264300    1.6563532294   -1.2844355629
 H   -0.4799355144    2.0438748345    0.4437761906
 H    0.5978132894   -0.5830489136   -0.7232846020
 H    0.0420629103   -0.7205533615    1.8454669765
 H   -2.5922230335    0.5690875622   -1.2027955550
 H   -1.6438186679   -0.6645701510   -2.0301043946
 H   -3.0666512821   -1.1358597101   -1.0458662912