16

 N   -0.0923264326    1.4476115866   -0.1522407203
 C   -0.0101394058    0.0117754373   -0.0426184365
 C    0.7614669082   -0.7366713885   -1.1063559981
 C    0.0874448423   -1.7770555825   -1.5982956225
 C   -1.2737165860   -1.9506963418   -0.9623926117
 C   -1.2884723825   -0.8768847861    0.1213369392
 O   -0.7614266280   -1.3730546748    1.4064772768
 C    0.2983077170   -0.5109373832    1.3741882149
 O    1.1012520510   -0.2890885147    2.2234684994
 H    0.5065670531    1.8898938025    0.5371017578
 H    0.1978446671    1.7670380216   -1.0692251960
 H    1.7603067665   -0.4293002480   -1.3951649153
 H    0.4604278525   -2.4523080998   -2.3603377769
 H   -2.0861701056   -1.8201597557   -1.6877329369
 H   -1.4042910624   -2.9430136849   -0.5145125467
 H   -2.2306841149   -0.3570033081    0.2871596331