19

 O   -0.1099052032    1.3842365530    0.0453228794
 C   -0.0705822342   -0.0067357812    0.0065573483
 C   -0.4974275504   -0.7681744661   -1.2198885050
 C   -1.3386577497   -0.8152133190    0.0456418204
 C   -1.0564333150   -1.9499599018    0.9830622833
 C   -1.9068031281   -2.2288885453    2.1941060414
 C   -1.7990798812   -3.2406559522    1.0609327383
 O    0.3524368177   -2.0363175000    1.1089668309
 C    0.8858086282   -0.7244314242    0.9519937956
 H    0.5811224079    1.7193873453   -0.5360200870
 H   -0.8998501316   -0.1730817823   -2.0323211547
 H    0.0545178723   -1.6552114059   -1.5145085433
 H   -2.3062620353   -0.3299056852    0.0591604291
 H   -1.3842666449   -2.4612556704    3.1151672477
 H   -2.8377434995   -1.6853613385    2.3191560450
 H   -2.6533226204   -3.3840659303    0.4082239474
 H   -1.2113249251   -4.1328969829    1.2457971932
 H    1.9091030196   -0.8320726640    0.5757554946
 H    0.9128329930   -0.1726256089    1.9044121054