17

 O   -0.1867863518    1.4314704335    0.1143841400
 C   -0.0934548737    0.0455983505    0.0053892928
 C   -1.3689950818   -0.7358606972   -0.0166820920
 C   -2.6498957760    0.0340616110   -0.3518874889
 C   -2.4337163098    0.5101047536   -1.7643873794
 C   -1.2611378029    0.0871131126   -2.2683650676
 C   -0.7897628710    0.3786687248   -3.6218419714
 O    0.2837542157    0.0300517752   -4.0646316315
 C   -0.4795234467   -0.6929717713   -1.2678886758
 H    0.5054145397    1.8249126515   -0.4277593760
 H    0.7299423032   -0.4004672147    0.5632338156
 H   -1.4410701621   -1.6244610281    0.5987304792
 H   -3.5392610384   -0.6051832466   -0.2815166191
 H   -2.8138702939    0.8780121064    0.3294718794
 H   -3.1397326350    1.1448554987   -2.2901016525
 H   -1.5083721978    0.9574974596   -4.2445966010
 H    0.1391348224   -1.5181085995   -1.5990418618