17

 C    0.0524410605    1.5024798790   -0.0301158435
 C    0.0027326586   -0.0019384924   -0.0163844307
 C   -1.1910928520   -0.6775067218    0.0064998471
 C   -2.5297383637    0.0079561169    0.0196823440
 C   -1.1919612234   -2.1316394131    0.0190990014
 O   -2.1576733068   -2.8760817252    0.0393343318
 N    0.1112207637   -2.6706750585    0.0051497332
 C    1.2349050079   -1.9174844220   -0.0174009465
 N    1.2364972746   -0.6242986528   -0.0286086608
 H    1.0898569484    1.8370943372   -0.0476102637
 H   -0.4672313935    1.9083079894   -0.9055802502
 H   -0.4425231904    1.9235503762    0.8524361893
 H   -2.6688737082    0.6407870081   -0.8646231747
 H   -3.3208825087   -0.7427612256    0.0371813930
 H   -2.6439652365    0.6555503064    0.8968439368
 H    0.1615139124   -3.6809747675    0.0131751322
 H    2.1765106270   -2.4612869843   -0.0261336286