16

 C   -0.1957313982    1.3302233252    1.1608304365
 C    0.0303498531   -0.0727024896    0.6539719953
 C    0.2236869340   -0.3457343839   -0.8007391941
 N    1.3396951862   -0.4883446891    0.1272012565
 C    2.4063548959    0.3830532532    0.0602021454
 N    3.0850508956    0.7988670181    1.1308131358
 N    4.0399191427    1.5184244699    0.5457080088
 N    3.9863616078    1.5582314841   -0.7718072801
 N    2.9431328881    0.8403349335   -1.1062935568
 H    0.2161387139    2.0778012202    0.4771495707
 H   -1.2691270671    1.5183891809    1.2639266493
 H    0.2715602493    1.4731508300    2.1402137668
 H   -0.4322712351   -0.8539023619    1.2534269189
 H   -0.1269747432   -1.2732886203   -1.2433361214
 H    0.2442354775    0.5073647690   -1.4739084248
 H    4.7592195894    1.9939308308    1.0691676333