21

 C    0.0805439093    1.5174916006    0.1784358410
 C   -0.0990936591    0.0136430276   -0.0742262664
 C    0.6422352482   -0.4643514297   -1.2935880593
 C    0.1941989996   -0.1679793922   -2.7387843159
 C    0.4951514805   -1.6540278404   -3.0644575294
 O    0.2331279630   -2.3451399379   -4.0094883962
 C    0.9929146717   -1.9419917625   -1.6845164167
 C    2.0606923884   -0.9250369097   -1.2749903179
 C    3.1856937502   -0.4535505888   -2.1749997906
 H    1.1347119462    1.7672198582    0.3367913299
 H   -0.2767032296    2.1066284781   -0.6726949069
 H   -0.4789821556    1.8356221342    1.0631757898
 H    0.2476800790   -0.5498270264    0.8008293728
 H   -1.1675371618   -0.2130219027   -0.1857219952
 H   -0.8830968803    0.0093659550   -2.8227764108
 H    0.7242903688    0.6075567348   -3.2978835457
 H    0.8626989827   -2.8696403699   -1.1388114491
 H    2.3989445973   -1.1399261459   -0.2612710714
 H    2.8576735671   -0.2731479196   -3.2013171258
 H    3.6218270448    0.4765102231   -1.7940099433
 H    3.9820165098   -1.2038979660   -2.2133984129