17

 O    0.1841491035    1.3687660909   -0.1462324643
 C    0.0539200395   -0.0265402372    0.0854936994
 C   -1.3686281809   -0.4846459700    0.0649429404
 C   -2.0463796169   -1.8015573663   -0.0411763938
 O   -2.9156997598   -1.6113588549    1.0430298209
 C   -2.5371632236   -0.1608012212    1.0527051456
 C   -3.6004450064    0.5235504298    0.2402014184
 C   -3.4503777830    0.1349586050   -1.0361243125
 C   -2.2383879299   -0.7055692822   -1.1637604347
 H   -0.3066025420    1.5739753937   -0.9493053930
 H    0.6302294973   -0.6174711743   -0.6459774756
 H    0.5034860901   -0.2053547248    1.0686469902
 H   -1.7183738844   -2.8095178993   -0.2661502195
 H   -2.3295340198    0.1729990279    2.0677277460
 H   -4.4368792695    1.0624853090    0.6642499367
 H   -4.1449140132    0.3139704454   -1.8477889565
 H   -1.7708253010   -0.9252323014   -2.1172790976