14

 N   -0.1007233972    1.2150077757   -0.1447324197
 C   -0.0925397214   -0.0321524280   -0.0614761085
 C   -1.1523618069   -1.0948110492    0.0817902502
 C   -0.8810717312   -1.9620493981   -1.1854729234
 C    0.4922734574   -2.2413539913   -0.5675304876
 N    1.0135468180   -0.9889534401    0.0935231462
 C    0.0163641387   -1.9065642767    0.7930070814
 C    0.1941396866   -2.4541519984    2.0860975439
 N    0.2988135894   -2.9161592619    3.1417732928
 H    0.8526798739    1.5844215553   -0.1743954090
 H   -2.1517542440   -0.8932577791    0.4529741985
 H   -1.4887132840   -2.8689294973   -1.2032679051
 H   -0.9257690023   -1.4509198090   -2.1507826008
 H    1.2460752231   -2.9613070617   -0.8566207887