18

 C   -0.0791853929    1.4911017555    0.0115104057
 C    0.0316071640   -0.0087722311   -0.0076137415
 C    0.6856748307   -0.6863316845   -1.2484473902
 C    0.1148814586   -2.1302070785   -1.1417520016
 C   -0.7546144054   -1.9735018374    0.1185369297
 O    0.1425002819   -1.9245919020    1.2609244500
 C    0.6763869519   -0.6634222396    1.2096877563
 N    1.5352411547   -0.1645831528    1.9838060192
 O   -1.2613358159   -0.6702957391    0.0307035360
 H    0.9197624839    1.9274175574    0.0864764525
 H   -0.5626991780    1.8548955679   -0.8990780193
 H   -0.6572619684    1.8195581150    0.8782506475
 H    0.3470749706   -0.1831852323   -2.1568414004
 H    1.7756557435   -0.6435004599   -1.2120352718
 H   -0.5024842730   -2.3950943868   -2.0028486897
 H    0.8779457273   -2.8987689309   -1.0082304098
 H   -1.5362059875   -2.7049394140    0.3131058785
 H    1.8173779641   -0.8345776569    2.7014446989