19

 C    0.0874285467    1.3523160460    0.4681909808
 C   -0.0561368427   -0.0210864219   -0.1620488844
 O    0.8760734968   -0.5796967811   -0.7076565699
 C   -1.3890097991   -0.6558564481   -0.0723467841
 C   -2.6590870588   -0.2407624369    0.6713476628
 C   -3.1319407205   -1.7057107293    0.4733445828
 C   -3.3166195339   -1.8325986339   -1.0676221661
 C   -1.7994693608   -1.6982116174   -1.1519080765
 C   -1.6231882393   -2.1331977329    0.2628079778
 H    1.0957213065    1.7308828228    0.2973216289
 H   -0.6492554331    2.0468382796    0.0484550508
 H   -0.1072274801    1.2991513265    1.5455581821
 H   -2.4500935530   -0.0218725519    1.7224974088
 H   -3.2905561563    0.5509614038    0.2507882055
 H   -3.8380947838   -2.1623200473    1.1630879669
 H   -3.6355275143   -2.8380414185   -1.3549090815
 H   -3.9484121442   -1.0868532541   -1.5631748634
 H   -1.1278492349   -1.8646657417   -1.9827266020
 H   -0.9490750353   -2.8306621838    0.7378873707