19

 C    0.1372157609    1.2941588228    0.3066336400
 O   -0.3570505263    0.1515327960   -0.3866089854
 C    0.5573390532   -0.5596061940   -1.0662722046
 N    0.2030553240   -1.5992991004   -1.6829811611
 C    1.1741780990   -2.3804167465   -2.4526405477
 C    0.5792694972   -2.5689212371   -3.8660224084
 C    2.6090453508   -1.8166640180   -2.5545205374
 C    1.2557092645   -3.7089500133   -1.8000697098
 N    1.3498172528   -4.7476167351   -1.3027860580
 H    0.8451881511    1.0084733754    1.0933016674
 H    0.6189787315    2.0016606810   -0.3786943207
 H   -0.7299584304    1.7723774997    0.7624384664
 H    1.5718557633   -0.1450343146   -1.0221697569
 H    0.5270311168   -1.5954486057   -4.3618563418
 H    1.1993069558   -3.2415935997   -4.4641952609
 H   -0.4301177003   -2.9766781767   -3.7937263144
 H    3.0818343036   -1.7202595388   -1.5736163029
 H    3.2259099554   -2.4886739207   -3.1555878808
 H    2.5946726271   -0.8375339344   -3.0430532731