22

 C   -0.1009911723    1.5354774484   -0.3377898910
 C   -0.0206685328    0.1044991829    0.2082219274
 C   -1.3686974035   -0.5886042688    0.2046907273
 C   -1.8904169741   -1.3021425337   -1.0220872956
 C   -1.5423169326   -2.0938071340    0.2190067438
 C   -0.3457641648   -3.0269629466    0.1953293252
 C   -2.7015357193   -2.6178592115    1.0377100750
 O   -3.1631342197   -3.8316289987    0.4538186696
 H    0.8791303831    2.0225371987   -0.3229554854
 H   -0.4667789899    1.5412153348   -1.3698802203
 H   -0.7866425547    2.1478431709    0.2584196228
 H    0.6999823034   -0.4677646580   -0.3860471264
 H    0.3785340835    0.1272572688    1.2311510549
 H   -2.1226783588   -0.0427872830    0.7710501649
 H   -2.9352038850   -1.1933164602   -1.2931964187
 H   -1.2204914366   -1.3907305818   -1.8722325289
 H    0.4368985440   -2.6789381326   -0.4826911305
 H    0.0976376790   -3.1311094433    1.1935737386
 H   -0.6612677599   -4.0206503543   -0.1345352841
 H   -2.3722433119   -2.7864048692    2.0767544108
 H   -3.5060695120   -1.8657827070    1.0653708983
 H   -3.7964789551   -4.2314134019    1.0567269422