19

 C   -0.0026014138    1.5367012117    0.0558668568
 C   -0.0174288667    0.0327157445    0.0356167898
 C    0.4998405702   -0.7266243539   -1.2234436696
 C    0.3508201790   -2.1981813889   -0.7063635369
 C   -0.2072004235   -1.8851226842    0.7072224640
 N    0.6254983078   -0.7230928917    1.1831406584
 C   -1.2341177698   -0.8154067029    0.3764282449
 N   -2.4694695654   -0.5814711330    0.4191975818
 O   -3.1926500110   -1.7098853394    0.8689083954
 H    1.0131362095    1.9177318376   -0.0971275193
 H   -0.6358246996    1.9360956781   -0.7424042844
 H   -0.3733723622    1.9118897110    1.0126013430
 H   -0.1031468692   -0.5241724659   -2.1129263676
 H    1.5359804697   -0.4528754637   -1.4474718136
 H   -0.3344735070   -2.7980515340   -1.3110692327
 H    1.3056537856   -2.7293255380   -0.6481346095
 H   -0.3973539375   -2.7005382916    1.4011493092
 H    1.6237396692   -0.8806389863    1.0247322934
 H   -4.0962311452   -1.3766172492    0.8750980769