21

 C   -0.1245276513    1.5246183805    0.0077645194
 C    0.0609871919    0.0059506755   -0.0196818859
 C    0.8089168884   -0.4782210303   -1.2699015660
 O    2.1068676894    0.0846720269   -1.2623991326
 C    2.7871150984    0.0182048158   -2.5100409079
 C    4.2103088711    0.4877982007   -2.2553861260
 O    4.8651154783   -0.3364378299   -1.3124823182
 C    0.8866646056   -2.0037587061   -1.2532112895
 O   -0.0175712276   -2.7302618929   -1.5697539040
 H    0.8412418383    2.0334689679   -0.0373413150
 H   -0.7262512302    1.8631703955   -0.8426716123
 H   -0.6348407014    1.8353767392    0.9239755525
 H    0.6186840762   -0.3215332586    0.8666225003
 H   -0.9067314867   -0.5058756217    0.0032183663
 H    0.2534527237   -0.1695910264   -2.1692246379
 H    2.7990596162   -1.0142396940   -2.8914279625
 H    2.2869454810    0.6552857975   -3.2562799969
 H    4.7861053440    0.4380855498   -3.1850552133
 H    4.1869204821    1.5391889662   -1.9273399761
 H    4.2823443352   -0.3729677254   -0.5452941394
 H    1.8616154273   -2.3932589101   -0.8763236851