18

 C    0.1391937538    1.4446182967    0.0562682741
 N   -0.2091990678    0.0405832580   -0.1151460421
 C    0.4669583254   -0.6751015196   -1.1021661043
 C    0.5794295956   -2.0366183953   -1.3017745583
 C    0.4064811661   -3.5380063933   -1.1137754807
 C    1.2281776743   -3.6655479126   -2.4531195442
 N    1.2981117289   -2.1873255375   -2.4609704578
 C    1.6048507533   -0.9668005815   -2.9488007629
 N    1.1181468726   -0.0363132711   -2.1331296896
 H    1.1949126305    1.6114635951    0.3201284441
 H   -0.0532255611    1.9804971778   -0.8750167819
 H   -0.4936591509    1.8678345691    0.8410315061
 H   -0.2489972957   -0.4613444931    0.7602176959
 H    0.8966227542   -3.9830441536   -0.2429053942
 H   -0.6158152467   -3.9213852568   -1.1771416959
 H    2.2043948270   -4.1487413759   -2.3677182266
 H    0.6802829606   -4.0794240230   -3.3028784374
 H    2.1649515699   -0.7816627034   -3.8512012042