15

 O    0.3228019789    0.1228138612    0.1526617004
 C    0.1603945150    1.2910473576   -0.0123979505
 C   -1.0356105742    2.0382737417   -0.5854930293
 O   -0.7589243812    3.4045226129   -0.3269707746
 C    0.6387531965    3.5086045097   -0.1265263370
 O    1.0848563970    2.2398726033    0.3323320938
 C    1.3427807939    3.8903545465   -1.4149008899
 C    2.6195038988    3.2901148676   -1.8146683124
 O    1.3828403875    2.8658222471   -2.4032570246
 H   -1.1252981720    1.8229982714   -1.6571772973
 H   -1.9577690391    1.7465607489   -0.0768262359
 H    0.8203330352    4.2512169903    0.6574678547
 H    1.0720413265    4.8800656471   -1.7832512867
 H    3.2804493611    3.8436871079   -2.4783584791
 H    3.0913864060    2.5611499067   -1.1616493014