16

 O    0.0164205072    1.5331395006   -0.2907632328
 C    0.0384462424    0.1348349835   -0.2102061115
 C   -1.2920594869   -0.5736374136   -0.1011128195
 C   -1.8304029073   -0.7918278354   -1.4748932188
 C   -0.8605224973   -0.2034372305   -2.4826282926
 C    0.2163854081   -0.7120178655   -1.4916646887
 C    1.5678282050   -1.1205898465   -1.9665048395
 O    2.5610180820   -0.4699612129   -1.7429212901
 N   -0.8085208721   -1.7498224756   -0.9229815069
 H    0.9296449051    1.8386770517   -0.3258494411
 H    0.7262338502   -0.2258465445    0.5646892644
 H   -1.8896727012   -0.7306824194    0.7887913069
 H   -2.8545372483   -1.1051847201   -1.6410512112
 H   -0.8545331252   -0.7829147110   -3.4092951309
 H   -0.8754699862    0.8687076318   -2.6897332949
 H    1.6063597346   -2.0602692724   -2.5592630428