21

 C    0.0623995607    1.4794029828   -0.1439243492
 C   -0.1243093404   -0.0190906530    0.0581422239
 C   -0.7829056293   -0.4460284031    1.3615248105
 C    0.7089999950   -0.6577975881    1.1394220324
 C    1.3055853961   -2.0115786724    1.1256070777
 C    1.4200368866   -2.8970612448    0.1367708364
 C    0.9712746839   -2.8276800885   -1.2958942072
 C   -0.0769487720   -1.8478206329   -1.7440231495
 C   -0.5210215717   -0.7203098444   -1.1899917132
 H    0.8921297372    1.6854238204   -0.8288528817
 H   -0.8414425050    1.9313549157   -0.5688605326
 H    0.2729321211    1.9840390259    0.8040188764
 H   -1.1051273381    0.3213171445    2.0589704882
 H   -1.4067288367   -1.3318445687    1.3305948241
 H    1.3271274893    0.0530471669    1.6856987961
 H    1.7221620566   -2.3028289842    2.0898211110
 H    1.9251640479   -3.8315258899    0.3771570121
 H    1.8641951717   -2.6925148213   -1.9316234236
 H    0.6164464727   -3.8308700626   -1.5744437635
 H   -0.5349617075   -2.1288510928   -2.6916433043
 H   -1.3007713081   -0.1892687193   -1.7375616438