18

 C   -0.0868324639    1.5149011994   -0.2531488418
 O    1.2484384973    2.0314490767   -0.1514610853
 C    2.1577386027    0.9918703035    0.0722627846
 C    1.4602923212   -0.2870161051   -0.3847731508
 C    0.0083910348    0.0038447315    0.0227017239
 C   -0.2590079325   -0.3566893997    1.4916852283
 N    0.5634284317    0.2062082565    2.5409266827
 C    1.7150636550    0.7102844943    2.4619028814
 O    2.5803004307    0.9610501786    1.4390791895
 H   -0.7262122476    2.0365123729    0.4671684696
 H   -0.4609614873    1.7212924791   -1.2634937467
 H    3.0829709299    1.2197524349   -0.4607309863
 H    1.5580861568   -0.3744212654   -1.4713318443
 H    1.8827278829   -1.1817972058    0.0765698821
 H   -0.7090864664   -0.5481047436   -0.5917492877
 H   -1.2995033378   -0.0993410842    1.7295259878
 H   -0.1992549007   -1.4497316780    1.5966077347
 H    2.2069176032    1.0239940744    3.3834153882