21

 C    0.0816013156    1.3271367845   -0.1540732252
 O   -0.0158407126   -0.0376087686    0.1824376529
 C   -1.3250513324   -0.5750539583    0.1045539137
 C   -1.8127011976   -0.7475605807   -1.3440580624
 C   -3.0242396010   -1.6419547494   -1.4221763988
 C   -3.4327647503   -2.4208190510   -0.4209191314
 C   -2.7120581539   -2.5335332037    0.8997373320
 O   -2.6802685920   -3.8833996500    1.3601030540
 C   -1.3067467745   -1.9234444488    0.8205003259
 H    1.1072564722    1.6382260585    0.0599013502
 H   -0.1237516253    1.5191071558   -1.2173175837
 H   -0.6069795128    1.9432270431    0.4458837277
 H   -2.0244285028    0.0995677321    0.6303742741
 H   -2.0464085828    0.2240344526   -1.7957049871
 H   -0.9887162139   -1.1668955820   -1.9397379133
 H   -3.5869720552   -1.6221801614   -2.3528020109
 H   -4.3248325454   -3.0345989210   -0.5197329227
 H   -3.2919874915   -2.0107992023    1.6729000919
 H   -2.2262024808   -4.4032297875    0.6871403041
 H   -0.6516968749   -2.6064149687    0.2628487097
 H   -0.8814101978   -1.8111233130    1.8211604292