15

 C    0.0579522679   -1.1930190044   -0.1822698689
 C    0.0496908647    0.0027825544   -0.0764804751
 C    0.0022714754    1.4658056819    0.0428898038
 C    1.3532298770    2.0323011065    0.1175258418
 C    2.4555785997    2.5085785128    0.1570776570
 C   -0.8331236049    2.0767032874   -1.0997011187
 C   -0.6802726673    3.4974108174   -1.4854986246
 N   -0.2350088875    2.4168598188   -2.3884108606
 H    0.0735869079   -2.2507924045   -0.2760869163
 H   -0.5195290703    1.7088465329    0.9810092966
 H    3.4348447487    2.9170525953    0.2106531640
 H   -1.8114891738    1.6085546748   -1.1740963905
 H   -1.5437015077    4.0593358515   -1.8293284076
 H    0.0778892115    4.0815055708   -0.9720514843
 H    0.7781932887    2.3288149343   -2.3264062566