11

 O   -0.0437771778    0.0015045354    0.0036158924
 N   -0.0215761038    1.2269736534    0.0067656268
 O    0.9895055244    1.9222390743    0.0023523261
 C   -1.2880411365    1.9048115189    0.0168228406
 C   -1.4554106803    3.2574442374    0.0217608678
 O   -2.7703291728    3.5358888182    0.0308483340
 C   -3.4475204660    2.3454040740    0.0318485019
 C   -2.5836937792    1.3020338732    0.0234900246
 H   -0.7653643736    4.0826581456    0.0196754176
 H   -4.5212871063    2.4243390401    0.0388908588
 H   -2.8038194481    0.2483670595    0.0219759394