19

 C    0.0533274119    1.5228643976   -0.0618715111
 C    0.0020652854    0.0680862857   -0.0400390251
 C   -0.0464550756   -1.1363734379   -0.0307649810
 C   -0.0651044590   -2.5689963703   -0.0166639747
 C   -0.4585586265   -3.3696103614    1.2178706933
 C   -1.2180009445   -2.6515423818    2.3330234542
 C   -2.5255545205   -2.2584499203    1.6771315551
 C   -2.6027663159   -2.6866930783    0.4153498994
 C   -1.3609961106   -3.3975030241    0.0018744683
 H    0.9054739065    1.9046901138    0.5121020114
 H    0.1469260865    1.9048383319   -1.0848826262
 H   -0.8554636981    1.9576992555    0.3692796079
 H    0.7322631607   -3.0310869155   -0.5942226975
 H    0.1716181951   -4.2138620272    1.4711002164
 H   -1.3764820134   -3.3115855200    3.1957549091
 H   -0.6727675696   -1.7736019401    2.7033167857
 H   -3.2753507288   -1.6637777548    2.1863315189
 H   -3.4330471364   -2.5166068426   -0.2597822164
 H   -1.4093939870   -4.2449136003   -0.6733461378