14

 N    0.1715898926    1.2144477096   -0.6001475198
 C    0.0789948056   -0.0625868462    0.0174036940
 C    0.0056382658   -0.2847464327    1.5522486024
 O   -1.1533282376   -1.1462927519    1.4065323571
 C   -1.3454308296   -0.7685508443    0.0365397519
 C   -2.4566415025    0.1832422135   -0.1190668869
 N   -3.2881226940    0.9808699424   -0.1988912437
 C   -1.5087065405   -1.9197825570   -0.8537642885
 N   -1.5795276704   -2.8284320756   -1.5631723193
 H   -0.2780602326    1.9543321747   -0.0747179102
 H    1.1213846852    1.4791526625   -0.8219893827
 H    0.7926968414   -0.7435235715   -0.4482958386
 H    0.8378550339   -0.8076173485    2.0306485489
 H   -0.2405606071    0.6234944749    2.1164636252