17

 C   -0.2041659097    1.5557069917   -0.0310636388
 C    0.0625364585    0.0411062225    0.0362636161
 C    0.7915022909   -0.4885157501   -1.1672048486
 C    2.0682223159   -0.9286309307   -1.1841469486
 C    2.7072715923   -1.4070779043   -2.4159415739
 O    3.8550361767   -1.8022725841   -2.4553284729
 N    1.9031976388   -1.3867210639   -3.5888191519
 C    0.6975055221   -0.9595178317   -3.5033395131
 N    0.0947183623   -0.5057527466   -2.3617294217
 H    0.7349797622    2.1113207645   -0.1023062472
 H   -0.8162633937    1.8247351925   -0.8983002875
 H   -0.7346828917    1.8895681395    0.8647750405
 H    0.6582000198   -0.1911514687    0.9225998136
 H   -0.8891366344   -0.4961409141    0.1476494703
 H    2.6590350963   -0.9378610067   -0.2764333800
 H    0.0614714726   -0.9371029602   -4.3883046580
 H   -0.8650040990   -0.2001235398   -2.3921603783