20

 C   -0.0450549562    1.3168871603   -0.0560471465
 O    0.0056785756   -0.0886334856   -0.0057875171
 C    0.6798901202   -0.5736979631    1.1314278990
 C    0.6704271535   -2.0962717876    1.0757242096
 C    1.3782342432   -2.7215994313    2.2673600139
 O    1.3173508709   -4.1325764596    2.1261045013
 C    1.9480870495   -4.8036941466    3.1849508100
 C    1.8462753950   -6.2507873938    2.9718759131
 N    1.7835661036   -7.3951114405    2.8337492489
 H    0.9622472086    1.7619960553   -0.0897163408
 H   -0.5828130765    1.5921013896   -0.9663257912
 H   -0.5762828388    1.7387147225    0.8121539322
 H    1.7166880898   -0.1927381805    1.1563276821
 H    0.1869888621   -0.2160502521    2.0532990535
 H   -0.3647592972   -2.4504169031    1.0424594592
 H    1.1551543072   -2.4273319582    0.1518327300
 H    2.4305625796   -2.3937858376    2.3160899553
 H    0.8988997331   -2.4175144953    3.2134026404
 H    3.0152589887   -4.5354811709    3.2601498771
 H    1.4855077982   -4.5597647519    4.1560138001