19

 C   -0.0259430875    1.5428007280   -0.0652278038
 C    0.0020533972    0.0150770069   -0.0073456387
 O   -1.3243387834   -0.5133268341    0.0976074826
 C    0.7563835005   -0.6176764875   -1.2080295443
 O    1.5203176968   -1.7319116407   -0.7256533889
 C    1.5618000172   -1.7050501267    0.6800404514
 C    2.2523906637   -0.5027815372    1.2640781098
 O    2.9898962142    0.3374456957    0.4238554940
 C    0.7347726138   -0.5595056965    1.1951902150
 H    0.9897908330    1.9436782715   -0.0524678569
 H   -0.5232756855    1.8903162103   -0.9801713212
 H   -0.5774558567    1.9392358571    0.7917797507
 H   -1.8643824616   -0.0845829327   -0.5749150127
 H    0.0495143628   -0.9861855434   -1.9588436649
 H    1.4269259916    0.1126491454   -1.6739773595
 H    1.6173320378   -2.6945903334    1.1186740293
 H    2.6720841047   -0.5953653949    2.2641463920
 H    3.3536610360   -0.2195269279   -0.2749701775
 H    0.1710783154   -0.6136969598    2.1183453336