14

 O    0.0026720063    0.0213074561   -0.2019419443
 C   -0.0230949983    1.2074075980   -0.0260942280
 C   -1.2728379013    2.0676821441    0.1804592545
 N   -0.7331438773    3.3517756808    0.6283042584
 C    0.5658053702    3.5506296892   -0.0317957010
 C    1.1912518612    2.1439311810    0.0260601481
 C    0.4394240993    4.0320852483   -1.4263977006
 N    0.2887548365    4.4228073940   -2.5042777190
 H   -1.8163164642    2.1052769920   -0.7787174114
 H   -1.9354851704    1.6218531099    0.9271723686
 H   -1.3646555310    4.1279933690    0.4729574129
 H    1.1542706200    4.2882946360    0.5213727376
 H    1.6936222190    2.0016609879    0.9882799263
 H    1.9014284300    1.9259185337   -0.7716551121