19

 C   -0.0898084434    1.5285141316   -0.0045264573
 C   -0.0961341997    0.0190741781    0.0863823105
 C   -1.2121944729   -0.6818901345   -0.6542166377
 O    1.2132100657   -0.5971076518   -0.0625919257
 C    0.5813697063   -0.6462354850    1.2027596568
 C    1.2808617565   -0.1141018483    2.4821217124
 C    0.9301714592   -1.4606484600    3.1402765673
 O   -0.4922805497   -1.6059085691    3.0732889433
 C    0.2816817454   -1.9616786517    1.9156670757
 H    0.7612961703    1.9512105103    0.5335325258
 H   -0.0264968923    1.8476325361   -1.0506548438
 H   -1.0115830648    1.9430610866    0.4174518180
 H   -1.1812931877   -0.4290316832   -1.7197030645
 H   -1.1288419199   -1.7663972618   -0.5581231784
 H   -2.1868972046   -0.3719719301   -0.2628714492
 H    2.3516747655    0.0168732647    2.3053403849
 H    0.8648418122    0.7714208809    2.9679115153
 H    1.4518656166   -1.9947734812    3.9250069231
 H    0.1761700674   -2.9628557115    1.5153789636