20

 C   -0.1020504052    1.4419447192   -0.1503540959
 C    0.0723230557   -0.0490486571    0.0030539040
 N    1.4615026529   -0.5641630727   -0.0269891661
 C    0.6831354755   -0.6648954227    1.1981948314
 C    1.0989775873   -0.0915463826    2.5493813350
 O    0.6627559537   -1.3072850178    3.2122783070
 C    0.2868075691   -1.9026403319    1.9695214391
 C   -0.8887139995   -2.8144288682    1.8503954814
 C    0.5280411009   -3.3467172300    1.6723172504
 H    0.6956845610    1.9783868983    0.3705503808
 H   -0.0676101893    1.7316375743   -1.2058200959
 H   -1.0648351337    1.7664970371    0.2590167913
 H   -0.6838802714   -0.6530477915   -0.4991060441
 H    1.5096297330   -1.4676427190   -0.4937195302
 H    2.1751958765    0.0775944703    2.6641543155
 H    0.5421750445    0.7840807229    2.9022711716
 H   -1.4054624796   -3.0669093693    2.7700742771
 H   -1.5284115896   -2.7329450038    0.9771269696
 H    0.8550439281   -3.6296513685    0.6757055773
 H    0.9443001498   -3.9489514270    2.4725653408