17

 O   -0.7770088456    0.8699708651    0.6435034268
 C    0.0661259203    1.0092254285   -0.2025791911
 C    1.2735458081    1.9141521043   -0.0777650392
 C    1.2899171469    2.9835211450   -1.1879292272
 N    2.5160806423    3.7575837229   -1.2074931099
 C    2.8933225562    4.7360796871   -0.3099476018
 C    4.1412941539    5.1380297863   -0.7058502400
 N    4.5463634780    4.4366459971   -1.8175895996
 C    3.5536820576    3.6215459235   -2.0865963274
 H    0.0026007146    0.4597895810   -1.1715935780
 H    1.2744527553    2.3716684215    0.9143125033
 H    2.1759099043    1.2968393954   -0.1800385315
 H    1.1845203481    2.5088207495   -2.1687783500
 H    0.4404300712    3.6631981812   -1.0654850372
 H    2.2468301847    5.0443889100    0.4953952569
 H    4.7672832696    5.8952523718   -0.2587811462
 H    3.5136159045    2.9149523498   -2.9033784178