16

 C    0.0028585564    1.5369099469    0.0098695037
 O    1.3484434712    2.0226758011    0.0042482190
 C    2.2799314324    0.9485392372   -0.0349157361
 O    2.1476124598    0.1579138431    1.1399883700
 C    0.8501946193   -0.4402326497    1.2142300704
 C    0.0180512271   -0.0086292638   -0.0149180794
 C    0.7893347704   -0.4260764848   -1.2429140973
 C    2.0169011568    0.0932320589   -1.2540818917
 H   -0.4907751721    1.8962229985    0.9226338023
 H   -0.5302788964    1.9420193197   -0.8593709200
 H    3.2718449760    1.3968323480    0.0031690820
 H    0.9581784189   -1.5313226669    1.2564721670
 H    0.3647860642   -0.0999257334    2.1386183288
 H   -0.9950010265   -0.4122637949    0.0351973149
 H    0.3703245232   -1.0709160019   -2.0067243186
 H    2.7675607593   -0.0523182180   -2.0212018750