21

 C   -0.2227526832    1.6093527166    0.2894368216
 C    0.2162468355    0.2124916786   -0.1424560762
 N    0.8080009593   -0.4978568287    0.9942900005
 C   -0.0811226379   -1.2804389218    1.8457604192
 C    0.9162752555   -1.9547440651    0.9625543258
 C    0.4983186573   -2.8195684554   -0.2283448471
 C    0.8993282013   -4.2796824088    0.0001766314
 O   -0.8840833472   -2.7167204382   -0.5608973061
 H    0.6174959991    2.1635681984    0.7174550937
 H   -0.6154486643    2.1714550283   -0.5636509094
 H   -1.0111207535    1.5544263244    1.0477961755
 H   -0.6275580070   -0.3316779756   -0.5880536038
 H    0.9929321818    0.2937110555   -0.9133248188
 H    0.0856936325   -1.2067766821    2.9177409335
 H   -1.1270333838   -1.3453588424    1.5500438643
 H    1.8371414009   -2.3101459156    1.4253609937
 H    1.0136524041   -2.4508518114   -1.1244077496
 H    1.9828928267   -4.3822025156    0.1141514432
 H    0.4300495635   -4.6727446985    0.9107437851
 H    0.5781981788   -4.8918536571   -0.8463673888
 H   -1.3844391895   -3.1203939253    0.1573821025