20

 C    0.3583202179    1.3720659302    0.3247239048
 C   -0.1789815576    0.0060038876   -0.1044971008
 N    0.5637786059   -0.5664430028   -1.2175676254
 C    1.7454902688   -1.2313506357   -1.2142290637
 C    2.0149427069   -1.4783797610   -2.5416823172
 C    3.1589265569   -2.2023934652   -3.1804799494
 C    2.7452434563   -3.5511779273   -3.7917228077
 N    0.9915067241   -0.9516845065   -3.2766074504
 N    0.1212616190   -0.4011004781   -2.4783347736
 H    1.3957291109    1.3015704109    0.6646332949
 H    0.3155932518    2.0773122142   -0.5092400395
 H   -0.2446101274    1.7685949824    1.1470032087
 H   -0.1493997831   -0.7061896247    0.7258019832
 H   -1.2137992509    0.0858439488   -0.4440471269
 H    2.2735641774   -1.4674332905   -0.3052778609
 H    3.5835453923   -1.5667791536   -3.9660842156
 H    3.9493272473   -2.3539209976   -2.4371910954
 H    2.3623051336   -4.2299607507   -3.0229375330
 H    1.9561387384   -3.4060801612   -4.5342840721
 H    3.5961890817   -4.0349940992   -4.2811145602