19

 C   -0.0315294984    1.3904265775    0.5117880221
 C    0.0953945963   -0.0681153101    0.1197495921
 O    1.1543340100   -0.6498334700    0.1273646588
 C   -1.2015973891   -0.7593983787   -0.3151527731
 C   -1.1118761853   -2.2654847265   -0.2390125824
 O   -1.6426873500   -2.8900909820    0.9372908762
 C   -2.2619962631   -3.1770021366   -0.3293939187
 C   -3.7027417155   -2.7466749753   -0.4542971674
 O   -4.5459306275   -3.5738353893    0.3291666821
 H    0.9575146088    1.8308605779    0.6420385443
 H   -0.5984227731    1.9497347949   -0.2405216157
 H   -0.5901993603    1.4677611355    1.4522291253
 H   -2.0411997337   -0.3842219514    0.2763954763
 H   -1.3864692846   -0.4409049949   -1.3522131115
 H   -0.1394446779   -2.6532893723   -0.5382462785
 H   -2.0735338988   -4.1922384157   -0.6834879541
 H   -3.8146788257   -1.6879410397   -0.1812814239
 H   -4.0371078272   -2.8620931529   -1.4913788503
 H   -4.2053271148   -3.5405914106    1.2305287583