14

 C   -0.0159799370    1.4805891291    0.0590193429
 C   -0.0006615085   -0.0081262347   -0.0436105250
 C   -0.0491966331   -0.8076000004   -1.1803483864
 C   -0.0055030289   -2.1384834556   -0.7010307619
 C    0.0662553984   -2.1035698607    0.6755230366
 N    0.0699065306   -0.7964176784    1.0923929045
 N    0.1089218966   -3.3642008099    1.1549329157
 N    0.0701227203   -4.1828887797    0.1927386862
 O   -0.0079796271   -3.4083038683   -1.0833194883
 H    0.8898415566    1.8640431120    0.5436105442
 H   -0.0747422220    1.9224099725   -0.9373777202
 H   -0.8760445011    1.8394457489    0.6368477131
 H   -0.1074517287   -0.4495903149   -2.1948411980
 H    0.1147554639   -0.4581179398    2.0375073366