18

 C   -0.0982857351    1.4416732303   -0.0188860365
 N    0.0433847657   -0.0081853560    0.0369915794
 C    1.4191026048   -0.4990886308   -0.1828015975
 C    0.8287398706   -0.5040624592    1.1855691673
 C    0.6503531943   -1.9862399987    1.4447996698
 C    0.2322733229   -2.6668226537    0.1088254430
 O    1.0056943656   -3.8776193926    0.4381048965
 C    1.8663778625   -2.7585474633    0.8135018211
 C    1.4892028367   -1.9791760052   -0.4995167651
 H    0.7801613446    1.9903595184    0.3622231675
 H   -0.2667494565    1.7465741919   -1.0565700337
 H   -0.9696968936    1.7406648505    0.5721958469
 H    2.1897423815    0.2016524007   -0.4865163170
 H    1.1347167749    0.1927692298    1.9588538690
 H    0.2226677505   -2.3565398973    2.3746295462
 H   -0.7596133356   -2.7922849938   -0.3195683754
 H    2.8462100709   -2.9884286365    1.2354049399
 H    1.8731374354   -2.3426395744   -1.4508890617