21

 O   -0.0624460622    1.3628962330    0.0698608606
 C    0.0218985439   -0.0244781543    0.0133291060
 C   -0.2784329227   -0.8673642179   -1.2010098489
 C    0.7639848813   -1.9699364562   -1.3523713631
 C    1.8201982313   -1.6611238031   -0.2571856846
 C    1.0877572258   -0.8193211563    0.8145685406
 C    0.2535034908   -1.6751400876    1.7979005339
 C   -1.0730546700   -1.9922070937    1.0586878034
 C   -1.2070832754   -0.8766151906    0.0262880539
 H    0.6553220116    1.7291502184   -0.4582467749
 H   -0.6972012337   -0.4024313384   -2.0874964155
 H    0.3269064376   -2.9666449340   -1.2199727464
 H    1.2071091525   -1.9583423461   -2.3526619009
 H    2.2840626814   -2.5621803163    0.1567835404
 H    2.6252181810   -1.0596338931   -0.6954138609
 H    1.7721089028   -0.1529550303    1.3451903690
 H    0.7834486763   -2.5718656463    2.1352805022
 H    0.0323441217   -1.0753545001    2.6874076922
 H   -1.0490361629   -2.9826840059    0.5893620181
 H   -1.9251664063   -1.9953872788    1.7444903146
 H   -2.1721844848   -0.4070483824   -0.1293026896