15

 N   -0.0511782219    1.3465736682    0.1523839300
 C    0.0202887902   -0.0183162344    0.0478320005
 N   -1.1546218387   -0.6634575432    0.0021676318
 C   -1.0881240783   -1.9967879453   -0.0529298437
 N   -2.2779614580   -2.6657178866   -0.1474767591
 H   -3.0993824635   -2.1485507467    0.1178500991
 H   -2.2569310204   -3.6471758124    0.0731536168
 N    0.0221740389   -2.7511989523   -0.0608458060
 C    1.1672079321   -2.0726446595   -0.0195897786
 O    2.3005513617   -2.7982869528   -0.0291203435
 C    1.2495065204   -0.6890077880    0.0333598332
 H    0.7562372471    1.8841734445   -0.1157155436
 H   -0.9459586248    1.7464405250   -0.0825531602
 H    2.0180325742   -3.7225790483   -0.0718389536
 H    2.2018538209   -0.1791931380    0.0756751270