18

 C   -0.0457927265    1.4627695155    0.0789214863
 C    0.0159154651   -0.0366129774   -0.0417123301
 C    0.6785507299   -0.6542439832   -1.2972224444
 C    0.0560188066   -2.0817994088   -1.2774586123
 C   -0.8064308513   -1.9917154538   -0.0000949614
 C    0.1189363767   -1.9250868908    1.2293867316
 O    0.6634447966   -0.6037270673    1.1110190409
 O   -1.2730361311   -0.6351160604   -0.0372924555
 H    0.9654217469    1.8761386953    0.1088862990
 H   -0.5756390583    1.8890385026   -0.7763469422
 H   -0.5653850633    1.7390556859    0.9988423504
 H    0.4047299039   -0.1008940409   -2.1991245104
 H    1.7659349263   -0.6526391337   -1.2034430620
 H   -0.5749422898   -2.2576611347   -2.1513871996
 H    0.7993484632   -2.8812623446   -1.2271017331
 H   -1.6451086033   -2.6827035972    0.0731324801
 H   -0.4348230521   -2.0151173617    2.1715148161
 H    0.9184028905   -2.6746643549    1.2084885366