21

 C    0.0494862213    1.5140883947   -0.0226302829
 C    0.0095634089   -0.0038385692   -0.0138161689
 O    0.6507410132   -0.4793870083   -1.1858213448
 C    0.6723697435   -1.8818448102   -1.2890924130
 C    1.4450989869   -2.2311773488   -2.5877936915
 C    0.6929064735   -1.6948884618   -3.8219531720
 N    2.8129405368   -1.6893137900   -2.6005670511
 C    1.5288529829   -3.7014266614   -2.6637472807
 N    1.5724684855   -4.8554533420   -2.6940446273
 H    1.0826194816    1.8726293094   -0.0394191912
 H   -0.4656512225    1.9071265944   -0.9035225550
 H   -0.4401843252    1.9105240336    0.8715119551
 H    0.5176809999   -0.4031112151    0.8791284703
 H   -1.0306712578   -0.3661527535    0.0165258700
 H    1.1863122997   -2.3329443966   -0.4246112335
 H   -0.3485446160   -2.2947613943   -1.3247399632
 H    0.5887585827   -0.6117604704   -3.7286695906
 H    1.2551818364   -1.9260166374   -4.7277026239
 H   -0.3047947863   -2.1353891604   -3.8936386086
 H    2.7409587315   -0.7002676809   -2.3730771119
 H    3.3575723537   -2.1144640517   -1.8542192052