18

 O   -1.0105674496    1.3515002879    0.2825977186
 C    0.1421208655    1.0325517821    0.4016234494
 C    1.3162815970    1.9076185819    0.0327917030
 N    2.4605199419    1.3938818417    0.2194526958
 C    3.7230325453    2.0983432721    0.0798117900
 C    3.9545643253    2.9285079839   -1.1889091457
 C    3.0277741517    4.1373759107   -1.3102168543
 C    1.5702073455    3.7503706822   -1.5163142040
 O    0.9377821815    3.1371593920   -0.3858537971
 H    0.4706899447    0.0528783530    0.8011153653
 H    3.8282291547    2.7569944608    0.9564400385
 H    4.5168528433    1.3492862736    0.1638521862
 H    4.9986716109    3.2621809318   -1.1793072474
 H    3.8399626244    2.2830464455   -2.0696193811
 H    3.1098521471    4.7732929225   -0.4195999032
 H    3.3260380605    4.7519319907   -2.1685178693
 H    0.9581515270    4.6335795458   -1.7131647414
 H    1.4780300932    3.0736227419   -2.3771100135