14

 O    0.0309063365   -0.0446864011   -0.0295533515
 C    0.0212611333    1.1540478701   -0.0213032361
 N   -1.0916567052    1.9645981922    0.0825952248
 C   -0.8149918445    3.3829352470    0.0679559290
 C   -1.3798470371    4.0956897027    1.2267156065
 N   -1.8321700291    4.6570520131    2.1293683565
 C    0.7252759904    3.3846572745    0.0332796971
 C    1.4520451565    2.7197170722    1.1357602701
 N    1.1886514219    2.0006603211   -0.1358109473
 H   -2.0129792071    1.5736695689    0.1933413899
 H   -1.2012300725    3.8669329150   -0.8389072977
 H    1.2022269042    4.1438355750   -0.5749922516
 H    2.4956360043    2.9582576841    1.3092252778
 H    0.8914404083    2.4141132351    2.0152617724