20

 C    1.9667296762    0.2862136938    1.0691300035
 C    0.9419677104    0.0913350940   -0.0545332184
 C    1.4691098518   -0.8175649854   -1.1455304062
 C    1.3963169539   -2.2907707133   -1.2274872861
 C    0.1141939027   -2.9238396492   -0.6770718596
 C   -0.1690808878   -3.1142606468    0.8075028699
 C   -0.6097570355   -1.8667006233   -1.5314782492
 O   -1.7422769977   -1.5383519001   -1.7047349523
 N    0.5944653021   -1.4078965246   -2.2083336012
 H    2.1897728521   -0.6599147658    1.5729682545
 H    2.9099466939    0.6846528727    0.6800456197
 H    1.5934011902    0.9888310265    1.8194278903
 H   -0.0010955516   -0.2820201229    0.3532374362
 H    0.7058064646    1.0588783255   -0.5141824850
 H    2.3661149245   -0.4147731694   -1.6156930644
 H    2.2296316973   -2.8704913470   -1.6095703734
 H   -0.0396331337   -3.8783949271   -1.1976640400
 H    0.0018558193   -2.2042914570    1.3863230114
 H   -1.2115002540   -3.4144478567    0.9515513920
 H    0.4677735012   -3.9010436639    1.2240832184