24

 C   -0.0989214134    1.5474506303    0.0643197331
 C    0.0411433575    0.0228848019    0.0113583233
 C    0.7673782842   -0.5140336931   -1.2378450828
 C    2.2369843959   -0.0711916769   -1.3060182244
 C    0.6613787302   -2.0264245100   -1.3106843761
 C   -0.6041994546   -2.9219272915   -1.3626970668
 N    0.5182101676   -3.9706703804   -1.4186813075
 C    1.1885860391   -2.9953667499   -2.4003292558
 C    1.1838169042   -3.1129484693   -0.3299605257
 H    0.8726717664    2.0477840223    0.1185499515
 H   -0.6191520171    1.9268519629   -0.8225661096
 H   -0.6744442906    1.8556397611    0.9428333966
 H    0.5683809773   -0.3288685051    0.9086149843
 H   -0.9596156594   -0.4247356688    0.0534963057
 H    0.2495450081   -0.1147912516   -2.1238540588
 H    2.7286326949   -0.4709637025   -2.1985524518
 H    2.3306728030    1.0175327716   -1.3399462620
 H    2.7935276360   -0.4274170764   -0.4312017284
 H   -1.2245885809   -3.0000234478   -0.4652209451
 H   -1.2188820094   -2.8927905435   -2.2677392124
 H    0.7114648219   -2.9719376456   -3.3849707467
 H    2.2689751470   -3.1429828507   -2.4876076000
 H    2.2638019440   -3.2701362226   -0.2549950761
 H    0.7019324783   -3.2038190443    0.6478780355