17

 C   -0.2726039789    0.6133680665    0.7736260429
 C    0.5918891872   -0.4785949205    0.1458714113
 N    0.7104264473   -0.3436422415   -1.3146722441
 C    1.9281955447   -0.0471392766   -1.8859608106
 O    2.1685226182   -0.0763096445   -3.0727617292
 C   -0.3747867266   -0.7291463518   -2.1193764061
 N   -1.3312770544   -1.4016856257   -1.6199547110
 C   -0.4341260844   -0.2131626335   -3.5538044153
 O   -1.1104722500   -0.7823831686   -4.3710182137
 H    0.1400536222    1.6071461537    0.5748019860
 H   -1.2919151937    0.5705123945    0.3838510753
 H   -0.3177141904    0.4714385135    1.8574293456
 H    1.6060482892   -0.4499949930    0.5536358480
 H    0.1723632048   -1.4649627358    0.3556148246
 H    2.6836306859    0.2250283998   -1.1279786381
 H   -2.0197218592   -1.5739185948   -2.3567225201
 H    0.0847322582    0.7339219783   -3.7651248156