15

 N    0.9208225683   -0.1102992741    0.2232429675
 C   -0.2262178415    0.3089575070   -0.1387548567
 N   -1.3376947643   -0.4885270059    0.0098638964
 C   -1.3077407775   -1.8030938598    0.6270161500
 C   -2.7318650278   -2.2915114592    0.3235543679
 O   -3.4845761801   -1.1000576328    0.0326872489
 C   -2.6381476912   -0.0744044986   -0.2592554682
 N   -2.9581553907    1.0696601980   -0.6897482924
 H    1.6264407672    0.5982847397    0.0329918533
 H   -0.4769424873    1.2747523053   -0.5830975164
 H   -0.5302975683   -2.4260242839    0.1804908211
 H   -1.1023852754   -1.7259472250    1.7010786424
 H   -2.7617712508   -2.9476636418   -0.5530494031
 H   -3.2066993879   -2.7977677844    1.1655096817
 H   -3.9624500725    1.1285640657   -0.8368865925