15

 N    0.6220826989    1.2482840929    0.2432458532
 C    0.2947030789   -0.0809800286   -0.1979562588
 C   -1.0990202573   -0.6617237730    0.1375302896
 O   -1.3063640675   -0.9986183334   -1.2750379044
 C   -0.1314719515   -0.3764619230   -1.6518045783
 O    0.2523660799   -0.1665020941   -2.7549594875
 C   -1.1045783541   -1.9286250293    0.9943431359
 N   -2.2394372935   -2.1244047633    1.7176352835
 O   -0.1538574152   -2.6841540315    1.0165461359
 H    1.6165566919    1.4213281350    0.1564677871
 H    0.1465643084    1.9544193792   -0.3092282231
 H    1.0617770973   -0.7922151156    0.1185898024
 H   -1.8327716185    0.0843860219    0.4556223402
 H   -3.0583889230   -1.5566310540    1.5858663053
 H   -2.3332759046   -2.9880281332    2.2285850090