16

 C    0.0757735336    1.4223585761    0.0707471897
 O    0.0702045341    0.0029356474    0.0220372346
 C    0.5576114026   -0.5278528496   -1.1594563417
 C    0.5266363467   -2.0659728039   -1.0815869989
 N   -0.5777975979   -2.4784941176   -1.9518322554
 C   -0.9683853612   -1.4195159522   -2.5412854410
 O   -0.3318431309   -0.2384699653   -2.2663151254
 C   -2.0203631518   -1.3406887288   -3.4969290911
 C   -2.9024280294   -1.2621629884   -4.3085727447
 H    1.0882093048    1.8195951519   -0.0930298675
 H   -0.5991760784    1.8502979991   -0.6785616988
 H   -0.2624455700    1.7050340324    1.0691820690
 H    1.5254120851   -0.0821440067   -1.4236573524
 H    1.4606219966   -2.5198877347   -1.4297023094
 H    0.3526769296   -2.3861214400   -0.0507857656
 H   -3.6856301333   -1.2015720496   -5.0239400616