15

 C   -0.0815501691   -1.1742311383    0.0750442976
 C   -0.0375399769    0.0242058710    0.0008714572
 C    0.0355327359    1.4558585655   -0.1156304973
 O   -0.7708225551    2.1626748294    0.9491849612
 C   -1.2966354873    3.0033875580   -0.0448419304
 C   -0.1752935533    3.5841094259   -0.9984604102
 C    1.2162559262    3.3946555309   -0.5337595069
 C    1.3801104924    2.1444897851   -0.0786967880
 C   -0.8004857913    2.2236308819   -1.2009593420
 H   -0.1240710302   -2.2331928719    0.1454755952
 H   -2.2094252444    3.5422231254    0.1755162848
 H   -0.4733887989    4.4084469787   -1.6347108675
 H    1.9484882934    4.1908227004   -0.4835023039
 H    2.2426151142    1.7244222924    0.4191884837
 H   -1.2532821754    1.8263982557   -2.0997187534