21

 C    0.1516450251    1.4315796760    0.3506381203
 C    0.1723596775   -0.0441608160    0.0170204569
 C    0.7168353636   -0.5829376331   -1.3014761277
 C    1.2705374392    0.3128734626   -2.3894145107
 C    1.4612228743   -0.8257877783   -0.0199558838
 O    2.6788534219   -0.1144230779    0.1254674199
 C    3.3114011584   -0.2432025728    1.3180705005
 C    4.5907405654    0.5587327721    1.3204022438
 O    2.9005547659   -0.9155614724    2.2274380319
 H    1.0608586028    1.9396081271    0.0230788795
 H   -0.7015966737    1.9292145041   -0.1222532909
 H    0.0651411767    1.5773095657    1.4326897792
 H   -0.6714776799   -0.5957062249    0.4241751344
 H    0.1958693586   -1.4571014390   -1.6844985448
 H    1.8707149124    1.1301352111   -1.9861671091
 H    1.9136817448   -0.2596941894   -3.0662688962
 H    0.4612612001    0.7462698163   -2.9866347043
 H    1.5024809298   -1.8137081219    0.4219241737
 H    4.3701670040    1.6179464178    1.1595591837
 H    5.0985905789    0.4269138709    2.2749098176
 H    5.2398479141    0.2342212821    0.5023875960