21

 C   -0.0285816426    1.5291376215    0.0231023869
 C    0.0126006809    0.0195397761   -0.0047990152
 C    0.9544310903   -0.7833199501   -0.9490024652
 C    0.7413925408   -1.9074366909    0.0833753815
 C    0.6930822055   -0.8243595785    1.1971708255
 C   -0.1965338167   -1.3894466460    2.2638568676
 C   -1.0317287868   -2.2553033366    1.6766343460
 C   -0.7974223058   -2.1838527486    0.1783399089
 C   -1.3002495561   -0.7477321623   -0.2397266708
 H    0.9692255018    1.9538747236    0.1786973280
 H   -0.4193448456    1.9355972296   -0.9174346285
 H   -0.6758826613    1.8891163201    0.8312322957
 H    0.6315257822   -0.9366069745   -1.9835061678
 H    1.9833454061   -0.4119036073   -0.9325746166
 H    1.3986890208   -2.7744048709    0.1688971696
 H    1.6492132169   -0.3954560324    1.5009432605
 H   -0.1751934406   -1.1082415488    3.3095049559
 H   -1.8421998033   -2.8031491571    2.1424681882
 H   -1.1957361635   -3.0053792138   -0.4174801542
 H   -2.1366816375   -0.4099094391    0.3771636331
 H   -1.5994012054   -0.6945156341   -1.2915993992