19

 C    0.0809856786    1.5176870550   -0.0659131529
 C   -0.0336359803   -0.0005674679    0.0866793689
 C   -1.4752797581   -0.5507871742   -0.0411128635
 O   -2.0561503282   -0.1672258234   -1.2738894069
 C   -1.4960516855   -2.0828448916    0.1518684136
 C   -2.0263872367   -2.2700943998    1.5516678039
 C   -2.4902550926   -1.1378593050    2.0998347885
 C   -2.3584796059   -0.0437618267    1.1222829913
 O   -2.8811864217    1.0510627279    1.1302354589
 H    1.1271162665    1.8290770888    0.0083575193
 H   -0.2926121130    1.8330284754   -1.0442142098
 H   -0.4882403563    2.0495698995    0.7006334009
 H    0.5601274233   -0.4922195213   -0.6934867466
 H    0.3824012013   -0.3215837260    1.0503075756
 H   -2.5162835269    0.6660403027   -1.0988370506
 H   -2.1706953265   -2.5353600916   -0.5840458997
 H   -0.5147544994   -2.5509535709    0.0182717097
 H   -2.0387066998   -3.2425486278    2.0333013181
 H   -2.9583093188   -1.0204643731    3.0684803411