23

 C   -0.0199165268    1.5941977724    0.0626171543
 C   -0.1665069224    0.0733517022   -0.0938557044
 C    0.6615031358   -0.5032215920   -1.2458427404
 O    0.1409752027   -0.0171237724   -2.4754889891
 C    2.2242710846   -0.6234382061   -1.1385717147
 C    2.0068839263   -1.8176831376   -0.1671890509
 C    0.9720823068   -2.0370574468   -1.3171108111
 C   -0.0301370993   -3.1504727134   -1.4688753772
 C    2.1444896833   -1.6687854871   -2.2897189977
 H    1.0217138838    1.8787400457    0.2460910559
 H   -0.3656087816    2.1375646926   -0.8248422823
 H   -0.6173299819    1.9579365049    0.9037716899
 H    0.0911104017   -0.4008190276    0.8555377337
 H   -1.2169319764   -0.1717283122   -0.2911992175
 H    0.1823365573    0.9437608658   -2.4615479669
 H    2.9494731887    0.1856803811   -1.0328523712
 H    2.8218161984   -2.5453381838   -0.1362784642
 H    1.6371982668   -1.6174531030    0.8390046773
 H   -0.7187810781   -3.1857772331   -0.6171599762
 H   -0.6251079167   -3.0115793936   -2.3775762454
 H    0.4686471924   -4.1234099938   -1.5358063682
 H    1.8689228738   -1.3032691600   -3.2759896601
 H    2.9654597506   -2.3898375423   -2.3301009635