19

 C    0.0332434440    1.5269004441    0.0965372071
 C    1.4209250910    0.8812253298    0.1882106210
 O    2.0391371230    0.3411590886    1.3357318962
 C    1.5776014637   -1.0342412638    1.3035776702
 C    0.0723486501   -0.8300016591    1.1353123069
 C    0.2131886892    0.0571141816   -0.1174967716
 O    0.1834867749   -0.6555144446   -1.3135530781
 C    1.0229562612   -1.8243920776   -1.1474190648
 C    2.0736671262   -1.7636453401    0.0101822498
 H   -0.5150024651    1.8392022013    0.9794394908
 H   -0.0790280727    2.1801720950   -0.7635964094
 H    2.1029255511    1.1462804610   -0.6137159248
 H    1.9281430950   -1.5116470132    2.2212928087
 H   -0.5060546412   -1.7339207304    0.9345110924
 H   -0.3596452777   -0.3085548139    1.9916976336
 H    0.3652820332   -2.6865836139   -0.9772667271
 H    1.5272969510   -1.9866166217   -2.1047358038
 H    2.9978107541   -1.2795703902   -0.3179311677
 H    2.3303038491   -2.8015368831    0.2483528408