17

 C   -0.2120187166    1.4410761936   -0.0639059801
 C    0.1149454992   -0.0128250697   -0.0329870706
 O   -0.7835831370   -0.9159587933    0.6439736725
 C    0.6138191816   -0.9325842069    0.9896785023
 C    1.3754357530   -1.7787657023   -0.0730848681
 C    0.4494834513   -2.2756128257   -1.1477405939
 C   -0.9576078307   -2.7912417724   -0.9452704642
 O   -1.8110372717   -2.6988863398   -1.7903803877
 C    0.8504343612   -0.8233640235   -1.1497018689
 H    0.6729765512    2.0290257751   -0.3273871706
 H   -0.9874107380    1.6443264993   -0.8108257379
 H   -0.5768535198    1.7711897757    0.9119373999
 H    0.8717134900   -0.7960834820    2.0332145153
 H    2.3844600513   -2.1435749179    0.0640722853
 H    0.9676943952   -2.8361570645   -1.9246558334
 H   -1.1265868279   -3.3451561878    0.0008031355
 H    1.3941688377   -0.3628808177   -1.9640928754