17

 O    0.3633927743    1.0544315438    1.2885981321
 C    0.3259784340    1.6608092324    0.2507416059
 C    1.4618462909    1.6791230580   -0.7628955346
 C    1.5350230169    2.9404821072   -1.6049812544
 C    1.2837230872    4.3057840888   -0.9815712539
 O    1.2884330739    4.3238612697    0.4287479066
 C    2.6537682259    4.4082903942    0.8084552443
 O    3.4079084584    3.7706490474   -0.2106588545
 C    2.6677697205    3.9370923365   -1.3964786561
 H   -0.5817061999    2.2275513881   -0.0575347136
 H    2.3958845530    1.4948676200   -0.2261753100
 H    1.2997247853    0.8187406522   -1.4251797520
 H    1.2013389553    2.8581462855   -2.6358368606
 H    0.6648220702    5.0610347851   -1.4524529280
 H    2.9568755385    5.4638395351    0.9052511759
 H    2.7959632472    3.8726476544    1.7500693485
 H    3.2129188785    4.3752674015   -2.2246065156