19

 C   -0.0606114211    1.4604823455    0.1150189232
 C    1.2956669583    0.8041931954    0.0246658450
 C    1.9640644426    0.4466560442    1.3628044495
 C    1.0080796601   -0.5405030091    2.0166851985
 C   -0.0031706181   -0.8356080099    1.1896583175
 C   -1.0425609648   -1.8392660599    1.0219951531
 C   -1.4394701554   -1.8622466301   -0.2639326790
 C   -0.7078150124   -0.8460991504   -1.1304712812
 C    0.0345116537   -0.0345538696   -0.0734472548
 H   -0.3999916282    1.8468095228    1.0724705157
 H   -0.3762038185    2.0399365791   -0.7482997484
 H    1.9201476593    1.0290774207   -0.8325898441
 H    2.9462118060   -0.0218829622    1.2061260915
 H    2.1496469071    1.3405373561    1.9739260730
 H    1.1947227270   -0.9764284120    2.9907606484
 H   -1.3899325247   -2.5106270622    1.7977867527
 H   -2.1611565337   -2.5580140160   -0.6775945976
 H   -0.0368891859   -1.3608219227   -1.8339691753
 H   -1.3915694411   -0.2403520799   -1.7359179878