19

 C   -0.0486366340    1.3540637568   -0.2777553338
 C    0.0569821687   -0.1097859623    0.1657988084
 C    0.7098796303   -0.2476693510    1.5461846419
 N   -1.2564331553   -0.7429142025    0.1560079842
 C   -1.5905641268   -1.7863118017   -0.6213629636
 O   -0.8724190763   -2.3632849325   -1.4266618115
 C   -3.0575821791   -2.2176084405   -0.3901709753
 N   -3.3886919422   -3.2626585590   -1.1701551561
 O   -3.7821676978   -1.6498869654    0.4097529018
 H    0.9422600389    1.8173609491   -0.3070496044
 H   -0.4945937248    1.4292048936   -1.2730677708
 H   -0.6674818472    1.9313710194    0.4190056973
 H    0.6448199532   -0.6678739160   -0.5687601886
 H    0.1199427263    0.2685932200    2.3124589617
 H    0.7973040309   -1.2988601555    1.8334565631
 H    1.7110743987    0.1938817403    1.5416482716
 H   -1.9989792471   -0.4084165061    0.7584177472
 H   -2.6803225850   -3.6295385797   -1.7870993134
 H   -4.3127384516   -3.6567200471   -1.1321776796