18

 C    0.2033775533    1.1029531618   -0.6855159354
 C    0.0746067834   -0.2164528655    0.1018770594
 C    0.6124383964   -0.0777737700    1.5372900946
 O    1.9886887732    0.2479167138    1.4408804926
 C   -1.3032434808   -0.6964318118    0.1279301544
 C   -2.4473402024   -1.0759517769    0.1719369772
 C   -3.8223148153   -1.5363160898    0.2990031627
 N   -4.4282226629   -1.7988634243   -0.8966729836
 O   -4.3800939674   -1.6650910727    1.3720942645
 H    1.2418161211    1.4381643961   -0.6630840253
 H   -0.1074163195    0.9684892300   -1.7245300049
 H   -0.4257734542    1.8790318633   -0.2389097305
 H    0.6961188484   -0.9750226252   -0.3937624970
 H    0.0429987748    0.7045275189    2.0618397546
 H    0.4568177827   -1.0234446846    2.0756692908
 H    2.3292953874    0.3886915768    2.3287102283
 H   -3.9240093808   -1.7478552192   -1.7641664113
 H   -5.3639084875   -2.1702383406   -0.8846764812