21

 C   -0.0601835787    1.3476206055   -0.3711159600
 C   -0.1611208472   -0.0039799228    0.3462447345
 C   -1.5048148755   -0.6662788193    0.1298059888
 C   -1.7776334175   -1.4858806394   -1.0935451026
 C   -1.6454289860   -2.1815645301    0.2546847029
 O   -0.4934701238   -2.9015801744    0.5617357093
 C   -0.3513896812   -4.1098836983   -0.1682990807
 C   -2.8868784805   -2.6716724829    0.9136027917
 O   -3.9901128102   -2.2171826435    0.7233273842
 H    0.9156668657    1.8110467701   -0.1967035016
 H   -0.1911070689    1.2318833567   -1.4520497713
 H   -0.8283842045    2.0439744085   -0.0178768834
 H    0.6310924621   -0.6760966066    0.0030308751
 H    0.0024213111    0.1361580260    1.4217419116
 H   -2.3629676780   -0.1280331555    0.5247255828
 H   -2.7699020740   -1.4659444120   -1.5300633713
 H   -0.9556691993   -1.6386040463   -1.7852340759
 H    0.5681385771   -4.5835049373    0.1821455143
 H   -1.1926864641   -4.7953484285    0.0050625622
 H   -0.2736170876   -3.9240687317   -1.2480129591
 H   -2.7067921189   -3.4963803984    1.6394443187