17

 C    0.1507134275   -1.2028582936    0.0046663039
 C    0.0400014788   -0.0023327333    0.0260515251
 C   -0.0252211847    1.4063117880    0.0551285426
 C   -1.1489275036    2.1644503726    0.0754016897
 C   -0.8136558630    3.6458749908    0.0484805422
 C    0.6947049982    3.6767072690    0.3837381899
 C    1.2220654930    2.2724212079    0.0117534501
 C   -2.4799490906    1.6978193944    0.0715120605
 C   -3.6348578534    1.3511789796    0.0729574307
 H    0.2272979895   -2.2615357756   -0.0159311866
 H   -1.0243422800    4.0547360243   -0.9491813916
 H   -1.4221651145    4.2197789246    0.7538964044
 H    1.2262687772    4.4784393735   -0.1342302681
 H    0.8241144827    3.8397856968    1.4581357257
 H    1.9992319121    1.9114409863    0.6921697736
 H    1.6551879464    2.2469195502   -0.9975235445
 H   -4.6454786556    1.0260137045    0.0719719025