15

 N    0.2536038108    0.1417167404   -0.9129826720
 C   -0.2105990641    0.2060602067    0.3638512263
 O    0.0894185058    1.0872027965    1.1416578939
 C   -1.2076655041   -0.9049221374    0.7596096169
 C   -0.8894856854   -2.2805881304    0.2983439110
 C   -0.4895535621   -3.4259869027    0.9023252693
 N   -0.3364846318   -4.4319583835   -0.0470279508
 C   -0.6410391058   -3.8620262666   -1.1618514650
 O   -0.9935003410   -2.5547659048   -1.0494004589
 H    0.8931479130    0.8549247362   -1.2218657617
 H    0.0027120322   -0.6050499060   -1.5374363717
 H   -1.2565918273   -0.8927565050    1.8489490665
 H   -2.1944528161   -0.6025176354    0.3852077581
 H   -0.3033845320   -3.6014446363    1.9498134211
 H   -0.6572890521   -4.2835675517   -2.1545242131