19

 C   -0.0225805501    1.5063800237    0.0131219822
 C   -0.0297585406    0.0096155157    0.0035457768
 C   -0.1207978619   -0.8637639912   -1.0545448210
 C    0.1853042754   -1.2707138715   -2.4870509130
 C    0.3550777352   -2.7122977511   -1.8837525447
 N   -0.1248634507   -2.1542366423   -0.6010348071
 C    0.0461142929   -2.1743665584    0.7688622557
 C    0.0287451794   -0.8454641729    1.1662016063
 N   -0.0516053433   -0.3624542358    2.4867459169
 H    0.8769131610    1.9141203730    0.4948367279
 H   -0.0510686828    1.9055071360   -1.0047165006
 H   -0.8850392778    1.9183805867    0.5527285658
 H   -0.6271937171   -1.1638504702   -3.2113604415
 H    1.1003614868   -0.8554420517   -2.9171446197
 H   -0.2757964954   -3.5089416915   -2.2885575613
 H    1.3964680604   -3.0475036783   -1.8498451507
 H    0.0154199303   -3.0782027220    1.3567181068
 H    0.2764182451   -1.0366366629    3.1668411665
 H    0.4634415831    0.5009261647    2.6103312046