17

 C   -0.0277599210    1.3462839723   -0.0474714399
 C    1.2537048313    2.1776514332    0.0637012729
 C    2.0730591717    1.9822980385    1.3167422991
 C    2.3499402313    0.8346031131    1.9379114176
 C    1.9131225602   -0.5556876013    1.5430716218
 C    0.4666596620   -0.7031218107    1.0617288872
 O    0.1876189033   -0.0464002021   -0.1585802479
 H   -0.6844475823    1.5604592579    0.8115143876
 H   -0.5616955406    1.6366053409   -0.9591305895
 H    1.8756985839    1.9645512744   -0.8182484130
 H    0.9679185415    3.2335244417   -0.0189101917
 H    2.5139939110    2.8887380750    1.7268531544
 H    2.9973187826    0.8853179767    2.8111679644
 H    2.5758946199   -0.9378068772    0.7526025083
 H    2.0449825118   -1.2309988426    2.3974333706
 H    0.2586060987   -1.7635958227    0.8811605766
 H   -0.2229940553   -0.3523104971    1.8467611914