17

 O   -0.1164809174    1.4160964927   -0.0085679787
 C    0.0155054512    0.0522238312   -0.0059885306
 C    0.0516654075   -0.9957437193    1.0740035766
 C   -1.0454881716   -0.9947664806   -0.0202881081
 C   -0.3993287278   -1.7831956187   -1.2083875437
 C   -0.0579743371   -3.2096083311   -0.8647762779
 C    0.8946174852   -3.2053657813    0.0769843037
 C    1.2354378361   -1.7757681851    0.4112492090
 C    0.8819819202   -0.9537452633   -0.8703004733
 H    0.6639452938    1.7998679862    0.4074556201
 H   -0.2113482967   -0.9271595154    2.1216339229
 H   -2.0912040070   -0.9087894819    0.2436839459
 H   -0.8721534303   -1.5889649984   -2.1710585114
 H   -0.5846825538   -4.0769261909   -1.2453606167
 H    1.2861563344   -4.0683761314    0.6027303962
 H    2.2044090783   -1.5810656513    0.8724116420
 H    1.6295081451   -0.7225425614   -1.6280373659