21

 C   -0.0252542031    1.6484176735    0.1800681655
 C    1.4631694925    1.2294594240    0.0572437073
 C    1.1209336270    0.0225621338    1.0081280782
 C   -0.0049600403    0.0922288809   -0.0433551640
 O   -1.0792325702   -0.7484300879   -0.2489460466
 C   -1.6701250303   -0.4600476289   -1.5252044492
 C   -0.6617615800   -0.4206465692   -2.6905101461
 C    0.4638285541    0.6233570413   -2.4815973486
 C    1.0787206223    0.2823665345   -1.1277178056
 H   -0.3534881872    1.9848036887    1.1667056211
 H   -0.4353454896    2.2840944256   -0.6045298513
 H    2.3312503869    1.8799959720    0.1392300719
 H    1.7838887678   -0.8451005734    0.9558643642
 H    0.8633410101    0.2804212443    2.0384159506
 H   -2.4116908634   -1.2458173821   -1.6897720702
 H   -2.2049407894    0.5011270182   -1.4679682808
 H   -0.2143237425   -1.4168163236   -2.7985357050
 H   -1.2179365210   -0.2175750247   -3.6127479905
 H    1.1953688040    0.5661401169   -3.2943097771
 H    0.0419668221    1.6331042261   -2.5096190273
 H    1.7468248203   -0.5818998802   -1.2234740466