23

 C    0.2737477973    1.3247768692    0.2272761373
 O   -0.1444010651    0.0025844944   -0.0653782467
 C    0.4673616186   -0.5367897768   -1.1779118838
 C    1.8840114366   -1.0493829520   -1.1432320906
 C    0.7447196738   -2.0059753026   -1.4494173699
 C    0.4802443477   -3.2266531382   -0.6149739608
 C    0.3400293297   -1.8064540456   -2.9295939743
 C   -0.8636650417   -2.6103923413   -3.4053532013
 C    0.0225252928   -0.2993773748   -2.6235100931
 H    1.3569179317    1.3724825456    0.4072667576
 H    0.0247729902    2.0202969860   -0.5868065563
 H   -0.2556976198    1.6356216317    1.1308968144
 H    2.6094798731   -0.7762034758   -1.9080262801
 H    2.2959645745   -1.1529694263   -0.1436313935
 H    0.6217436643   -3.0046337540    0.4473112877
 H   -0.5447480240   -3.5905280887   -0.7416298476
 H    1.1599066796   -4.0464624853   -0.8775738187
 H    1.1762461798   -1.9472356780   -3.6258088358
 H   -1.7154864349   -2.4900793680   -2.7265120561
 H   -1.1809517891   -2.2764795662   -4.3992235574
 H   -0.6349699469   -3.6798079874   -3.4694229439
 H   -1.0500497248   -0.0982614197   -2.6958603154
 H    0.5687397367    0.4575674838   -3.1965552217