25

 C    1.9659873511    0.9917540254    0.7657380090
 C    1.5158991997   -0.4711907969    0.5987317858
 C    2.4154433277   -1.3703844031    1.4506723212
 O    0.2016936899   -0.6196426825    1.1634685504
 C    1.5054966583   -0.8044082466   -0.9036787217
 C    2.3142697344   -1.9053773794   -1.5605934226
 C    0.8081566634   -1.9885825704   -1.5576945084
 C    0.1289710231   -3.0700788762   -0.7367103689
 C    0.0928516717   -1.7044226617   -2.8683147568
 H    2.9722095213    1.1457410578    0.3617865765
 H    1.2860340092    1.6670742153    0.2332806472
 H    1.9642428114    1.2710397114    1.8229835991
 H    2.3267735587   -1.0749181978    2.4998734755
 H    2.1323995735   -2.4223659340    1.3781703475
 H    3.4607205015   -1.2710115637    1.1468840559
 H   -0.4108277892   -0.1389007979    0.5968299310
 H    1.4378440461    0.0989581067   -1.5072385534
 H    2.8308110175   -1.6806217408   -2.4887859130
 H    2.8530534719   -2.5889721122   -0.9134963332
 H    0.6662447817   -3.3061471367    0.1820049876
 H   -0.8845084520   -2.7725094526   -0.4490831836
 H    0.0526012828   -3.9911994065   -1.3274113412
 H    0.0341671760   -2.6092374429   -3.4853175630
 H   -0.9336646815   -1.3590892596   -2.6941524755
 H    0.6093342718   -0.9364319050   -3.4526868755