18

 C    0.0685976127    1.6504023893    0.0402442035
 C    0.0467723336    0.1310367025    0.0186822261
 C    1.0401164053   -0.6159787796   -0.9142102901
 C    1.2888396640   -1.6626110641    0.2183046177
 N    2.6875370175   -1.9973684070    0.4627415594
 C    0.6612905161   -0.6408527576    1.2193524655
 C    0.4376988696   -2.8533852230    0.0532893564
 N   -0.1962262358   -3.8136442348   -0.0704785354
 H    1.0811350690    2.0264538418    0.2245433718
 H   -0.2742277743    2.0650879165   -0.9140492129
 H   -0.5836379076    2.0448471151    0.8271156218
 H   -0.9717013787   -0.2253886333   -0.1663031217
 H    0.6735057894   -0.9886270727   -1.8720861147
 H    1.9616999384   -0.0475257554   -1.0661526378
 H    2.7638559962   -2.5776386332    1.2951895374
 H    3.0480791629   -2.5588829477   -0.3055154699
 H    1.4719633889   -0.0796781626    1.6920395489
 H   -0.0111315673   -1.0335806442    1.9838194641