23

 C    0.0580076245    1.5411818211   -0.1171524448
 C    0.0658854040    0.0140210508    0.0038109409
 C    0.7196716957   -0.5194515707    1.2915286039
 C   -0.0265982818   -0.0927874010    2.5625800007
 C    0.8343822260   -2.0419839758    1.2155948531
 O    1.5596492581   -2.5147323248    2.3367156876
 C    1.6856180056   -3.9097699878    2.3802052637
 C    2.4701248519   -4.2785149976    3.6275171558
 O    2.7357566277   -5.4084913143    3.9394059572
 H    1.0738182854    1.9473895745   -0.0548443065
 H   -0.3657302374    1.8530280990   -1.0767051245
 H   -0.5367702359    2.0102105660    0.6720601647
 H   -0.9650140595   -0.3618924651   -0.0571867503
 H    0.5943278911   -0.4065213462   -0.8617627751
 H    1.7455279740   -0.1280474984    1.3438849232
 H    0.4294072440   -0.5480901946    3.4445368605
 H   -0.0109936397    0.9922559900    2.6942376189
 H   -1.0760200045   -0.4105631946    2.5222438540
 H   -0.1701321510   -2.5004704583    1.1968066597
 H    1.3462738609   -2.3426475186    0.2861638603
 H    0.7054844586   -4.4160609508    2.4165086033
 H    2.2169437685   -4.3082976281    1.4984759166
 H    2.7798434336   -3.3982546045    4.2331102071