16

 C   -0.2602916962    1.5256939695   -0.0251302357
 C    0.0788565438    0.0448610641    0.0338715215
 C    0.9491333120   -0.4777268655   -1.1435601858
 N    2.2090029285   -0.9156949673   -0.5298733167
 C    2.0822413216   -0.7331795252    0.7212166128
 C    3.1022285380   -1.0336826665    1.7659450660
 O    0.9139832299   -0.2145585472    1.1940524908
 H    0.6483564453    2.1229800031   -0.1523332199
 H   -0.9237362983    1.7251117565   -0.8732149756
 H   -0.7640110894    1.8504682341    0.8895316870
 H   -0.8332481858   -0.5467508649    0.1643443405
 H    0.4799048589   -1.3141419861   -1.6729881175
 H    1.1432731229    0.3060006516   -1.8857919408
 H    3.9942701445   -1.4491213725    1.2986187185
 H    3.3634850566   -0.1231100896    2.3142668253
 H    2.7010308475   -1.7464982940    2.4932324994