19

 C   -0.0448499891    1.5697162781    0.0067697745
 C    0.0591711407    0.0519688869   -0.0005493756
 O   -1.2604867362   -0.4422600047   -0.0787509856
 C    1.0044335962   -0.6059911387   -1.0509551497
 C    2.3892241366    0.0150608406   -0.7390747864
 C    2.2711406614   -0.7688215107    0.5804156065
 C    1.4486335523   -1.8516134490   -0.1441746346
 O    0.5302801882   -2.0039020712    0.9564817198
 C    0.8293906472   -0.5870904558    1.1945997475
 H    0.9012018864    2.0620946592    0.2393009200
 H   -0.3980681550    1.9346981060   -0.9623615369
 H   -0.7789951100    1.8640664654    0.7618578506
 H   -1.1960943664   -1.3706371256    0.1913068355
 H    0.6155258918   -0.7110667711   -2.0618825456
 H    3.1846285151   -0.4158462704   -1.3547694415
 H    2.4895234637    1.1010561505   -0.7369996451
 H    3.0950152486   -0.9846464251    1.2583068853
 H    1.8118541573   -2.7761944057   -0.5892838881
 H    0.6233624412   -0.2636095586    2.2141470095