15

 O   -0.0196770946    1.3925662491   -0.0665015002
 C    0.0174332767    0.0176332070   -0.0766319468
 C    0.3848641689   -0.8593113626    1.1947166773
 O   -1.0145992423   -1.0622481698    1.5077647204
 C   -1.2428913113   -0.8678311919    0.1002487651
 C   -0.3899780850   -1.9465360267   -0.6517917867
 C    0.8107880728   -2.0814033625    0.3483663915
 O    1.7605941100   -1.5658952241   -0.6251644827
 C    0.6170095166   -0.8986712027   -1.1996967029
 H    0.8831212653    1.7259568089   -0.0032919043
 H    0.9965038856   -0.5257248334    2.0313596634
 H   -2.2663834603   -0.6371703290   -0.1863887009
 H   -0.7840310966   -2.7997575807   -1.1945668578
 H    1.1239960100   -3.0025858323    0.8362769082
 H    0.7353531143   -0.5476566892   -2.2233097533