16

 O    0.0160509976    0.0189930308    0.2680483081
 C   -0.0198133493    1.1894617038    0.0022051018
 O   -1.2066943236    1.7856179709   -0.2642130629
 C   -1.2227779020    3.1304191892   -0.7738951696
 C   -0.1092946752    3.9757000098   -0.2081397945
 C    0.1639851572    3.8725796408    1.3192247340
 C    1.4515460445    3.1601459337    0.9287793668
 C    1.2167001230    2.0377035436   -0.0224376405
 N    1.2610869511    3.4223684357   -0.5450348195
 H   -1.1531458697    3.0944028881   -1.8684412576
 H   -2.2024065861    3.5336786262   -0.5026263357
 H   -0.1918992777    4.9982729867   -0.5810275576
 H    0.3479375621    4.8492169413    1.7689525725
 H   -0.5502886029    3.3214798771    1.9361446151
 H    2.4179403224    3.2778942467    1.4075075866
 H    2.0944950585    1.4582966957   -0.2860776370