15

 O   -0.0783550013   -0.0152499315    0.0119370568
 C   -0.0805952107    1.1739394472    0.0599315579
 C   -1.1599661963    2.2496048329    0.2386637341
 C   -0.0340431866    3.2656299131    0.5850093449
 C    1.0587050405    2.2539977904    0.0812822173
 C    2.2381479364    2.0134566096    0.8682476649
 C    3.2123161246    1.7944709723    1.5539323760
 C    4.3070350543    1.5538974964    2.3234566933
 C    5.2797641411    1.3420889111    3.0073484012
 H   -1.6725819137    2.4625090114   -0.7052145177
 H   -1.9127104233    2.0372884679    1.0009746825
 H   -0.0587896526    4.2202898034    0.0604313664
 H    0.0535088014    3.4439170947    1.6572039690
 H    1.3248011770    2.4717501126   -0.9620895286
 H    6.1345767693    1.1523654185    3.6076519322