20

 C    0.0317780670    1.4572211389   -0.1678210790
 N   -0.1456034624    0.0221677624   -0.2733779504
 C   -1.1463411730   -0.6455035439    0.3717129548
 O   -1.9780482437   -0.0865424149    1.0654450258
 C   -1.1367760955   -2.1617783684    0.1801862148
 C   -2.5551422198   -2.7267349486    0.0598119099
 C   -2.5721943288   -4.2675396983    0.0632034235
 C   -3.9145706083   -4.8197546621   -0.0727068529
 C   -5.0304153137   -5.2513098365   -0.1880266888
 H    0.9988602287    1.7099003903    0.2816181258
 H   -0.0351871086    1.9407560996   -1.1487614542
 H   -0.7675450388    1.8344180697    0.4709462934
 H    0.5031904964   -0.5057298223   -0.8322901363
 H   -0.5274478554   -2.4464364491   -0.6865315678
 H   -0.6442941860   -2.5917100164    1.0632525441
 H   -3.1553317479   -2.3424622211    0.8879410819
 H   -3.0249321251   -2.3630247792   -0.8604709774
 H   -1.9399482376   -4.6479084119   -0.7507090860
 H   -2.1186417275   -4.6352157550    0.9935756306
 H   -6.0132384601   -5.6402178430   -0.2868841520