14

 C    0.1612701914    1.5141970716   -0.0594223073
 C   -0.0243249453    0.0122994586    0.0769702284
 O    0.5089563434   -0.6471139262   -1.0986198275
 C    1.2987478178   -1.7129031265   -0.7880941440
 O    1.6978660698   -2.4918419982   -1.6021410374
 C    1.5345559537   -1.7068822109    0.7028398658
 O    2.1281470183   -0.4647112122    1.1266119349
 C    0.7168063569   -0.6202399067    1.2439230127
 H    1.2258445223    1.7582015162   -0.0677732223
 H   -0.2936915439    1.8689979620   -0.9870180639
 H   -0.3152008716    2.0301060576    0.7800301492
 H   -1.0889120937   -0.2467469022    0.1364273175
 H    1.8436661423   -2.6070351917    1.2204507282
 H    0.3033345987   -0.6117441213    2.2476273857