19

 C   -0.0132699565    1.4583101972   -0.0164110323
 N    1.2644436175    0.7094397294    0.0781109457
 C   -0.0018548653   -0.0157040343    0.0097942857
 C   -0.5694446235   -0.9175111974    1.0821267181
 C   -1.3482001543   -1.6676474614    0.0426667574
 C   -0.5354600247   -0.9661910922   -1.0882726368
 C    0.5392174331   -1.9957337474   -1.4548843906
 C    0.8491806838   -2.6353805595   -0.0765468687
 N   -0.3093097817   -2.3417575337    0.8023118239
 H   -0.2732856648    2.0245300467    0.8745900732
 H   -0.2626028912    1.9523093324   -0.9526547200
 H    1.7279213742    0.7013493043   -0.8284091203
 H   -0.8229471765   -0.6401578348    2.0993936122
 H   -2.3699272962   -2.0255451836    0.0264026064
 H   -1.0666609974   -0.5074241039   -1.9225436090
 H    0.1424635976   -2.7332813823   -2.1611347487
 H    1.4236056883   -1.5413712475   -1.9133797032
 H    0.9625552406   -3.7209161217   -0.1426787037
 H    1.7582097570   -2.2266946101    0.3725419607