19

 C    0.0343354244    1.4816333116   -0.1100478305
 N   -0.0214991361    0.0406750836    0.0787679524
 C   -1.2805790829   -0.6762610083    0.3235447238
 C   -0.7575438159   -2.1169497703    0.1957667911
 C    0.4857054977   -2.1011928644    0.6837072003
 C    0.7504587515   -0.6505166318    1.1206562684
 C   -0.1351268668   -0.5211147835    2.4039880955
 N   -0.9670412963    0.7028394835    2.4666213716
 C   -1.5071971299   -0.5385116140    1.8654981101
 H    1.0707064509    1.7495178763   -0.3485969487
 H   -0.5686177420    1.7287135916   -0.9921663851
 H   -0.3043117144    2.0899707064    0.7329193921
 H   -2.1018175424   -0.3760058468   -0.3273823751
 H   -1.3349220680   -2.9607445934   -0.1563255044
 H    1.1667957772   -2.9290379084    0.8255262848
 H    1.7883586909   -0.3266970203    1.1993710117
 H    0.1374017222   -1.0424268056    3.3160161931
 H   -1.3384375301    0.8007515128    3.4097606189
 H   -2.3157005600   -1.0735292790    2.3532598100