16

 C   -0.0671228674   -1.2296821292   -0.0042900825
 C   -0.0609394302   -0.0281490584    0.0025254549
 C   -0.0173173332    1.4280858524    0.0104752037
 C    1.4238281366    1.9740445501   -0.0008780296
 C    1.4430027362    3.5174224584    0.0078339372
 C    2.7882586185    4.0648883695   -0.0024784683
 C    3.9155594871    4.4998901422   -0.0115697703
 C    5.1870960474    4.9962403042   -0.0219204965
 N    6.2693386611    5.4187479145   -0.0307223637
 H   -0.0852796726   -2.2914326167   -0.0103285621
 H   -0.5637810748    1.8165545288   -0.8592996807
 H   -0.5461204549    1.8064433660    0.8954894476
 H    1.9667821435    1.5959005402    0.8700658439
 H    1.9491009708    1.6060305801   -0.8868737989
 H    0.8950001466    3.9022741922   -0.8626818559
 H    0.9126429853    3.8921452656    0.8935610112