17

 C   -0.5086664765    1.3152209798    0.1595308621
 C    0.2347788682   -0.0013130752   -0.0978720092
 C    0.9096709231   -0.5219353625    1.1588512482
 O    0.0429597598   -1.1101139628    2.1331975571
 C    0.9584976737   -1.9880264602    1.5001459979
 C    0.4276753748   -3.0373651928    0.5734764951
 O   -0.6808807523   -3.0532042333    0.1029800920
 C    1.9764749696    0.2966087598    1.6920716862
 C    2.8686794686    0.9886637700    2.1043283088
 H    0.1732746147    2.0979531476    0.5044565440
 H   -0.9915603002    1.6636813645   -0.7574437306
 H   -1.2826052160    1.1766258186    0.9199418667
 H   -0.4641495674   -0.7616143768   -0.4514733347
 H    1.0016462820    0.1399040808   -0.8682441278
 H    1.7942213533   -2.3150526660    2.1203003714
 H    1.1734292796   -3.8292534899    0.3381174262
 H    3.6530171549    1.6001683084    2.4780995364