18

 C    0.0071225191    1.5132910417    0.0085025300
 C   -0.0445299845   -0.0169311136    0.0028300156
 C   -1.4726484943   -0.5367372761    0.0135398679
 O   -1.4118872261   -1.9707894382    0.0074099981
 C   -2.5878964450   -2.6114322868    0.0148215138
 C   -2.7767835505   -3.9783370953    0.0104581431
 N   -4.1295585290   -4.0928430843    0.0219271644
 N   -4.7392218647   -2.9038549129    0.0322379544
 N   -3.7959250816   -1.9928785107    0.0280774618
 H    1.0410379885    1.8693870321    0.0006475802
 H   -0.4963440956    1.9330243289   -0.8691353540
 H   -0.4804768704    1.9259300956    0.8983772210
 H    0.4679285134   -0.4111901226   -0.8822737099
 H    0.4836547553   -0.4182302967    0.8754373007
 H   -2.0181190691   -0.1977147093    0.9027330267
 H   -2.0338929518   -0.1908369961   -0.8630958599
 H   -2.1039501134   -4.8166710063    0.0009055948
 H   -4.6888147504   -4.9307124896    0.0232310411