23

 C    0.8611786203    1.0426468064    0.4145666372
 O    0.0514576130   -0.0152000887   -0.0581277275
 C    0.4868475140   -0.5997450561   -1.2618807328
 C    0.2514685737    0.2444451155   -2.5010270189
 C   -1.2286869456    0.5290498165   -2.7727916803
 C   -1.4261938496    1.6341387661   -3.8114665276
 O   -1.8023415686   -0.6991099881   -3.2237026533
 C    1.6891926023   -1.5118458569   -1.1802924466
 C    0.2906832673   -2.0815804239   -1.3161787583
 H    1.9107821426    0.7346425245    0.5219170871
 H    0.8265840852    1.9260237649   -0.2392133404
 H    0.4713957676    1.3251146707    1.3958089566
 H    0.7865477410    1.1971945203   -2.4085547682
 H    0.6694733481   -0.2663672970   -3.3757004380
 H   -1.6955938548    0.8334432108   -1.8238115205
 H   -2.4920586561    1.7914279436   -4.0129384764
 H   -1.0105929911    2.5856544126   -3.4629348190
 H   -0.9399618657    1.3648937633   -4.7548884180
 H   -2.7553105178   -0.5793553762   -3.2779526347
 H    2.3636027189   -1.5652790244   -2.0285689363
 H    2.1697706485   -1.6111983304   -0.2133300671
 H   -0.1412649454   -2.5404186289   -0.4344920755
 H   -0.0163754979   -2.5156885946   -2.2590018814