19

 O    0.0017208007   -0.0046025514    0.0360809737
 C   -0.0103470977    1.1876178095   -0.0264108458
 C   -1.0752013713    2.3034426697    0.0423888208
 C   -0.0159216830    3.0094251440    0.9562777882
 C    1.0309237876    2.3282918333    0.0093363680
 C    0.7166882269    3.0161080273   -1.3204417414
 C    1.5319688355    4.1590023915   -1.8533878138
 C    1.5413659204    2.8176563691   -2.5576074485
 C   -0.8358806154    3.0077843864   -1.3152702397
 H   -2.0997889671    2.1168861790    0.3570999264
 H   -0.0246301317    4.1016137037    0.9510536541
 H    0.0031220667    2.6216363028    1.9761786045
 H    2.0734170541    2.1725311207    0.2794841512
 H    1.0053724343    4.9807892748   -2.3292599369
 H    2.4235898185    4.4571436665   -1.3108166119
 H    2.4387852511    2.2112594551   -2.4876253177
 H    1.0252363864    2.7365629896   -3.5089483659
 H   -1.2594560150    2.4473400279   -2.1539615362
 H   -1.2609338209    4.0165045904   -1.3266824290