22

 C   -0.3010704366    1.5596895144    0.3959381243
 C    0.1381494033    0.1579021228   -0.0446937221
 C    0.8792041200   -0.5817319788    1.0520497989
 C    0.1441298357   -1.3778180532    2.1082395672
 C    1.0228505235   -2.0892811653    1.1048141304
 C    0.3891509549   -2.9792223606    0.0525791776
 C    2.3706732778   -2.6047079237    1.6134526542
 C    2.2683306457   -3.9028738197    2.2855569668
 N    2.1703581200   -4.9274992791    2.8111239866
 H    0.5609366315    2.1728952519    0.6808467395
 H   -0.8282336197    2.0799926458   -0.4094831730
 H   -0.9703282370    1.5082307077    1.2609217056
 H   -0.7423886013   -0.4142371893   -0.3560115003
 H    0.7800835761    0.2384060155   -0.9317946538
 H    1.7484137515   -0.0345117371    1.4150720165
 H    0.4710794936   -1.3155903431    3.1410572008
 H   -0.9294094802   -1.4919987717    1.9932276999
 H   -0.5939503697   -2.6135194147   -0.2502388644
 H    1.0146700076   -3.0419358205   -0.8460729823
 H    0.2579638974   -3.9957926853    0.4384796929
 H    3.0794222786   -2.7051931507    0.7814724788
 H    2.8112538370   -1.8910799654    2.3180447661