18

 C    0.5054764377    1.4723251773    0.0901863549
 N    0.4456953007    0.0173016657    0.1239417522
 C    0.4640979902   -0.6203022881   -0.9496054171
 C    0.4260206805   -2.0835082420   -1.3180801895
 C    0.4816463850   -1.5572813926   -2.7849379763
 C   -0.7724300364   -1.7633319239   -3.6234386699
 O    0.5277164945   -0.1727928723   -2.2632941985
 C    1.6979198018   -1.8777684407   -3.5156744212
 C    2.6929140968   -2.1634437579   -4.1255415438
 H    1.3740253905    1.8068659728    0.6678769212
 H    0.5698522252    1.8959466816   -0.9187354478
 H   -0.3828993308    1.8782417968    0.5865576185
 H    1.2923436339   -2.6618795538   -0.9969383416
 H   -0.4925204382   -2.6096187183   -1.0523029398
 H   -1.6588764216   -1.4987135658   -3.0406583898
 H   -0.7366065292   -1.1355268405   -4.5171675580
 H   -0.8493750133   -2.8084960547   -3.9366562995
 H    3.5768614626   -2.4077897834   -4.6617644341