16

 C    0.2322069101    1.4155456225   -0.0724287530
 C    0.0017981305   -0.0463616093    0.0309619901
 C   -1.0795802577   -0.8369078999    0.2340835789
 N   -0.6913903174   -2.1723062008    0.2407918905
 C    0.5890795104   -2.1397968115    0.0488985844
 C    1.5470762076   -3.2796879100   -0.0964219829
 N    2.0664145566   -3.4944104256   -1.4543865640
 O    1.0882935289   -0.8779394299   -0.0900167649
 H    0.9234971974    1.7697697332    0.7005016341
 H    0.6578622309    1.6894537056   -1.0443982729
 H   -0.7148715036    1.9465113770    0.0471545484
 H   -2.1074778654   -0.5425161040    0.3771655987
 H    2.4020975685   -3.1273000523    0.5715577672
 H    1.0275771818   -4.1827720144    0.2325492475
 H    1.2867212152   -3.6381961665   -2.0907780678
 H    2.5355618562   -2.6506551239   -1.7720711842