12

 O    0.0642267293    1.4061726981    0.2721959865
 C   -0.0255888618    0.0308719354    0.1112088300
 C   -0.4657529273   -0.8109805489    1.2769984294
 O   -1.1631031927   -0.1235186927    2.3002352910
 C   -2.2696366985    0.3854615344    1.7074803001
 N   -2.5010730356    0.1056526146    0.4866753257
 C   -1.3697350064   -0.6746694701    0.0433757315
 H   -0.5605916289    1.8210985458   -0.3333374345
 H    0.7541449511   -0.4202717757   -0.5016877320
 H    0.0713241220   -1.6797254022    1.6337938611
 H   -2.8907605649    0.9945044120    2.3519991617
 H   -1.5570435363   -1.4385740406   -0.7016034607