16

 O    0.1404264771    1.3583227320   -0.1051390511
 C    0.0978412288   -0.0289133766   -0.0394862622
 C    0.1951995566   -0.6348449010    1.4121900389
 N   -1.2753057199   -0.3770016913    1.4994047551
 C   -1.3548548645   -0.6302045077    0.0275693362
 C   -1.3058829542   -2.1204845417   -0.3123921157
 O   -2.0052392982   -2.6378545003   -1.1573783477
 C   -0.2677493558   -2.8412018943    0.4696583591
 C    0.4969180965   -2.1069278417    1.2942272164
 H   -0.4937587760    1.6877362731    0.5458543752
 H    0.7839475881   -0.4227250938   -0.7892712346
 H    0.8089851599   -0.1113169001    2.1484505554
 H   -1.7811823608   -1.0502883335    2.0725906088
 H   -2.1542317011   -0.1205458710   -0.5145410717
 H   -0.1512324893   -3.9080390298    0.3148012307
 H    1.3289493126   -2.5322328724    1.8476323271