16

 O    0.0754296906   -0.0877253165   -0.3570903704
 C    0.0279509231    1.0455474007    0.0624369330
 C    1.2176030637    1.9379656287    0.0872287755
 C    1.1581882239    3.4428780687   -0.1733182290
 C   -0.1819037586    4.1444969877   -0.0350859503
 O   -0.7251930660    3.7090405993    1.2086056900
 C    0.3470343311    3.3803022011    2.0882641815
 C    1.4997782680    2.9493865404    1.1979104125
 H   -0.9134899976    1.4777837033    0.4525357328
 H    2.1001603944    1.4458893048   -0.3097077458
 H    1.9001186113    3.8645133946   -0.8407137975
 H   -0.0230350585    5.2346863214   -0.0401524556
 H   -0.9115002635    3.9010592955   -0.8136700614
 H    0.6555193613    4.2543227380    2.6838335226
 H   -0.0176584199    2.6096723886    2.7744831907
 H    2.5069285167    2.9878500639    1.5951764813