23

 C    0.0243023616    1.5353294646    0.1030010952
 C   -0.0022762214    0.0207910499   -0.0230879861
 O    0.3923291953   -0.5293349372    1.2231090361
 C    0.6532261492   -1.9156532578    1.2398447789
 C   -0.5801928553   -2.7577211024    0.9320599284
 C    1.9560498459   -2.3643559742    0.5248266090
 O    2.5202354100   -2.8368178557    1.7612587731
 C    1.4055503802   -2.3290445998    2.5384464058
 C    1.8185619990   -1.2389285587    3.5065829722
 H    1.0327634602    1.8842492192    0.3421144730
 H   -0.2944024767    2.0020230811   -0.8339124802
 H   -0.6486385234    1.8631680975    0.9004614541
 H   -1.0117548599   -0.3189228140   -0.2984821053
 H    0.6812707961   -0.3093459654   -0.8215281503
 H   -0.9245279769   -2.6159355429   -0.0970405859
 H   -0.3522247678   -3.8196689830    1.0611048268
 H   -1.3983373950   -2.4929721783    1.6098616249
 H    1.8587733568   -3.1656557339   -0.2179467915
 H    2.5371402676   -1.5384297826    0.0943136991
 H    0.9144669909   -3.1505046278    3.0779705085
 H    2.2622961544   -0.3927699452    2.9791040968
 H    0.9523234852   -0.8769708087    4.0695725612
 H    2.5491168339   -1.6411119850    4.2153835562