15

 O    0.2368354755    1.4169924519   -0.2871335244
 C    0.0549867653    0.0968382398    0.0155060349
 C   -1.3570004472   -0.6881692494   -0.1893898460
 C   -2.0991873700   -0.7285627995   -1.5440870826
 C   -1.0450052705   -0.9986554055   -2.6786839514
 N    0.2331075392   -0.4739801449   -2.2796720392
 C    0.3569829967   -0.9157761401   -1.0761194378
 N   -0.6023154101   -1.9441223486   -0.6130992870
 C   -1.5081137875   -2.1037935323   -1.7878031350
 H    0.2183088918    1.4649054670   -1.2578715544
 H    0.3976606627   -0.1040918323    1.0321248333
 H   -1.9715765129   -0.7885437270    0.7062513367
 H   -3.0736911904   -0.3249772828   -1.7775911471
 H   -1.3759381822   -0.9063766049   -3.7048904744
 H   -1.9234063204   -3.0630659916   -2.0629040455