19

 O    0.0486305744    1.4142095482   -0.0660209062
 C    0.0562497842    0.0049963574    0.0162436763
 C    0.2075935053   -0.5443171628    1.4855034524
 C   -1.3028124197   -0.6167535310    1.5140532241
 C   -2.3006677686   -0.3430694970    2.3394526498
 C   -3.6729798700   -0.0983064450    1.7577722839
 O   -3.7443888645   -0.2344573804    0.3476700424
 C   -2.6275766787    0.2946032002   -0.3687723896
 C   -1.4090867252   -0.5394496521    0.0076747465
 H    0.9314916770    1.7318076390    0.1478119476
 H    0.7344496699   -0.4331958784   -0.7278220829
 H    0.6946751690   -1.5260369396    1.4985858385
 H    0.7057477972    0.1123257114    2.2054295870
 H   -2.1699151678   -0.1856812123    3.4069603328
 H   -4.4127170049   -0.8032079593    2.1576705520
 H   -4.0030988631    0.9123079353    2.0622155274
 H   -2.8975938496    0.2247723860   -1.4258508507
 H   -2.4523769869    1.3489167162   -0.1183149688
 H   -1.4452556378   -1.5219250658   -0.4756263426