19

 C   -0.4422052437    1.5667960881   -0.4136746303
 O   -0.4540138722    0.1359732177   -0.4987505619
 C    0.7531227612   -0.4393520552   -0.6766554566
 O    1.7848667864    0.1739536834   -0.7761151624
 C    0.5895819588   -1.9308334606   -0.7151624495
 O    1.6173653881   -2.6741245845   -1.3595488939
 C    1.4707531005   -2.8550533085    0.0513201279
 C    2.6146983882   -2.3436931678    0.8972231396
 C    0.8968934517   -4.1954590542    0.4612820742
 H    0.1753221808    1.8978752002    0.4251351013
 H   -0.0458045779    2.0025449053   -1.3341134215
 H   -1.4802528884    1.8639667124   -0.2655942888
 H   -0.4283844724   -2.2540594991   -0.9260057817
 H    2.9802068518   -1.3876558484    0.5241390704
 H    2.2995102743   -2.2298873937    1.9399981381
 H    3.4355686591   -3.0686821854    0.8757994421
 H    1.6821564040   -4.9589718100    0.4472095243
 H    0.4923496162   -4.1500261881    1.4776508987
 H    0.1024739835   -4.5081687217   -0.2203227201