19

 C    0.0048758737    1.5767262594    0.0125431669
 C    0.0837593724    0.0519261994   -0.0262717056
 C    0.9020597709   -0.5726841414   -1.1493300488
 C    2.3874297768   -0.7148880677   -0.8355990651
 C    2.9560227648   -0.0018547698    0.3790609999
 O    2.0175052708    0.0661868424    1.4593190257
 C    0.8013168035   -0.5908963459    1.1837001267
 O    1.0341228346   -1.9370709512    0.7962663500
 C    1.4406668187   -1.8484039176   -0.5576302200
 H    0.9959773202    2.0313581075    0.0763466858
 H   -0.4885083499    1.9599595021   -0.8862634201
 H   -0.5736032860    1.9167174370    0.8782309701
 H   -0.9318416311   -0.3626316669   -0.0711213732
 H    0.5666832738   -0.5072457346   -2.1774017439
 H    3.0676107827   -0.8097017662   -1.6761025041
 H    3.8475051482   -0.5340329990    0.7377897136
 H    3.2635536739    1.0212300277    0.1232195406
 H    0.2371172414   -0.5928312591    2.1168360558
 H    1.4812699405   -2.8094017161   -1.0534573942