17

 C    0.3898732860    1.4336785921   -0.0364307657
 C   -0.0958253336    0.0018522845   -0.0394885938
 C   -1.5300373172   -0.2229413856    0.4152016156
 C   -1.7492251171    0.0831245102    1.9038890260
 N   -0.9588925881   -0.6522416357    2.7376697895
 O   -2.5770472115    0.8818125481    2.2954818583
 C    0.5476076073   -0.9933030242   -0.9110078499
 O    0.8461503912   -0.9582284017    0.4896867796
 H    0.2582141809    1.8852239023    0.9519771419
 H    1.4490584179    1.4805368708   -0.2998444784
 H   -0.1791721050    2.0330920972   -0.7544360462
 H   -2.2119563892    0.4204792807   -0.1447771004
 H   -1.8103426859   -1.2652152015    0.2298031332
 H   -0.1800033099   -1.1749792084    2.3671311896
 H   -0.9886908129   -0.4383000036    3.7213143590
 H   -0.0146463136   -1.8626115213   -1.2487781908
 H    1.3674409507   -0.6918980040   -1.5613587074