17

 N   -0.2325222407    1.2740212081    0.0848969222
 C    0.0339701223   -0.0447095984   -0.0485426156
 O    1.1031728316   -0.5417350869   -0.2942909033
 O   -1.1430666362   -0.7497647832    0.1357289013
 C   -1.0730010552   -2.1102871680    0.0161100853
 N   -2.1175053632   -2.7838550252    0.1871706472
 C   -2.0236056720   -4.2317543061    0.0756559014
 C   -2.6896256489   -4.8541426211    1.3069185535
 O   -4.0272829060   -4.4251519481    1.4376746217
 H    0.5336260976    1.9211312269    0.0382095961
 H   -1.1482572076    1.5898308524    0.3503901830
 H   -0.0742138372   -2.4767471522   -0.2289522225
 H   -2.5874840476   -4.5402050126   -0.8132688920
 H   -0.9881554852   -4.5932820214   -0.0285232335
 H   -2.7041416027   -5.9450727824    1.2104664959
 H   -2.0938623448   -4.6048929226    2.2011211721
 H   -4.0069816042   -3.4695434590    1.2976941170