13

 C    0.0576285053   -1.1842354530    0.0542039769
 C    0.0372715863    0.0156700920    0.0146547448
 C   -0.0204938627    1.4715340943   -0.0039667007
 C   -0.6074589493    2.0875971043    1.3090428428
 O    0.4202863931    3.0036783698    1.7573908693
 C    1.4320869128    2.8680237648    0.8707976748
 N    1.3299379966    2.0802962081   -0.1196442140
 C    2.5912327273    3.6748330380    1.1376181721
 N    3.5196387268    4.3264966974    1.3536992251
 H    0.0858223155   -2.2460507721    0.0776735796
 H   -0.6000415470    1.7928826523   -0.8776245503
 H   -1.5225778069    2.6586773009    1.1441935614
 H   -0.7670978477    1.3417104333    2.0892513682