20

 C   -0.0098630525    1.5258672519    0.3301087057
 C   -0.0090183800    0.0316534009    0.0614456196
 C    1.2652173933   -0.6042494235   -0.4464502120
 C    0.8118709519   -0.8459793928    0.9727241572
 C   -1.3177329872   -0.5691476710   -0.4404095467
 O   -2.3724088550   -0.4653498577    0.4985292982
 C   -1.7321511549    0.0194913570   -1.8132371929
 C   -2.9119670532   -0.6346244382   -2.3717736399
 N   -3.8377750745   -1.1576456788   -2.8235033523
 H    0.9535621223    1.8425553385    0.7394132808
 H   -0.1842073961    2.1146845003   -0.5775785235
 H   -0.7735777503    1.8033462966    1.0670314931
 H    1.1881831765   -1.4260789708   -1.1514175640
 H    2.1236502744    0.0380784303   -0.6114468373
 H    1.3632890982   -0.3675184374    1.7747955381
 H    0.4197599350   -1.8245412047    1.2273194159
 H   -1.1719982907   -1.6467057729   -0.5712315159
 H   -2.5586628903    0.4670111796    0.6533650049
 H   -1.9422427051    1.0908973005   -1.7137377848
 H   -0.9028445318   -0.0760955579   -2.5227052443