21

 C   -0.0755364895    1.5636846306    0.0824645015
 C   -0.0492108612    0.0375858003   -0.0385355040
 C    0.7273083416   -0.4987945370   -1.2593201424
 C    2.1989775400   -0.1176380030   -1.2442106848
 C    3.1205648768   -1.0809920379   -1.2211263772
 C    2.5981694091   -2.5026729413   -1.2271840251
 C    1.5783436738   -2.6551442025   -2.3824212367
 C    0.6402423863   -2.0373729909   -1.3234356074
 O    1.4904917662   -2.5927299271   -0.2755217959
 H    0.9248329624    1.9781874881    0.2406819650
 H   -0.4900004006    2.0284105446   -0.8197726205
 H   -0.6949479895    1.8755366100    0.9290544320
 H    0.3861205682   -0.4075373775    0.8627590546
 H   -1.0806537454   -0.3340731323   -0.1032671343
 H    0.2604225451   -0.0860996750   -2.1676539350
 H    2.4666940005    0.9344882079   -1.2451257162
 H    4.1873391783   -0.8833027966   -1.2222181297
 H    3.3549896937   -3.2704151735   -1.0560317296
 H    1.7655601975   -2.1150759348   -3.3121389999
 H    1.3245766950   -3.6988418896   -2.5764770623
 H   -0.3901311184   -2.3991551027   -1.2519459619