21

 C   -0.0211684838    1.5841637589    0.0321907734
 C    0.0125569100    0.0520170235   -0.0234899452
 C    0.7056007369   -0.4854723739   -1.2382999311
 C    0.6584123902   -0.0435108736   -2.6976654266
 C    0.9229046763   -1.5058650552   -3.1578633883
 C    2.2485031762   -1.5038042055   -2.4026219333
 C    1.9840598687   -0.0414579907   -1.9423677267
 C    0.9743568174   -1.9633445619   -1.7059546993
 C    0.6286426217   -3.2822285656   -1.0954072665
 H    0.9904437568    2.0028349228    0.0435516543
 H   -0.5472986433    2.0008415737   -0.8328776560
 H   -0.5354489424    1.9295717870    0.9337272849
 H    0.5092443800   -0.3324841805    0.8783439028
 H   -1.0157496968   -0.3344559705    0.0092209271
 H    0.1279490042    0.7821235374   -3.1543255586
 H    0.6332297570   -2.0608199994   -4.0411227455
 H    3.1573198704   -2.0568870285   -2.6030758917
 H    2.6454505406    0.7860149990   -1.7199882217
 H    1.0854648353   -3.4049525242   -0.1059720325
 H   -0.4549915650   -3.4060012453   -0.9807560113
 H    0.9881891496   -4.1022263275   -1.7276208982