23

 C    0.0556849791    1.6024794343    0.1655044354
 C   -0.0026337863    0.0869524618    0.0472686974
 C    1.0007454844   -0.6615286351   -0.9176438967
 C    1.1711313867   -1.7876376261    0.1698687741
 C    0.2862706809   -3.0061004045   -0.1107051763
 C    2.5270509362   -2.1564521907    0.8194937540
 C    2.3156845697   -1.8181344123    2.3318103730
 C    1.2628889073   -0.7111823449    2.2935295919
 C    0.6143934972   -0.7661812873    1.1347618200
 H    1.0730101306    1.9338861969    0.3982705768
 H   -0.2550958363    2.0829358338   -0.7686365475
 H   -0.6050394213    1.9635555659    0.9611149348
 H   -1.0257887893   -0.2313595274   -0.1871156902
 H    0.6087042509   -0.9662537859   -1.8926502974
 H    1.9170991533   -0.0806375524   -1.0569297625
 H    0.6987163941   -3.6002724952   -0.9346348389
 H    0.2163366868   -3.6552356384    0.7688690614
 H   -0.7318699021   -2.7144584881   -0.3896080902
 H    2.8235896961   -3.1974863469    0.6546365046
 H    3.3238961563   -1.5193596056    0.4198898292
 H    1.9796191301   -2.6962902940    2.9014551687
 H    3.2427020210   -1.4824438199    2.8094995536
 H    1.1620109743    0.0371845620    3.0715931148