23

 C    0.0066892789    1.4698510242   -0.0143634172
 C    0.0030873447   -0.0356075082   -0.0027223144
 C    0.6123534634   -0.9952472011   -1.0709744181
 C   -0.0011483175   -1.9320476240    0.0114295612
 C    0.0071486444   -3.4400771388    0.0021670998
 C   -0.6811381285   -4.0589975094    1.2134589515
 O   -0.6033430358   -5.4711933642    1.0814034381
 C    0.6280387251   -0.9745563271    1.0735121995
 C   -1.2385151256   -0.9783002461    0.0123094704
 H    1.0297892245    1.8619246202   -0.0241762516
 H   -0.5093918093    1.8588428003   -0.8991778109
 H   -0.4976042117    1.8723340958    0.8713067785
 H    0.1317271546   -1.0036508904   -2.0547194609
 H    1.7035350850   -1.0004775547   -1.1610898616
 H   -0.4880845239   -3.8086902809   -0.9048812840
 H    1.0410214956   -3.8056284663   -0.0344705534
 H   -0.1869863593   -3.7173879088    2.1371161322
 H   -1.7286023870   -3.7202819657    1.2596251118
 H   -1.0349599839   -5.8682075771    1.8433647563
 H    1.7204498918   -0.9765274925    1.1476539102
 H    0.1634256346   -0.9581122997    2.0647460160
 H   -1.8527161220   -0.9621663039    0.9184964499
 H   -1.8609277581   -0.9837076516   -0.8884877134