13

 C   -0.0104377026    1.4082295803   -0.0277641018
 O    0.0356704427   -0.0156813264    0.0195423430
 C    0.6266072933   -0.6100062326   -1.0383870952
 C    0.7639369999   -1.9653267939   -1.2331420875
 N    0.4344738877   -3.0359360695   -0.4455672006
 O    1.3908239895   -2.1546495282   -2.3828317383
 N    1.6563020518   -0.8247487811   -2.9339951103
 N    1.1890395154    0.0075514674   -2.1022682432
 H    0.9985041684    1.8332442642   -0.0598513704
 H   -0.5658385029    1.7556707104   -0.9058244087
 H   -0.5188851430    1.7216388535    0.8845992811
 H   -0.2764668931   -2.8335866533    0.2426182002
 H    0.2753444229   -3.8999384608   -0.9437759783