13

 N    0.1440799179    0.9089537944   -1.0859663520
 C   -0.0169239889    0.1890981626   -0.0498173137
 O    0.9158000029    0.1415347239    0.9576465008
 N    1.4680078579   -1.2614404410    1.2926713784
 N    0.7110259515   -1.9889830567    1.8741735438
 C   -0.6585072950   -1.6918974164    2.2642856862
 N   -1.0262958908   -1.9505969937    3.4489777044
 C   -1.5919979205   -1.2763055102    1.2148178835
 C   -1.2914477424   -0.5040689052    0.1638146491
 H    1.0736896775    1.3341676263   -1.0702949949
 H   -0.2500822684   -2.3153808561    4.0060708493
 H   -2.5999110934   -1.6545197209    1.3482696895
 H   -2.0428359382   -0.2889110370   -0.5872468845