15

 C    0.0869950814    1.4226720366   -0.0174519627
 C   -0.0450309189   -0.0556809743   -0.0115400103
 N   -1.1245457653   -0.7700151628   -0.1324171515
 C   -0.7046183188   -2.0872005778   -0.0613109112
 C   -1.6464522266   -3.2344049403   -0.1590367951
 C    0.6515975039   -2.0925577509    0.1042617721
 O    1.0835370086   -0.7853673906    0.1371042804
 C    1.5956710219   -3.1273627907    0.2348959425
 N    2.3464282405   -4.0043939853    0.3404297960
 H    0.7407093633    1.7514759372   -0.8314131758
 H   -0.8998719084    1.8666478199   -0.1454466008
 H    0.5247742045    1.7775892214    0.9208980703
 H   -2.1825015857   -3.2079898716   -1.1131808248
 H   -1.1174955867   -4.1863834503   -0.0791686782
 H   -2.3973091337   -3.1805129306    0.6357664191