21

 O   -0.0691765585    1.3555120901   -0.0217650738
 C    0.0212385590   -0.0520423519    0.0319907302
 C    0.3685557735   -0.7653676702   -1.3109790190
 C   -0.9974197415   -1.5188885620   -1.2576618010
 C   -1.3534544312   -0.7932170177    0.0728653410
 C   -1.1922553458   -1.5384264099    1.4127765711
 C    0.2633482003   -2.0891355112    1.3466357853
 C    0.6307032811   -0.5797390988    1.3479418303
 C   -0.5919921080   -0.4014788500    2.3033673448
 H    0.8264490506    1.7112377181   -0.0139413699
 H    0.4361806199   -0.0501867221   -2.1336570307
 H    1.2667640080   -1.3893608984   -1.3103774649
 H   -1.6668908373   -1.2754056641   -2.0851880431
 H   -0.9289833158   -2.6074148257   -1.1871492164
 H   -2.2386315087   -0.1556752419    0.0407185513
 H   -2.0207061557   -2.1621366894    1.7513091706
 H    0.5568411278   -2.5769893876    2.2790026264
 H    0.5642158614   -2.7133702332    0.5023791214
 H    1.6342638406   -0.2326886971    1.6062556791
 H   -1.0888052755    0.5711943694    2.3044294703
 H   -0.3826584642   -0.7319909563    3.3232706070