14

 C   -0.1309999896    1.5469896553    0.0232777348
 C    0.1307349652    0.0539081676    0.0066189764
 C    0.8986203793   -0.4698363300   -1.2258146421
 N    1.6846568459   -1.5186638959   -0.6067020062
 C    1.8606200340   -1.2756369855    0.7417355284
 O    2.6336724589   -1.8011546059    1.4921611017
 O    0.9703142480   -0.3089160520    1.1200941216
 H    0.8079090773    2.1032686021   -0.0521458727
 H   -0.7727448674    1.8267273160   -0.8186153670
 H   -0.6329436964    1.8384355303    0.9491927509
 H   -0.8109840638   -0.4996300302    0.1146859535
 H    0.2228417827   -0.8542816225   -1.9948806954
 H    1.5216067091    0.3197325360   -1.6717268110
 H    2.4415905467   -1.9764028753   -1.0880362727