18

 C    1.4969563271    0.5454368731   -0.8514368556
 N    0.2218187440    0.4037124886   -0.1546684055
 C   -0.7112764583   -0.5202448973   -0.7969723814
 C   -0.2465543626   -1.9439414799   -0.8986981532
 N    0.0436589184   -2.6276871103   -1.9651415665
 C    0.4506487808   -3.8686620540   -1.4945911227
 N    0.7714269398   -4.8779862789   -2.3944396764
 C    0.3921349228   -3.8668496612   -0.1361920208
 O   -0.0616067461   -2.6219488715    0.2532797595
 H    2.0504882231   -0.3962151669   -0.9999615834
 H    1.3199915703    0.9828197152   -1.8403745454
 H    2.1351304827    1.2344429358   -0.2908150978
 H    0.3849548268    0.0975024251    0.7989410621
 H   -1.6544248318   -0.4902202203   -0.2393581799
 H   -0.9148230231   -0.1744483277   -1.8145870453
 H    1.0556129981   -4.5002875534   -3.2882781466
 H    1.4473300029   -5.5443473895   -2.0487380157
 H    0.5979437452   -4.5761720070    0.6446505047