17

 C   -0.0329236504    1.5768726981    0.4684734692
 C   -0.0741081817    0.1213389139    0.0055220647
 C    0.8488579956   -0.7836661036    0.8286883033
 N   -1.4446011934   -0.4011895436    0.0285677042
 C   -2.5526416674    0.0328233346    0.6652890943
 N   -3.5711121678   -0.7799459220    0.4391058597
 C   -3.0140484349   -1.7253486948   -0.3626886817
 N   -1.7326606015   -1.5451871117   -0.6406981545
 H    0.9827324412    1.9620066520    0.3477828887
 H   -0.7078615421    2.2062380284   -0.1181546859
 H   -0.2962810794    1.6711232656    1.5270089156
 H    0.2325203803    0.0721384231   -1.0443340046
 H    0.5777862031   -0.7514979651    1.8891024505
 H    0.7733690844   -1.8159872578    0.4812268859
 H    1.8869700570   -0.4535145723    0.7274327713
 H   -2.5797790593    0.9280350810    1.2654059248
 H   -3.5655231138   -2.5657102658   -0.7576102856