21

 C   -0.0074559865    1.5536019697    0.1522168759
 C   -0.0295036633    0.0571938691   -0.0294185111
 C   -0.0854454513   -0.5954777335   -1.2130602995
 C   -0.0635625060   -2.1076179058   -1.3218067988
 C    0.4022839978   -2.7987020505   -0.0387154858
 C   -0.3019432523   -2.1874015288    1.1740035268
 C    0.0328545543   -0.6968806385    1.2820443945
 C   -0.1922160919    0.1084506883   -2.5039813632
 O   -0.2426005929   -0.4623972974   -3.5746093502
 H    0.8327522784    1.8323871550    0.8005931508
 H    0.0807793237    2.1254126347   -0.7698549307
 H   -0.9161239798    1.8838169966    0.6715511573
 H   -1.0698946616   -2.4563530887   -1.5932408715
 H    0.5665809633   -2.3827288492   -2.1731238832
 H    0.2112068153   -3.8749545366   -0.1008718438
 H    1.4878276119   -2.6768643462    0.0736890210
 H   -1.3869170401   -2.3113378741    1.0632321180
 H   -0.0190149313   -2.7001316181    2.0992568323
 H    1.0456585335   -0.5675742756    1.6951293535
 H   -0.6309487365   -0.2023207898    2.0037571361
 H   -0.2384806747    1.2143828094   -2.4682137185