18

 N   -0.2075370925   -1.1206890295    0.2479225477
 C   -0.1086521879    0.0295702550    0.1875799841
 C    0.0126176520    1.4671052104    0.0740442849
 O    0.7144194300    2.1398170777    1.1207254923
 C    1.3278793085    2.1017013651   -0.1725057293
 C    2.6441269088    1.3306050834   -0.2998391754
 C    3.4673110910    2.1369357922   -1.3246370408
 C    2.9694045541    3.5839367681   -1.1444094525
 C    1.4517982041    3.4133415768   -0.9491313793
 H   -0.8923350304    1.9641394501   -0.2732338743
 H    3.1284019774    1.3366165097    0.6824556929
 H    2.4960249305    0.2852722387   -0.5811038445
 H    4.5442489495    2.0303275507   -1.1744813577
 H    3.2444339800    1.7929161795   -2.3415256499
 H    3.4149926358    4.0224069576   -0.2438088382
 H    3.2197852898    4.2345815328   -1.9858090454
 H    0.9583923059    3.3109172812   -1.9230626456
 H    0.9682956633    4.2334854804   -0.4132482193