15

 C   -0.1718937197    1.4979961469   -0.0551732411
 C    1.3873161584    1.7516843443    0.0864695704
 C    2.2074313635    1.7188405709    1.4260525715
 O    2.9567334912    0.4378156280    1.3980013751
 C    2.1329702177   -0.3615747522    0.6720024264
 N    1.4226093758   -1.4049073871    1.0290144387
 C    0.1728664408   -1.1641212981    0.4283191141
 C    0.1918674470   -0.0001534580   -0.3192203531
 N    1.5636680931    0.3552893532   -0.3244870488
 H   -0.7621642985    1.6387226588    0.8522849369
 H   -0.6212470012    2.0625998357   -0.8742872273
 H    1.7882310319    2.4893772406   -0.6121208744
 H    2.9470276118    2.5165233802    1.4966419068
 H    1.5722129763    1.7220252540    2.3183647823
 H   -0.6518913480   -1.8236001271    0.6568853124