19

 C   -0.0991354480    0.7497983795   -2.1638871842
 C   -0.0026646368   -0.3411785781   -1.1175341069
 C    1.3038520315   -0.6623385244   -0.3598842751
 C    2.5321171189    0.1337068591   -0.5644354043
 O    3.6428326788   -0.3457608691   -0.5803848897
 C    0.0804639705   -0.0284420570    0.3299998111
 O    0.1440575341    1.3237867235    0.6668615442
 C   -0.6670491710   -0.8436457673    1.3551422380
 O   -0.0194283515   -0.6067735364    2.6023421533
 H    0.3415116688    1.6853377399   -1.8174559039
 H    0.3990145182    0.4491195467   -3.0906708926
 H   -1.1501097953    0.9491915435   -2.3972516020
 H   -0.5645082672   -1.2394076939   -1.3631094851
 H    1.5018727044   -1.7106744957   -0.1614761579
 H    2.3800789363    1.2247074152   -0.6907297992
 H    0.4001869674    1.3445279706    1.5988504390
 H   -1.7137592040   -0.5068028467    1.3865021950
 H   -0.6522243080   -1.9093470371    1.0861311361
 H   -0.6144550072   -0.8599549322    3.3134276044