20

 C    0.4468515608    1.5593341567    0.0556183857
 C    0.1376155440    0.0697760525    0.0482496135
 C    0.9428721526   -0.8618828931   -0.9152098817
 C    1.3526540916   -1.7678259554    0.2898376211
 C    2.5946719000   -1.2643203075    0.9756824097
 N    3.8180533368   -1.5343264136    0.9093536031
 O    1.9252954275   -0.3351663880    1.7547475295
 C    0.6140033327   -0.7891584938    1.2532346615
 C   -0.3169034752   -1.1453763702    2.3781075435
 H    1.5088662477    1.7380582229    0.2436805468
 H    0.1884994023    2.0110132487   -0.9079366962
 H   -0.1235966160    2.0812296414    0.8316671739
 H   -0.9378752711   -0.0868147136   -0.0911570418
 H    0.3249611790   -1.3753883932   -1.6537715255
 H    1.7855214254   -0.3956946953   -1.4307866024
 H    1.1893060627   -2.8414791338    0.2272076585
 H    4.3605852235   -0.9454447713    1.5441704321
 H   -0.5774237653   -0.2525093001    2.9573226967
 H   -1.2425652938   -1.5778393242    1.9860531900
 H    0.1466938647   -1.8677955489    3.0562083621