19

 O    0.0182674456    1.3961367008    0.0254036025
 C   -0.0067448124    0.0050023647    0.0333039558
 C   -1.3394076249   -0.7292962392    0.0733959218
 C   -2.6391961051    0.0703076704    0.0177675971
 C   -3.2871481459   -0.0089300340   -1.3671955796
 C   -3.2386324909    1.1707038996   -2.3169878773
 C   -2.3253487990    0.0012836707   -2.5230556295
 O   -0.9690701694    0.1853472276   -2.1862860408
 C   -0.5093620663   -0.6997662912   -1.1944873354
 H   -0.1856245901    1.6599515302   -0.8827563805
 H    0.8295793949   -0.4267397346    0.5757643857
 H   -1.3617568091   -1.6671842653    0.6187683545
 H   -3.3341752107   -0.3072646378    0.7710776019
 H   -2.4257147270    1.1109601904    0.2819308047
 H   -4.1424082898   -0.6712090715   -1.4525801122
 H   -4.0535292896    1.3139763058   -3.0181096120
 H   -2.7870105289    2.0877418944   -1.9521907396
 H   -2.4751796028   -0.6597723154   -3.3736540624
 H   -0.0229682085   -1.5941536055   -1.5774697345