18

 N   -0.0533971061    1.2880591414   -0.3044679818
 C   -0.0029434336    0.0691977601    0.0415153407
 O    1.1615373885   -0.5177782802    0.4334394852
 C    1.1482026530   -1.9010204914    0.8115621431
 C   -0.2150049043   -2.5478033423    0.7207422841
 C   -1.0910030735   -2.2411287413   -0.5312129804
 C   -2.3313767612   -2.6164173048    0.3219268168
 C   -1.4431478896   -1.7495031367    1.2529110127
 C   -1.2242622697   -0.7882873539    0.0366960855
 H    0.8762350945    1.7090717297   -0.2369173014
 H    1.8630842483   -2.4211425258    0.1612615315
 H    1.5324053829   -1.9595473633    1.8379249457
 H   -0.1613324400   -3.5993485867    1.0210860876
 H   -0.8817283356   -2.5142432558   -1.5662831731
 H   -3.2840952565   -2.1789445762    0.0133347663
 H   -2.4386097736   -3.6708755486    0.5913219900
 H   -1.6416396164   -1.4533438175    2.2837589618
 H   -2.0857115072   -0.2082900464   -0.2931731244