18

 C    0.0615920043    1.4678535352   -0.0790159700
 C   -0.0165883023   -0.0268856042   -0.0474764472
 O    0.5743922587   -0.7112714242   -1.1844333245
 C   -0.2157784613   -1.8508395473   -0.7876380567
 C    0.1918365726   -2.2269731916    0.6574525827
 C    0.3453635906   -0.8590400763    1.2134184698
 N   -0.9820267986   -1.5547320835    1.3112555028
 C   -1.2757759263   -0.9587923841   -0.0804061444
 C   -2.6670477057   -0.6347743495   -0.5120040185
 H    1.1060509883    1.7950453573   -0.0340289739
 H   -0.3807026310    1.8625067092   -0.9977614985
 H   -0.4665133629    1.8956540376    0.7786254994
 H   -0.3650122124   -2.5986561935   -1.5639431106
 H    0.6428722899   -3.1251346978    1.0591567615
 H    0.9267018488   -0.5945920603    2.0880837830
 H   -3.1198972660    0.1058329564    0.1557317182
 H   -2.6677475354   -0.2314745315   -1.5301454476
 H   -3.2964036614   -1.5307898818   -0.4947277655