19

 C    0.0034530391    1.4657281986   -0.2638760897
 C    0.0719133292   -0.0195177679   -0.0193827653
 O    1.3779747151   -0.6065020822    0.0673473629
 C    0.5503937378   -0.6188410007    1.2365470074
 C    1.0222623279    0.1717075015    2.4614470680
 C    0.7316284664   -0.7678639028    3.6046073963
 C    0.2247128546   -1.9333033855    3.2022709009
 C    0.0420317055   -1.9996254384    1.7078722475
 O   -1.2913439475   -2.3131743466    1.3108802857
 H    0.7319357486    2.0059366655    0.3455094042
 H    0.2112143098    1.6864033982   -1.3160600440
 H   -0.9979658502    1.8475163545   -0.0354778177
 H   -0.6355405576   -0.6181426589   -0.5942591735
 H    2.0920931436    0.3958513089    2.3721649351
 H    0.5115793101    1.1361551405    2.5784227677
 H    0.9377853813   -0.5001313168    4.6355265493
 H   -0.0516131050   -2.7624256093    3.8436667927
 H    0.6528066417   -2.7812468874    1.2420558477
 H   -1.8794437506   -1.7133015212    1.7838435348