17

 C   -0.1223365619    1.5183610772    0.2083143910
 C   -0.0430116709    0.0186260674   -0.0651433282
 C    0.7810062052   -0.3289763000   -1.2956212006
 O    1.2305522158    0.5004734715   -2.0432525618
 C    1.0082660033   -1.8412564808   -1.5155437980
 C    1.6473851490   -2.1790265675   -2.7718641229
 C    2.1756323663   -2.4696064920   -3.8170739611
 C    2.8125806320   -2.7678089110   -5.0741332893
 O    2.9930200364   -3.8842575715   -5.5037256128
 H    0.8717630650    1.9361836631    0.3870425924
 H   -0.5485270137    2.0469289267   -0.6475003555
 H   -0.7436299250    1.7166718708    1.0856666960
 H    0.3731298278   -0.5256988002    0.7936992491
 H   -1.0453395159   -0.4089421352   -0.2122050379
 H    1.6154787445   -2.2097597691   -0.6760583517
 H    0.0474403305   -2.3648856651   -1.4209480685
 H    3.1363824914   -1.8702161142   -5.6386159801