20

 C    0.0248173623    1.2056727529   -0.3802797541
 O   -0.0974963782    0.0733532729    0.4596858345
 C   -1.3105187540   -0.5927809191    0.2990011524
 C   -1.4388028956   -1.7090938153   -0.7366290180
 C   -0.3098223808   -2.0493302945   -1.6845519091
 C   -1.3813885132   -2.0306544685    0.7390602848
 C   -0.1855450716   -2.7033008808    1.3711864889
 O   -2.6231995978   -2.4603640008    1.2457063671
 H    0.9995277991    1.6550841908   -0.1755393955
 H   -0.0321071033    0.9344688421   -1.4433299245
 H   -0.7604203538    1.9472167365   -0.1694309686
 H   -2.1942592191    0.0212552282    0.4812511067
 H   -2.4380004118   -1.8153900519   -1.1501469447
 H    0.6567945996   -1.7295606157   -1.2879720390
 H   -0.2585208950   -3.1271162228   -1.8734816536
 H   -0.4523439469   -1.5524124938   -2.6501181770
 H    0.7535488285   -2.2990543908    0.9913136446
 H   -0.1935256336   -2.5418741771    2.4563364473
 H   -0.2131299387   -3.7826323536    1.1910546564
 H   -2.6609528162   -2.2114434487    2.1766725514