19

 C    1.1062541383    0.9127329682    0.0069255618
 O    0.8199253409   -0.4288180270   -0.3157044472
 C   -0.1251923034   -0.5601819979   -1.3534229029
 C   -0.2575687654   -2.0387158118   -1.6968789458
 N    0.9211269500   -2.5811236420   -2.3440597279
 C    2.1278123257   -2.8582811903   -1.7890973656
 C    2.9427293236   -3.3048092356   -2.8085431648
 C    2.1258009698   -3.2559234732   -3.9561820899
 N    0.9020435393   -2.8153547511   -3.6748547575
 H    1.5214020540    1.4582083683   -0.8543086966
 H    0.2086655765    1.4481430722    0.3539807138
 H    1.8453354108    0.9044394854    0.8113054685
 H   -1.1083217728   -0.1714902468   -1.0375419146
 H    0.1882639058    0.0036850434   -2.2463020231
 H   -0.4592522215   -2.6018339605   -0.7798640445
 H   -1.0862189459   -2.1872783264   -2.3909749010
 H    2.3024021727   -2.7001597434   -0.7377979236
 H    3.9699414223   -3.6220048529   -2.7307193863
 H    2.3734441795   -3.5284593686   -4.9718057228