19

 C    0.0255240572    1.5708527355   -0.0412968004
 C    0.0825529797    0.0615265912   -0.0628877196
 O    0.8494551216   -0.3968166312   -1.1501357410
 C    1.2269203646   -1.7205005889   -0.8041929795
 C    2.4445682282   -2.1488761249   -1.5972715157
 C    1.4471066108   -1.6096603372    0.7385955977
 O    0.7355808524   -0.4260498437    1.1053774247
 C    0.9887372762   -2.7863306926    1.4696619045
 C    0.6235295683   -3.7718480672    2.0524692995
 H    1.0390473455    1.9770851920   -0.0056051721
 H   -0.4803963905    1.9384908717   -0.9377350337
 H   -0.5275425058    1.9075602114    0.8387950333
 H   -0.9311201684   -0.3777205503   -0.1144814445
 H    0.3865459137   -2.4074212716   -0.9871302422
 H    3.2767363558   -1.4602046613   -1.4234973327
 H    2.7513627064   -3.1564254473   -1.3008652350
 H    2.2199198260   -2.1586395391   -2.6669463921
 H    2.5110442644   -1.4408142364    0.9529094125
 H    0.3005867341   -4.6367354703    2.5776476462