19

 C   -0.0147626674    1.4320015784   -0.0338034115
 C   -0.0514416255   -0.1015634948    0.0104356609
 C   -1.5056734479   -0.6290533595   -0.1089182159
 C   -2.1630086013   -0.2532871669   -1.4203825281
 O   -3.2351823799    0.2898372729   -1.5139918491
 O    0.7149899908   -0.6193502442   -1.0943639037
 C    1.7711029951   -1.4590007696   -0.6340193692
 C    1.6687799295   -1.4265208129    0.8641537182
 C    0.6444472647   -0.6656570074    1.2269928449
 H    1.0163195227    1.7847255335    0.0469405946
 H   -0.4347632003    1.8018557129   -0.9739119541
 H   -0.5972768196    1.8591096828    0.7888665372
 H   -1.4699392166   -1.7250361205   -0.0575169142
 H   -2.1269364315   -0.2624707790    0.7135559453
 H   -1.5737867276   -0.5291330910   -2.3204230541
 H    1.6513798462   -2.4754484460   -1.0412539882
 H    2.7365894508   -1.0776970730   -1.0002654234
 H    2.3502156809   -1.9574297826    1.5167624671
 H    0.3156068169   -0.4483823732    2.2354004333