17

 C   -0.0536491314    1.4536507524   -0.0329539223
 C    1.2658346248    0.7641830133    0.0325557106
 C    2.0577335101    0.7022435226    1.3146008645
 O    1.7041984469    1.6753331724    2.3256112630
 C    1.6819706944    0.6530774016    3.3479596629
 C    1.6834040150   -0.4615761129    2.2768613644
 N    0.3649650103   -1.0378398107    2.1325664250
 C   -0.3484440810   -0.7204289637    1.1290726645
 N    0.0252325129   -0.0142600755   -0.0273114881
 H   -0.3875351082    1.9433170137    0.8765559866
 H   -0.3822030031    1.8983761710   -0.9670572079
 H    1.8498719924    0.6966775720   -0.8815238544
 H    3.1312902075    0.7519571844    1.0928366920
 H    2.5856008833    0.6835168692    3.9699681805
 H    0.7885344721    0.7072470347    3.9762379194
 H    2.4227226360   -1.2555794885    2.4020763399
 H   -1.3752823519   -1.0860837461    1.0848530995