20

 C   -0.0273039593    1.5349015447    0.0014996041
 C    0.0334993082    0.0110737276   -0.0188592138
 C    0.8380485566   -0.5649040584   -1.1863302192
 O    2.2230010141   -0.1053321110   -1.0474983862
 C    2.5402558253   -1.3464443177   -0.4196449503
 C    1.2285123436   -2.0004290629   -0.7625073971
 C    1.5390259405   -1.6501970168    0.6783446670
 N    0.7409411518   -0.5382023830    1.1647443038
 C   -0.1444701708   -0.8878561252    2.2620804645
 H    0.9856384021    1.9418068592   -0.0272719986
 H   -0.5908097711    1.9136013551   -0.8583902054
 H   -0.5217323939    1.8942212298    0.9089703823
 H   -0.9896383131   -0.4067087854   -0.0788415232
 H    0.4400060175   -0.3695527858   -2.1826538768
 H    3.5678263568   -1.6899913490   -0.4562647963
 H    0.9568512462   -2.9464827736   -1.2101362680
 H    1.7901853824   -2.4232659514    1.3952339658
 H    0.4413604224   -1.2302975844    3.1209440059
 H   -0.7016671047   -0.0001498517    2.5779413966
 H   -0.8792118646   -1.6755357500    2.0077920249