21

 C    0.2708146967    1.6259717576    0.3318299209
 C    0.0397528248    0.1180782258    0.0873632042
 C    0.6672613628   -0.6933223129    1.2423124273
 C   -1.4511653212   -0.2213965780   -0.1170071028
 C   -2.3607859463    0.1669413847    1.0230118580
 C   -3.5246110840   -0.6467430535    1.3963438270
 O   -2.3395810995   -0.6609675943    2.1938438981
 C    0.8144996005   -0.2398400334   -1.1765059262
 O    0.3434341224   -0.6770039532   -2.1939831973
 H    1.3402690134    1.8632748894    0.3265625206
 H   -0.2135949843    2.2363836041   -0.4374369915
 H   -0.1231091699    1.9247848092    1.3074122241
 H    0.1924636233   -0.4366375722    2.1915987958
 H    0.5384543930   -1.7689340310    1.0871880818
 H    1.7399814360   -0.4865398274    1.3265522370
 H   -1.8021718863    0.2753831663   -1.0293517168
 H   -1.5479444447   -1.2966992898   -0.2988865715
 H   -2.4143067681    1.2327020988    1.2506047742
 H   -4.3927416265   -0.1764631080    1.8560663593
 H   -3.7304425939   -1.5663696198    0.8499507994
 H    1.9124852817   -0.0566972326   -1.0873003215