19

 C    0.1812871383    1.3120707918    0.1930244788
 O   -0.3201712078    0.0761647901   -0.2662205164
 C    0.4660651129   -0.5025512988   -1.2704699344
 C    1.7008390309   -1.3386910536   -0.8653929757
 C    0.8066632542   -2.5371871800   -0.3848639205
 C    1.6118308832   -3.5267877722   -1.2504912424
 O    1.0299732893   -4.7265470998   -1.6877529051
 C    1.5341614068   -2.2576745229   -2.1256276798
 C    0.0715967149   -1.9315098861   -1.6420923326
 H    1.1720019909    1.2080073061    0.6601812491
 H    0.2619353091    2.0458933658   -0.6242955602
 H   -0.5207031716    1.6919321840    0.9390183781
 H    0.6169594934    0.2024192904   -2.1042510518
 H    2.6503964734   -1.0302673623   -0.4269825063
 H    0.3796908499   -2.6656485193    0.6085801031
 H    2.6073385361   -3.7918855607   -0.8805729039
 H    0.1380578174   -4.5362865505   -1.9985795781
 H    1.9405687712   -2.0660196908   -3.1197272114
 H   -0.8645288625   -2.2709915811   -2.0881518907