19

 C    0.2611027123    1.5571374612   -0.2842509891
 C    0.1048599037    0.0700675066   -0.0474548781
 C    1.3087757271   -0.8352482684    0.0704488820
 C    0.4264363108   -0.5995336412    1.2706211765
 C    0.9366147628    0.1804261273    2.4775617444
 C    1.6545558627   -0.6611621853    3.4260014075
 C    2.2427126944   -1.3723399590    4.2091897457
 C    2.9044644620   -2.1721270428    5.0891307031
 C    3.4920726488   -2.8811090753    5.8706558617
 H    1.1668144418    1.9562483570    0.1816573207
 H    0.3317862801    1.7693326371   -1.3565482803
 H   -0.5929234775    2.1201974818    0.1089934300
 H   -0.7500888476   -0.3602140298   -0.5633712561
 H    1.2939676077   -1.8082090164   -0.4078392595
 H    2.2856996904   -0.3601847987    0.0735820303
 H   -0.2250755797   -1.4227680539    1.5489357355
 H    1.5962233623    0.9945611120    2.1542684469
 H    0.0940995866    0.6621352768    2.9933547175
 H    4.0079663115   -3.5049762990    6.5572284411