17

 C   -0.0184537832    1.4524882314   -0.0424674144
 N    0.0218722140    0.0050528885   -0.0347279515
 C    0.0235863126   -0.8575935333   -1.1353456788
 C   -0.0195554829   -0.3602509014   -2.5413164241
 O    0.0003753831   -1.4891579716   -3.3941887525
 C    0.0701061224   -2.1152933148   -0.6121017979
 N    0.0978822654   -2.0746274718    0.7756301346
 C    0.0677186447   -0.8033926219    1.0594786038
 O    0.0776618795   -0.2525517077    2.2897436175
 H    0.8537600737    1.8688398282   -0.5578082097
 H   -0.9248887778    1.8185657255   -0.5362994159
 H   -0.0159206003    1.8044622038    0.9890284910
 H   -0.9270202244    0.2492859750   -2.7071309556
 H    0.8397653218    0.3062558908   -2.7409813122
 H   -0.0325496995   -1.1763605087   -4.3022923972
 H    0.0853594107   -3.0476474300   -1.1514863001
 H    0.1106724100   -0.9927432321    2.9083487532