23

 C    0.0028283111    1.4832032704   -0.1286508240
 C   -0.0642533173   -0.0333816104    0.0655972366
 C    0.8219292509   -0.5158370489    1.2068362815
 O    0.6945725842   -1.9180254406    1.3134650265
 C    1.4019237108   -2.4974965234    2.4016494475
 C    0.9004348758   -3.9445549902    2.6068290929
 C    2.1567839087   -4.7977771312    2.9088651805
 C    3.2893244942   -3.9158761534    2.4406004614
 C    2.8887690039   -2.6761203578    2.1687842699
 H    1.0223318519    1.8122449924   -0.3587970578
 H   -0.6417159196    1.8032363302   -0.9524234037
 H   -0.3210394649    2.0165375316    0.7720793257
 H   -1.0943348344   -0.3468517059    0.2704692356
 H    0.2412201301   -0.5483759931   -0.8524245833
 H    1.8690629364   -0.2249455710    1.0174060379
 H    0.5234384048   -0.0323684665    2.1541930909
 H    1.2275094795   -1.8748716756    3.2973475224
 H    0.1339072221   -4.0178430923    3.3813195063
 H    0.4477014230   -4.2561592412    1.6613299535
 H    2.2526918065   -5.0134584650    3.9818444733
 H    2.1411740533   -5.7707350865    2.4043539701
 H    4.3125131718   -4.2710621662    2.3730380237
 H    3.5310508173   -1.8632722454    1.8495750728