18

 C    0.1929838041    1.5023515081    0.0472941976
 O    1.0189641353    0.4309841965   -0.4075890727
 C   -0.2970740713    0.1155950832    0.0529738151
 C   -0.4082274203   -0.6849713925    1.3135658554
 C    0.6853159035   -0.5478499961    2.3970226548
 O    0.8191670777   -1.9848205371    2.5103707903
 C   -0.1609785656   -2.2149852804    1.4874252109
 C   -1.5929677976   -2.3195986654    2.0522855155
 N   -1.7993842394   -0.8677903098    1.7791538295
 H    0.5067776052    1.9688659303    0.9805021496
 H   -0.1506112516    2.1907164523   -0.7228707482
 H   -0.9964929221   -0.1803109315   -0.7288099837
 H    1.6173420955   -0.0931797304    2.0426692385
 H    0.3717397144   -0.0770573580    3.3378780340
 H    0.1781739655   -2.9119807826    0.7187954783
 H   -2.2913088735   -2.9488081232    1.4887667500
 H   -1.6018626802   -2.6222100145    3.1047616907
 H   -2.0722835396   -0.2987961590    2.5739250844