18

 C    0.1881478498    1.6297583030    0.3992747582
 C    1.3922839905    1.9672493857   -0.4435715727
 C    2.0707462713    0.8786349659   -0.8010037382
 C    1.4411900373   -0.3807844521   -0.2608571998
 C    0.0692608041    0.0909462993    0.2792792952
 C   -0.4950646014   -0.6662726070    1.5144120563
 N   -1.7451820708   -1.2986436767    1.0679498821
 C   -1.8683315357   -0.9756180610   -0.1506984146
 O   -0.9381899540   -0.1995392293   -0.7483666739
 H    0.3366726805    1.9312366004    1.4455604031
 H   -0.7367799240    2.1081711908    0.0603720155
 H    1.6650868385    2.9873755110   -0.6882771616
 H    2.9848179556    0.8698267117   -1.3835454617
 H    1.3023443949   -1.1636620461   -1.0138854066
 H    2.0499410239   -0.8177539677    0.5429705682
 H    0.1975878039   -1.4325933446    1.8801484152
 H   -0.7002713066    0.0083078419    2.3532261085
 H   -2.6864283176   -1.2725330051   -0.7984496030