16

 C    0.0860757155    1.3990499453   -0.0500007274
 N    0.1104584149   -0.0391703337   -0.0045006351
 N    0.2073544185   -0.7960446745   -1.1732525932
 C    0.1998331698   -2.0143865089   -0.7379923278
 O    0.2736253072   -3.1203853023   -1.4863666176
 N    0.1060574633   -2.1208788802    0.6165720055
 C    0.0717813688   -3.3111227118    1.4382425332
 C    0.0449390438   -0.8067314835    1.1285426359
 O   -0.0436363205   -0.4777427079    2.2955271038
 H    1.0032299080    1.7912821063   -0.5011246649
 H   -0.7733880289    1.7572789807   -0.6257826240
 H    0.0070698000    1.7490444629    0.9805204110
 H    0.3345397022   -2.8369157057   -2.4084269555
 H   -0.7911004955   -3.9356943484    1.1909895154
 H    0.9848083669   -3.9004435383    1.3161980283
 H   -0.0078873341   -2.9700062702    2.4720947224