21

 C   -0.1785227646    1.5389556339    0.0322520102
 C   -0.0235588088    0.0410460370    0.0050234403
 C   -0.0575464582   -0.6476455614   -1.1398561331
 C    0.0948180774   -2.1420007035   -1.2737735120
 C    1.4464354973   -2.7061590163   -0.7590357186
 C    1.5455996355   -2.7197527168    0.7588280176
 O    1.6106591177   -3.7638059175    1.3698884237
 C    1.5272665219   -1.3868529339    1.4948907569
 C    0.1812428213   -0.6280903708    1.3498502730
 H    0.6975330884    2.0199400378    0.4873405995
 H   -0.3120652284    1.9533804122   -0.9704490618
 H   -1.0425997908    1.8344578936    0.6416476931
 H   -0.1982587421   -0.0955276638   -2.0666313838
 H   -0.7188931971   -2.6663155975   -0.7530470675
 H    0.0002558406   -2.4176920006   -2.3280762928
 H    1.5706161542   -3.7393551711   -1.0933805222
 H    2.2623532828   -2.1028759288   -1.1752324457
 H    1.7164350416   -1.6079375075    2.5483682311
 H    2.3370869449   -0.7481203538    1.1215467375
 H    0.1398025898    0.1289513901    2.1389612989
 H   -0.6392259833   -1.3274911113    1.5605997857