19

 C    0.0084921384    1.5761785843    0.0035578890
 C    0.0677611646    0.0528459159   -0.0034261692
 C    0.8329360666   -0.6197279586   -1.1523054014
 O    1.2381814555   -1.8994264862   -0.6496463893
 C    1.5424896573   -1.7266340538    0.7084829514
 C    1.8165540923   -2.9264892450    1.5621846891
 C    2.9463525765   -1.9899711352    1.2281183017
 C    0.7886529615   -0.5400291784    1.2136456582
 O    0.7761858225   -0.1201437328    2.3449130938
 H    1.0093614835    2.0078900304   -0.1015471009
 H   -0.6131135671    1.9566167075   -0.8121360091
 H   -0.4073939890    1.9265532680    0.9517922896
 H   -0.9501484177   -0.3625094858    0.0254912592
 H    0.2340720350   -0.7949904602   -2.0480753664
 H    1.7142004345   -0.0192088687   -1.4291866133
 H    1.4128657616   -2.9093093830    2.5688044362
 H    1.7866016632   -3.8845944342    1.0557548050
 H    3.6682493752   -2.3143909743    0.4874965169
 H    3.3174606656   -1.3299524397    2.0044436097