24

 C    0.1134284506    1.5894743547   -0.2143174871
 C    0.0931180627    0.0630076516   -0.1088614191
 C    0.7340103706   -0.6580688132   -1.3079463060
 C    0.7962870787   -2.1798048701   -1.0866995261
 C    1.5339635116   -2.9416611530   -2.1898977743
 N    0.0367315358   -0.3354145431   -2.5494082508
 C    0.6233594011    0.3079083160   -3.6033015695
 C   -0.2854305253    0.5452529298   -4.8018135590
 O    1.7863774436    0.6707742972   -3.5991819663
 H    1.1380380409    1.9654502502   -0.3000885186
 H   -0.4375143685    1.9335246006   -1.0945806668
 H   -0.3424253593    2.0491347104    0.6679027628
 H    0.6237269836   -0.2515359056    0.7979322804
 H   -0.9416431511   -0.2900309302    0.0101789786
 H    1.7491450245   -0.2754629245   -1.4555350860
 H    1.2853276296   -2.3615468654   -0.1220409650
 H   -0.2271347493   -2.5689865776   -0.9833440282
 H    1.5586834606   -4.0144848953   -1.9757929731
 H    1.0476229399   -2.8041426242   -3.1601219932
 H    2.5669757443   -2.5925323775   -2.2875431940
 H   -0.9311890228   -0.6047236273   -2.6279051669
 H   -1.3036553394    0.1695843346   -4.6693558620
 H   -0.3257458621    1.6188794893   -5.0035658456
 H    0.1590026497    0.0668265926   -5.6785239843