19

 C   -0.0811473817    1.3637984852   -0.4638808383
 O    0.9466869286    1.7685333539    0.4576964542
 C    1.2876659389    0.3835347536    0.7675808274
 C    1.4333608418    0.1160328853    2.2370085387
 C    0.4812118789    0.2857431022    3.1680748877
 C   -0.9229910780    0.6064240555    2.9316724645
 C   -1.6366572807    0.1853281723    1.8789817921
 C   -1.0970980879   -0.7079039788    0.7901525483
 C    0.0480892609   -0.1135545096   -0.0359791025
 H   -1.0367211596    1.8554408881   -0.2469226567
 H    0.1974399754    1.5633332300   -1.5076146760
 H    2.2274453164    0.1195229729    0.2636161679
 H    2.4320688789   -0.1516820818    2.5723174037
 H    0.7715969231    0.1841506906    4.2129221761
 H   -1.4221314996    1.1838187475    3.7068889387
 H   -2.6845489003    0.4662207590    1.8162688149
 H   -0.7236306479   -1.6386904188    1.2426629897
 H   -1.9102187327   -0.9938649953    0.1139334277
 H    0.3014992757   -0.8011615116   -0.8482168581