21

 C   -0.0759598120    1.4736283954   -0.2328187545
 C   -0.0319680473   -0.0208045338    0.0972236662
 C   -1.4194481006   -0.6329344282    0.1849604938
 O   -2.1085820966   -0.5728169685   -1.1092756346
 C   -2.0823664466   -1.9971994481   -1.2035526406
 C   -1.4730363128   -2.1569719770    0.1768958984
 C   -2.8785168444   -2.6485271260   -0.1015619945
 C   -4.1372698035   -2.0529265277    0.4784734506
 O   -2.8589996968   -4.0544174286   -0.1678953102
 H    0.9322858050    1.8866903921   -0.3287813018
 H   -0.6052871539    1.6385420086   -1.1753426800
 H   -0.5960273892    2.0378693826    0.5492201588
 H    0.5429691958   -0.5611839121   -0.6641317615
 H    0.4748227777   -0.1874310998    1.0573846616
 H   -2.0116825304   -0.1264666506    0.9593180326
 H   -1.8659336675   -2.4552901762   -2.1629361129
 H   -0.7034773534   -2.8283674548    0.5343961470
 H   -4.1328721152   -0.9643590434    0.3957128336
 H   -5.0129863470   -2.4190123973   -0.0719477837
 H   -4.2578098611   -2.3351584102    1.5291297171
 H   -3.5528707703   -4.3275477264   -0.7788026152