23

 C   -0.3261369048    1.2626674424   -1.3053153274
 C    0.2767956373   -0.0591893485   -0.8749979198
 O    1.6685723108   -0.1698516913   -1.2522636537
 C    2.0505129718   -0.5792928876    0.0823782708
 C    3.2071322490    0.2358735188    0.6250340835
 C    0.6224759500   -0.3323757222    0.6145656469
 C    0.2730482631    0.7066064293    1.7149485992
 C   -0.8471653129   -0.2436988598    2.2171973848
 C   -0.1871103120   -1.3896078230    1.4038113438
 H    0.2319302186    2.1064424278   -0.8896957777
 H   -0.2982413808    1.3433182127   -2.3966885542
 H   -1.3716237472    1.3385658217   -0.9862585385
 H   -0.3030679191   -0.8889960728   -1.3095047096
 H    2.3104903418   -1.6498415774    0.0938654922
 H    2.9579466199    1.3005633021    0.6595059898
 H    3.4767249498   -0.0948642766    1.6341700962
 H    4.0844757748    0.1109436285   -0.0175894714
 H    1.0828389282    0.8057099412    2.4443451778
 H   -0.0191023199    1.7090583553    1.3937481340
 H   -0.9416097271   -0.3819429740    3.2965198704
 H   -1.8277515920    0.0303788912    1.8182742100
 H   -0.8416163028   -2.0458613142    0.8221850659
 H    0.4636925235   -2.0148254436    2.0243456869