19

 C    0.4676334878    1.5679519329    0.1352882734
 C    0.9495175049    0.1629139039   -0.2168141591
 C    0.1279002175   -0.5000322876   -1.3066674368
 O   -0.7412322484    0.0787137443   -1.9135368380
 C    0.4088160174   -1.9946239585   -1.5986239742
 C   -0.2541923324   -2.4479849250   -2.9220140247
 O   -0.1248295434   -3.8370236307   -3.1270509675
 C    1.8279452579   -2.3324170580   -1.5926317444
 C    2.9893451226   -2.6412246517   -1.6554953265
 H    0.4850363515    2.2166804047   -0.7436558244
 H   -0.5609784436    1.5499259025    0.5053686079
 H    1.1042717908    2.0098157950    0.9065203830
 H    1.9927843448    0.1709381818   -0.5582150322
 H    0.9509531189   -0.4988457891    0.6599983989
 H   -0.0777909107   -2.5515429405   -0.7823113188
 H   -1.3213391389   -2.2276447776   -2.8729603591
 H    0.1692421517   -1.8635101463   -3.7508561458
 H    0.8178453201   -4.0381644848   -3.1583969777
 H    4.0190030413   -2.9011713754   -1.6841947741