23

 C   -1.3726930025    2.5053004536   -0.4424691833
 C   -1.2099510075    1.2940866007   -1.3590824547
 N   -1.8506867117    0.1243932395   -0.7636692208
 C   -1.5360805556   -1.2303314202   -1.2195321131
 C   -0.5539703585   -1.5364691103   -2.3311176805
 C   -1.1145884141   -0.7627132676    0.1421349453
 C    0.3198506136   -0.5659135604    0.5254417068
 C    0.6475749160   -0.1548540961    1.9162181441
 N    0.9398161835   -1.5242121034    1.4608272093
 H   -0.9558397447    3.4028181584   -0.9100917249
 H   -2.4300385895    2.6810696835   -0.2258097865
 H   -0.8543318270    2.3464282933    0.5083770297
 H   -1.7160496472    1.4822184971   -2.3136582241
 H   -0.1441744559    1.1547852146   -1.5938710221
 H   -2.4219817656   -1.8656424037   -1.2605394272
 H    0.3725033633   -0.9638969834   -2.2652721449
 H   -0.2872096257   -2.5982455454   -2.3066717698
 H   -1.0045457365   -1.3325777819   -3.3087458798
 H   -1.7152628435   -1.0911269875    0.9947566666
 H    0.9991834345   -0.2541982842   -0.2609455236
 H    1.5222818355    0.4581058692    2.1144442527
 H   -0.1812362610    0.0020197395    2.6025347968
 H    0.2276703502   -2.1609992750    1.8136016539