22

 C   -1.2969374672    1.3327902858   -0.4955803612
 C   -0.8010811150    0.1296480217    0.3147134261
 N   -1.2342983354   -1.2035759940   -0.0689435675
 C   -1.9974403375   -1.3638922708   -1.0533428491
 O   -2.3628371396   -2.6190145651   -1.4180137491
 C   -3.3462514845   -2.7257695710   -2.4379629087
 C   -4.7590154780   -2.6270912431   -1.8877378379
 O   -4.9909153035   -1.2974451927   -1.4824534757
 C   -6.2228885756   -1.1252375509   -0.8202370864
 H   -0.8859713408    2.2540728342   -0.0713738142
 H   -0.9791689892    1.2795459630   -1.5425656287
 H   -2.3889146245    1.4148706752   -0.4763659972
 H    0.2974562598    0.1229291320    0.3131743785
 H   -1.0827822669    0.2661509450    1.3676629691
 H   -2.4160725560   -0.5810562644   -1.6930093256
 H   -3.1963537838   -1.9568915113   -3.2077067153
 H   -3.2005834320   -3.7073441899   -2.8974731395
 H   -5.4777640107   -2.9319620560   -2.6685459917
 H   -4.8692061212   -3.3211330910   -1.0391735645
 H   -6.3008990083   -0.0710361137   -0.5447384042
 H   -7.0733666691   -1.3874345202   -1.4689037129
 H   -6.2828307908   -1.7382837528    0.0918816256