18

 C    0.0007746211    1.4706425730    0.2006919184
 C    1.3816586878    2.1251667428    0.0281939281
 C    1.9105041321    2.2041008367   -1.3748977799
 C    1.4143029441    1.8112609040   -2.5596330238
 C    0.2257911428    1.0724575144   -2.9908931810
 C   -0.4245644680    0.0189667245   -2.4576015822
 C   -0.1965294764   -0.6341565903   -1.1765227543
 C    0.0137115273   -0.0158536354   -0.0082069081
 H   -0.3584491833    1.6885472838    1.2129506191
 H   -0.6990333629    1.9385333225   -0.4996013514
 H    1.3525526442    3.1519867130    0.4247586045
 H    2.1144150616    1.6027546667    0.6585298351
 H    2.8481485081    2.7568736661   -1.4330472187
 H    2.0086008856    2.1283096437   -3.4174230052
 H   -0.1007145138    1.3628845683   -3.9891045844
 H   -1.1875629029   -0.4422285720   -3.0837300827
 H   -0.2530769229   -1.7219131299   -1.1851109252
 H    0.1871398754   -0.6274880118    0.8752102617