18

 O   -0.0887222655    1.4257101753    0.3022979352
 C    0.0402329955    0.0388768705    0.0177831427
 C    0.6682970887   -0.7260307137    1.2012026306
 C    0.0051165272   -1.8683754259    1.4066980267
 C   -0.8953462809   -2.3161233629    2.5501761742
 N   -2.0628219887   -1.9625454369    1.6394336592
 C   -2.1848355057   -0.4791554977    1.3260318227
 C   -1.3638452048   -0.5984453021   -0.0137235482
 C   -1.1407873732   -2.0502236082    0.4339718464
 H    0.7787452289    1.8328866221    0.2171891679
 H    0.5575316235   -0.0991063307   -0.9458045110
 H    1.2917247401   -0.2093614107    1.9236014916
 H   -0.9398683811   -3.3896902672    2.7532829188
 H   -0.8273026326   -1.7608142480    3.4901899336
 H   -3.2349837053   -0.2231537696    1.1752991624
 H   -1.7575720365    0.1892690645    2.0772443307
 H   -1.9353861184   -0.3948204056   -0.9206431814
 H   -1.2198542910   -2.9210690533   -0.2190278921