16

 O   -0.0881362570    1.4268009257   -0.2262237153
 C   -0.0155973729    0.0570582030    0.0286243282
 C   -0.2562954981   -0.9209028003   -1.0941755260
 C   -1.2961456504   -0.7439174744   -0.0005474286
 C   -1.2861113336   -1.7473428447    1.1337098133
 C    0.1424958211   -1.6938806251    1.7030304816
 O    0.6383016837   -2.5163268953    2.4259551702
 C    0.8327730686   -0.4183873576    1.1932841304
 H    0.7149930744    1.6889447811   -0.6895349798
 H   -0.4984827488   -0.4889271117   -2.0585881090
 H    0.3171512286   -1.8432942861   -1.1388920016
 H   -2.2195311587   -0.2445091388   -0.2672586950
 H   -1.9794868544   -1.4554275475    1.9332250538
 H   -1.5383931273   -2.7735503103    0.8493758022
 H    1.8833157314   -0.6200688475    0.9623982618
 H    0.8065256235    0.3331832696    1.9931402640