20

 C   -0.3020812034    1.4990796297   -0.0666241345
 C   -0.0374354352    0.0174477653    0.0516749179
 N    1.3221059579   -0.4650981596   -0.2379736775
 C    0.7853543235   -0.5943895534    1.1326975283
 C    1.4746616240    0.2109758964    2.2345821797
 C    1.9372512026   -0.7201161906    3.3563668466
 O    2.5392343276    0.0822497409    4.3555430054
 C    2.6880347026    0.9587972757    1.6842615137
 O    2.7359057537    2.1444561049    1.4952798120
 H    0.5210235755    2.0905860680    0.3382715493
 H   -0.4382490670    1.7781957816   -1.1167160822
 H   -1.2188425394    1.7643561929    0.4718442464
 H   -0.8534082068   -0.6120978409   -0.3035881385
 H    1.3007808361   -1.3570448219   -0.7234129751
 H    0.4776366234   -1.5921464003    1.4454747730
 H    0.7935506220    0.9571137289    2.6567674429
 H    1.0736350863   -1.2802834413    3.7480507766
 H    2.6484455701   -1.4577985557    2.9470410641
 H    2.9089329348   -0.4926368149    5.0320810120
 H    3.5603544817    0.3021482243    1.4707536897