20

 O    0.8276852345   -0.2337161930    1.5075879606
 C    0.1688181185   -0.2723435936    0.2639021054
 C    0.5788068863    0.7375190994   -0.7803245508
 C    1.0173751718   -0.7106671124   -0.8870045559
 C   -1.2514818235   -0.7209035176    0.3462695604
 C   -1.6492547424   -2.1432995327    0.3505335822
 N   -1.9907014932   -1.3302191963   -0.8350587597
 C   -3.2048709213   -0.5342551113   -0.4272874778
 C   -2.4434598017    0.1669591319    0.7260164604
 H    0.4761444925    0.5137215540    2.0038436978
 H   -0.1709673075    1.0918365575   -1.4795802536
 H    1.3273709398    1.4663674785   -0.4901606545
 H    2.0520139432   -0.9391469488   -0.6599563269
 H    0.5501451592   -1.3211101875   -1.6509038884
 H   -0.8732406237   -2.8755910332    0.1532934971
 H   -2.4531737266   -2.4882660354    0.9985008983
 H   -3.5023879149    0.1361018936   -1.2357418990
 H   -4.0596650000   -1.1609238512   -0.1525342598
 H   -2.8328000774    0.0596582792    1.7425524397
 H   -2.2630507835    1.2255618686    0.5256079342