17

 O    0.0660907270    1.3036122624    0.3976650148
 C   -0.0178729106    0.0226388207   -0.1979685444
 C   -1.4201113105   -0.5337206383   -0.1100005496
 C   -1.6779577975   -1.9549505095    0.2094601305
 N   -1.8637991984   -0.9137072498    1.2527119282
 C   -3.2552539711   -0.5176110826    1.3601133934
 O   -3.9463400923   -0.6988427081    2.3277880254
 N   -3.6194671369    0.0925530293    0.1859761529
 C   -2.5445117449    0.2680013719   -0.7682794667
 H   -0.1842915487    1.1924425496    1.3228832884
 H    0.2748823564    0.1502873229   -1.2463132184
 H    0.6836416394   -0.6879190607    0.2620541448
 H   -2.5724392298   -2.4253776780   -0.1908617448
 H   -0.8464216497   -2.6287837040    0.3925838586
 H   -4.5288541921    0.5142853722    0.0968370820
 H   -2.2354196644    1.3165384120   -0.8573492955
 H   -2.8082224758   -0.1071866699   -1.7644002897