17

 O   -0.1997221690    1.4782153302    0.0089213147
 C   -0.0847021641    0.0850975286    0.0509970999
 C   -0.4753260186   -0.6736552220    1.2935835707
 N   -1.2088102231    0.1589320252    2.2380407032
 C   -2.3499786158    0.3269319220    1.6885647885
 N   -3.3359010947    1.3017991395    1.6117239432
 C   -3.3832715003    1.0780233086    0.1181945498
 C   -2.6644719641   -0.3075134929    0.3622866587
 C   -1.3010599698   -0.8107282707   -0.0383207226
 H   -0.1483478382    1.7822680665    0.9244023275
 H    0.7885414353   -0.2842681278   -0.4839811720
 H    0.1643452733   -1.4527061499    1.6925377823
 H   -3.1632648346    2.2234831735    1.9964840799
 H   -4.3979168341    1.0396124730   -0.2815887381
 H   -2.7564295512    1.7811431817   -0.4314748389
 H   -3.3998323489   -1.1139340040    0.4038873768
 H   -1.2226818622   -1.7017225215   -0.6488834736