16

 C   -0.0336538539    1.5214378058    0.0497971813
 C   -0.0350477534    0.0244627841   -0.0135772062
 C   -0.1656204529   -0.6662091487   -1.1541137519
 C   -0.0260745637   -2.1358414539   -1.2247656718
 O    0.1119136971   -2.7405969783   -2.2568538171
 O    0.0043045660   -2.8153029438   -0.0430543407
 C   -0.4494149216   -2.1355646982    1.1327544823
 C    0.1544364958   -0.7441463383    1.2701716001
 H    0.8964812040    1.8873625680    0.5032136980
 H   -0.1348678732    1.9711867965   -0.9404513798
 H   -0.8512502515    1.8852915873    0.6846207382
 H   -0.2835461494   -0.1794851702   -2.1157347395
 H   -1.5447676774   -2.0626068577    1.0999779771
 H   -0.1746809984   -2.7827303209    1.9684550569
 H    1.2253499400   -0.8055727284    1.5097938318
 H   -0.3217302175   -0.2239924232    2.1096918413