18

 O    0.1261692663    0.0459157027    0.3008068918
 C    0.0729867434    1.2407607668    0.1168773720
 N   -1.0358447239    2.0287200159    0.2390826562
 C   -0.8706879341    3.4384031589   -0.0548926261
 C    0.6340785222    3.5847939793   -0.4261836772
 C    1.4669624559    4.4195821180    0.5680511588
 C    1.9661404215    3.3527344943    1.5491624622
 O    2.2357007931    2.2178068430    0.7361787465
 C    1.2435627974    2.1642755719   -0.2836833463
 H   -1.9215157310    1.6194916457    0.4933299436
 H   -1.5172647382    3.7495526416   -0.8843609336
 H   -1.1329959873    4.0584136852    0.8120126824
 H    0.7269042595    3.9676869899   -1.4426581428
 H    2.3182682035    4.8751072226    0.0539946501
 H    0.8923715128    5.2166147196    1.0473024369
 H    2.8914160832    3.6195643614    2.0655661091
 H    1.2013654612    3.1230160294    2.3085076341
 H    1.7211309444    1.7723567340   -1.1850838674