19

 O   -0.0233641600    1.4867764605   -0.1607778055
 C   -0.0479897753    0.1344469900    0.1959939488
 C   -1.4239335117   -0.4604164568   -0.0467373002
 O   -2.3435679474    0.1924171693   -0.4847580376
 O   -1.4847840835   -1.7544957297    0.2777948524
 C   -2.7542691263   -2.4032940986    0.0950095365
 C   -3.1112110246   -2.9186624104   -1.3157350793
 C   -3.6364204058   -4.2155636216   -0.6354089698
 C   -2.7991775623   -3.8456592624    0.6235587219
 H   -0.9191673175    1.6887724394   -0.4702950108
 H    0.6854011174   -0.4477505312   -0.3819797277
 H    0.2048605681   -0.0073680481    1.2576404608
 H   -3.5365468396   -1.7630370413    0.5076348700
 H   -3.7987127492   -2.3179307126   -1.9122743311
 H   -2.2023972482   -3.1101345932   -1.8932993035
 H   -4.7108084970   -4.1699683100   -0.4409973194
 H   -3.4103258718   -5.1643992095   -1.1237764030
 H   -1.8023663017   -4.2933443823    0.5872235746
 H   -3.2317735235   -4.0139554117    1.6116081529