14

 O    0.1201161035    1.5019370845   -0.0089257609
 C    0.0072184239    0.1121028351   -0.0212765336
 C   -1.3575657842   -0.5934168353   -0.0133450291
 C   -2.1299593462   -0.3969390642   -1.2608939156
 C   -2.1142175317    0.8152487976   -2.0461375001
 N   -2.1697362724    1.7671419859   -2.6990920540
 N   -1.0002102190   -1.3783488322   -1.2762274901
 C    0.2096307498   -0.5643740519   -1.3836436739
 N    1.0323526694   -0.5819180055   -2.3244793779
 H    0.1269479117    1.8146199064    0.9015198017
 H    0.6599907351   -0.3687307772    0.7220545808
 H   -1.8031334280   -1.0956348565    0.8379502371
 H   -3.0867500521   -0.9100128945   -1.3020387298
 H    1.7889538104    0.0841073178   -2.1560280146