16

 C    0.0155860755    1.4918938775    0.1308280115
 C    0.0581864774   -0.0172322950   -0.0103598800
 O    0.6882595372   -0.5498671053    1.1735455454
 C    0.8142216179   -1.8880556537    1.2254124450
 O    0.4388242935   -2.6391756887    0.3595950670
 C    1.4932915055   -2.3233791468    2.5224804131
 N    1.6762209198   -3.7557960672    2.6733997497
 H    1.0241834973    1.9041483320    0.2245119371
 H   -0.4571610168    1.9340408055   -0.7511973292
 H   -0.5590872734    1.7856315567    1.0137023861
 H   -0.9430145277   -0.4498143129   -0.1026180695
 H    0.6319467691   -0.3318940773   -0.8877594288
 H    2.4623299274   -1.8140994330    2.5826333815
 H    0.9033717943   -1.9313980243    3.3593669052
 H    0.7716547684   -4.2130221160    2.5955803260
 H    2.2074113947   -4.1050599913    1.8801764400