16

 C   -0.0481745569    1.5567602991   -0.0341090629
 C    0.0976477477    0.0477654307   -0.0963258552
 C    0.7033130719   -0.7317097194   -1.2073387019
 C    1.3817404465   -0.7109165333    0.2172401363
 C    2.5664833043   -0.1037908889   -0.4425740817
 O    3.7389591969   -0.0662321810   -0.1738402375
 C    1.8825904092    0.0208717971   -1.8377139468
 O    2.5896557862   -0.7431003088   -2.7865625882
 H    0.8270903141    2.0831794350   -0.4206493681
 H   -0.9190915059    1.8830234247   -0.6125444538
 H   -0.1946034732    1.8784585608    1.0017450127
 H   -0.7495977287   -0.4716122244    0.3486712721
 H    0.2358160790   -1.5898656067   -1.6714980843
 H    1.4197256141   -1.4678681102    0.9915533949
 H    1.6553848591    1.0218825642   -2.2247866862
 H    3.5278214557   -0.6411234988   -2.5812199895