19

 C   -0.1821086786    1.5207882281    0.0382220886
 C    0.0215503691    0.0111671750    0.0331211299
 C    1.1813351901   -0.5955920858   -0.8576794305
 C    2.1512169474   -0.2237063678    0.3172865302
 C    0.9059369890   -0.6370836895    1.1672764056
 C    0.7918434433   -2.1241387783    0.7629390572
 C    0.9752425598   -2.0799428732   -0.5720865854
 C    0.5419232791   -3.2001065787    1.6311287657
 C    0.3273621853   -4.0957760606    2.4103435581
 H    0.7436708750    2.0851152508    0.1748874420
 H   -0.6332246101    1.8462282462   -0.9058580735
 H   -0.8679231661    1.8078427910    0.8431897431
 H   -0.9426150898   -0.4867291214   -0.1079113610
 H    1.3541211425   -0.2803688026   -1.8865545223
 H    3.0522808409   -0.8306405770    0.4278820963
 H    2.3997036103    0.8381557415    0.3741905404
 H    0.7933450174   -0.3862860510    2.2214254006
 H    0.9681266900   -2.8893970909   -1.2874546674
 H    0.1391358752   -4.8940662259    3.0840711924