19

 O   -0.0946060959    1.4689088821    0.0731053665
 C    0.0429798599    0.0562319676    0.0527504837
 C    0.7512989770   -0.4820840937    1.3023752614
 C    0.7262624716   -2.0132219217    1.3228088204
 N   -0.6633351368   -2.4776654280    1.2516390379
 C   -1.3589871359   -2.0555024448    0.0386468588
 C   -1.3706859798   -0.5165294998   -0.0420750527
 C   -0.7797083015   -2.6516685506   -1.1940956449
 N   -0.3024564632   -3.1542831710   -2.1201663114
 H    0.7869081771    1.8547584862    0.0975095530
 H    0.6086377457   -0.2597897594   -0.8395744190
 H    1.7891395703   -0.1283612453    1.3306571257
 H    0.2387071875   -0.0912034232    2.1883973938
 H    1.3443514982   -2.4047856324    0.4961017900
 H    1.1572472436   -2.3883790988    2.2556871124
 H   -0.7031880542   -3.4868572395    1.3421271755
 H   -2.3934394375   -2.4105749371    0.1010129511
 H   -1.9595538678   -0.1428964871    0.8011894712
 H   -1.8504321684   -0.1859529337   -0.9669673235