16

 N   -0.0828197881    1.3354428951   -0.0592991349
 C    0.0307446299    0.0654448187   -0.0045451919
 C   -1.2487521933   -0.7441770155    0.1465143310
 O   -2.3058651748   -0.3952790050   -0.2976134177
 N    1.2080007719   -0.6643773666    0.0197193925
 C    2.5420102528   -0.0480536501    0.0225081462
 C    3.4624632564   -1.2992886457   -0.0160556525
 N    2.5841182405   -2.4596329144   -0.2502982882
 C    1.3883736386   -2.0318686940   -0.2080251272
 H    0.8233418154    1.8011086602   -0.1234772507
 H   -1.1456778129   -1.6802360865    0.7373515816
 H    2.6660310247    0.5922387757   -0.8595811405
 H    2.6781880806    0.5689386119    0.9155087830
 H    4.2150185046   -1.2368002256   -0.8062909256
 H    3.9965375688   -1.4420337275    0.9295267132
 H    0.5225760548   -2.6690302607   -0.3459931282