19

 C    0.8154339081    0.8490701591    0.4747061005
 C   -0.4151011374    0.3162050433   -0.2251668260
 O   -1.5434336634    0.5683240727    0.1392745349
 C   -0.1947764761   -0.5941682202   -1.4127531496
 C   -1.2609572664   -0.6231855084   -2.5351930841
 C   -1.2954492917   -2.1809331903   -2.4699257223
 C   -0.2514041064   -2.1639133013   -1.3246665096
 C    1.2135027532   -2.0856478090   -1.7825748050
 O    1.1628283993   -0.6426764879   -1.8992674769
 H    1.4447873005    0.0230212184    0.8233755229
 H    1.4292152401    1.4192745654   -0.2298105896
 H    0.5157372964    1.4738030952    1.3166977231
 H   -2.1923656656   -0.1520634570   -2.2179984680
 H   -0.9150911462   -0.1783440251   -3.4700729881
 H   -2.2653565695   -2.5788780640   -2.1655992777
 H   -0.9741816260   -2.7093156804   -3.3716312198
 H   -0.4737810166   -2.7115001383   -0.4100468253
 H    1.9513077618   -2.3953625341   -1.0317253945
 H    1.4502312360   -2.5712494080   -2.7373984849