21

 C   -0.3590413076    1.6217569286    0.0567396559
 C   -0.0257834333    0.1306387526   -0.0265808153
 O    0.5651914991   -0.1657164501   -1.3053770041
 C    1.9459956318   -0.3517327682   -1.3847284229
 C    2.9275960190    0.7972426876   -1.2896157285
 C    2.8073417991   -0.2057628289   -0.1638084626
 O    2.1590339065    0.2083393493    1.0033983567
 C    0.8607198607   -0.3811630963    1.1163308010
 C    0.3335248166   -0.0648129361    2.5067277369
 H    0.5391550130    2.2195621263    0.2327204650
 H   -0.8138770117    1.9404725861   -0.8842235003
 H   -1.0688247199    1.8216417728    0.8650617888
 H   -0.9604407050   -0.4445263606   -0.0146219654
 H    2.1794402194   -1.1474783822   -2.0861312300
 H    3.8113859006    0.7672131920   -1.9179307831
 H    2.5314936154    1.7868942076   -1.0960811596
 H    3.6189110878   -0.9103535388    0.0134331457
 H    0.9551505026   -1.4724380684    1.0011404990
 H    0.3129683622    1.0139169459    2.6801967897
 H   -0.6784462564   -0.4603016965    2.6372097404
 H    0.9826746599   -0.5174041830    3.2607078024