21

 C   -0.1089092712    1.5306533621   -0.0023942224
 C    0.0113931652    0.0148568738    0.0056990802
 O   -1.2683388119   -0.5137750636    0.2445075598
 C    0.8507280244   -0.5759529543   -1.1960535230
 C    2.1096183679   -0.4093314353   -0.2945254325
 C    1.1420729192   -0.5837639614    0.9000053965
 O    0.8031584752   -1.9561809448    1.1393082001
 C    0.9383240980   -2.7897603244   -0.0225604989
 C    0.5193698396   -2.0708925054   -1.3225565031
 H    0.8357036141    2.0260234757   -0.2391359826
 H   -0.8481117893    1.8311652487   -0.7517465620
 H   -0.4562157792    1.8865122118    0.9724686937
 H   -1.1216736251   -1.3194371515    0.7607552868
 H    0.8104543638   -0.0540224398   -2.1551597981
 H    2.9274911715   -1.1241731216   -0.4012221547
 H    2.5237344784    0.5991829172   -0.3214272592
 H    1.3672038843   -0.1430114917    1.8743125728
 H    1.9802812869   -3.1258184371   -0.0976302879
 H    0.3262554463   -3.6747796169    0.1716847509
 H   -0.5535414587   -2.1829049248   -1.5047971899
 H    1.0506757305   -2.5239788667   -2.1667366564