16

 C   -0.1256269348    1.3310849522   -0.1037737838
 O    0.3790664128    0.0049974175   -0.0076554905
 C    0.7068461812   -0.5456147490   -1.2421721625
 C    1.1559282136   -2.0291856088   -1.1460435168
 O    0.0563475724   -2.4075228803   -2.0557371892
 C   -0.4262024839   -1.1160984155   -2.0909904147
 N   -1.4548403717   -0.6366391091   -2.6211872842
 C    2.4614181872   -2.3959690103   -1.6444339811
 C    3.5552623762   -2.6841565841   -2.0488398001
 H    0.6198683556    2.0046362951   -0.5520020681
 H   -1.0430494462    1.3667571779   -0.7019619681
 H   -0.3371332251    1.6589134243    0.9156865511
 H    1.3980545563    0.0899423125   -1.8130540467
 H    0.9638949364   -2.4376050668   -0.1502709441
 H   -2.0112715605   -1.3550433646   -3.0888661706
 H    4.5211523404   -2.9459895010   -2.4056896606