20

 C    0.4076770269    1.4865090887   -0.3584622179
 C   -0.0085265324    0.0362138058   -0.0988495742
 O    0.1236642989   -0.7738724124   -1.2654022700
 C    0.7835023260   -0.5768005905    1.0547972048
 C    0.9468043634   -2.0708445680    1.2797234107
 C    2.2506117689   -2.4849236652    0.5691028800
 C    2.7919541306   -1.2262802215   -0.0779965037
 N    2.3037043139   -0.4353824326    1.1296155572
 C    2.2873643486   -1.7838756715    1.8918880023
 H    1.4628776405    1.5447846370   -0.6366469585
 H   -0.1929929302    1.9218150488   -1.1655675462
 H    0.2576869831    2.0999175077    0.5355328644
 H   -1.0646222342    0.0266472094    0.2230160587
 H   -0.3475471225   -0.3343608220   -1.9802155057
 H    0.4081885333   -0.1071110057    1.9716231718
 H    0.2164319754   -2.8105038707    1.5843750050
 H    2.4539250720   -3.5269735382    0.3551374593
 H    3.8852963892   -1.1996186454   -0.0779046065
 H    2.3961420766   -0.9016665163   -1.0405132690
 H    2.7364097719   -1.9680647973    2.8571828675