21

 C   -0.2584921228    0.1170926436   -0.8917102338
 O   -0.1806265681   -0.8310318135    0.1513268639
 C    0.7369292069   -0.5283558235    1.1880212260
 C    0.4372139545   -1.4761260725    2.3405601254
 C   -0.9540897762   -1.8620356100    2.6675436863
 N   -0.0262845920   -2.8437587739    2.0708854114
 C    2.1823770922   -0.6598009273    0.7353469063
 C    2.9376584162    0.5189964642    0.2406296973
 N    3.2510909402   -0.0653934416    1.5543408470
 H    0.6657870411    0.1643576882   -1.4809858538
 H   -1.0778720510   -0.1959567975   -1.5431088774
 H   -0.4781785388    1.1236634709   -0.5043891580
 H    0.5811551989    0.5120327554    1.5332547011
 H    1.1657001877   -1.4095800318    3.1461498920
 H   -1.2328705239   -2.0600493343    3.6986822817
 H   -1.7434495538   -1.4625942994    2.0387839181
 H   -0.2398845759   -2.9118457287    1.0776333660
 H    2.4318904820   -1.6434677814    0.3426455869
 H    3.7109666854    0.3951216686   -0.5120560080
 H    2.4232008356    1.4767662579    0.2077379478
 H    2.8437943319    0.5090383366    2.2905907241