17

 C    0.0323456435    1.5192396593    0.0969170912
 C   -0.0187434484   -0.0073483128   -0.0850270290
 C   -1.4311073957   -0.5302620341   -0.0370794654
 N   -1.9945788810   -0.6660770936    1.1731474539
 C   -3.2485131997   -1.0997255296    1.2215835907
 C   -3.9697445604   -1.4072134270    0.0669066013
 O   -5.2478545127   -1.8503621314    0.1811577631
 C   -3.2982189527   -1.2309471824   -1.1390702037
 N   -2.0407374080   -0.7960762937   -1.1977711807
 H    1.0660756057    1.8772887721    0.0816245329
 H   -0.5149533640    2.0261237442   -0.7042070827
 H   -0.4166255436    1.8068010058    1.0521441959
 H    0.4217486587   -0.2864020418   -1.0455097209
 H    0.5575679865   -0.4865333520    0.7126662164
 H   -3.7127313132   -1.2155540688    2.1985130424
 H   -5.6094383396   -2.0180078932   -0.6964045356
 H   -3.7920911155   -1.4497093010   -2.0872869296