13

 C    0.0910808497    1.5083711102    0.0105855920
 C   -0.0514351668    0.0330886609    0.0287051289
 C   -1.0967528220   -0.8432270642   -0.0958811248
 N   -2.4596652139   -0.9420003384   -0.2855045629
 N   -2.8265867173   -2.1178769442   -0.3067310942
 O   -1.6011878634   -3.0348483256   -0.1101538506
 C   -0.5968951422   -2.1708910703    0.0090393617
 C    0.7437549592   -2.0718566319    0.1954367488
 O    1.0580179460   -0.7210672796    0.2046865983
 H    0.7558062787    1.8329886354   -0.7973369866
 H   -0.8870734271    1.9694233092   -0.1384589395
 H    0.5103683342    1.8780269092    0.9526734627
 H    1.5662006250   -2.7489898508    0.3288014362