19

 O   -0.0753785296    1.4227783006    0.0107677976
 C    0.0088585065    0.0062989864    0.0021371489
 C   -1.4112228529   -0.5442286073    0.0127026894
 C   -1.4493467671   -2.0745906489    0.0049115626
 C   -2.8712678583   -2.6130627069    0.0157621590
 O   -2.8019405601   -4.0416018750    0.0076788981
 C   -3.9776936024   -4.6945854990    0.0149267504
 N   -4.0018885150   -5.9570520290    0.0089721683
 H    0.8181444276    1.7778972163    0.0030512085
 H    0.5412442681   -0.3578396421   -0.8918491152
 H    0.5582172653   -0.3676203582    0.8817114808
 H   -1.9259625667   -0.1530491051    0.8989828379
 H   -1.9427090323   -0.1436633350   -0.8593832923
 H   -0.9360242384   -2.4664169342   -0.8812201173
 H   -0.9190550509   -2.4757857128    0.8767414162
 H   -3.4083022611   -2.2699569045    0.9111858770
 H   -3.4253383286   -2.2607331022   -0.8655897578
 H   -4.8521485353   -4.0278509035    0.0262089960
 H   -4.9660881886   -6.2834748094    0.0161053518