18

 C    0.5319231695    1.4530941526   -0.6198152643
 C    0.2305059410    0.0791989789   -0.2445738201
 C   -0.0132533375   -1.0608893505    0.0598941372
 C   -0.3240157240   -2.4212235143    0.4444841031
 C   -0.2297324470   -2.8189811483    1.9525020223
 C   -1.5365568715   -3.6631552361    1.7869163598
 C   -1.8184079568   -2.8768991949    0.4639643255
 C   -1.2941493658   -5.0835621248    1.5834746449
 N   -1.0940892727   -6.2100697354    1.4138012284
 H    1.3190881567    1.4945086990   -1.3806210290
 H   -0.3510809385    1.9563831776   -1.0289999055
 H    0.8739748920    2.0353450623    0.2429704550
 H    0.2614608961   -3.1285366879   -0.1528593364
 H    0.6678708508   -3.3453344115    2.2775726345
 H   -0.4081680921   -1.9611081337    2.6030657246
 H   -2.2810397951   -3.5438515119    2.5768391367
 H   -2.4889403900   -2.0369563840    0.6534353752
 H   -2.1798223150   -3.4491536471   -0.3906203620