17

 O   -0.0245401414    0.1201474402    0.5625135592
 C   -0.0044229781    1.2456318622    0.1151177342
 C   -1.3034164125    1.9584327699   -0.2660242121
 O   -1.1276959333    3.1589401837   -0.9979316526
 C   -0.0471510546    3.9072775947   -0.5160612375
 O    1.1728647677    3.2432844182   -0.7285571322
 C    1.2533588496    2.0450401372   -0.0006759770
 C    2.1935289335    2.0070378185    1.2064307961
 C    2.5680214628    1.3218723060   -0.0726011421
 H   -1.9132771366    1.2824523259   -0.8701581618
 H   -1.8483651546    2.1456064530    0.6751486021
 H   -0.0106714945    4.8306138416   -1.0955764577
 H   -0.1779460320    4.1297422342    0.5592491323
 H    2.6777172106    2.9479661543    1.4405861098
 H    1.8902397894    1.3956776398    2.0482221866
 H    2.5164993486    0.2401802141   -0.1076248651
 H    3.3164041452    1.7901420465   -0.7011215423