21

 C    0.0407159626    1.3536516892   -0.0675066336
 O    0.0483504571   -0.0520333857   -0.0198611424
 C    0.6810298692   -0.5572974858    1.1360037822
 C    0.6617800120   -2.0785633156    1.0652078806
 C    1.2922121641   -2.7335852470    2.2872170695
 C    1.3230168387   -4.2738418702    2.2409398070
 O    2.5533223473   -4.6000055971    2.8674148766
 C    3.4288465153   -3.5792689940    2.4666505598
 O    2.6786030418   -2.3810920476    2.4092079975
 H    1.0610737546    1.7692724199   -0.0683570842
 H   -0.4610009762    1.6483294436   -0.9926057980
 H   -0.5035313261    1.7900624487    0.7856646148
 H    1.7196729525   -0.1975177192    1.2027738799
 H    0.1575529524   -0.2089324117    2.0444572050
 H   -0.3782593461   -2.4162964607    0.9725708772
 H    1.1906539384   -2.4024933236    0.1616727279
 H    0.7814774452   -2.3925556552    3.1992206195
 H    0.5129728813   -4.7472069307    2.7988221304
 H    1.3023802985   -4.6335308412    1.1996802977
 H    4.2264370720   -3.4842619769    3.2104161950
 H    3.8622588753   -3.7995848593    1.4737962878