20

 C    0.0312010293    1.5512227839   -0.0160060856
 C   -0.0145064183    0.0278950512   -0.0618781677
 N    0.7303305996   -0.4745242440   -1.2120305299
 C    0.7956834990   -1.8542642954   -1.3732646528
 C    0.3612558789   -2.9048535054   -0.5796241019
 C    0.7945168984   -4.0577831854   -1.2681073676
 N    1.4355665077   -3.7691088296   -2.3921652685
 N    1.4401232405   -2.4072729724   -2.4367096271
 C    2.0722030743   -1.7143440701   -3.5324813738
 H    1.0638916300    1.9085735145    0.0297658192
 H   -0.4417744392    1.9887338061   -0.9031393535
 H   -0.5057555712    1.9238404285    0.8605301945
 H    0.4503367167   -0.3886698394    0.8387348080
 H   -1.0609727073   -0.3197026562   -0.0669600451
 H    0.4852599596    0.0141553540   -2.0649285914
 H   -0.1865286679   -2.8435520677    0.3453350068
 H    0.6580337868   -5.0917038101   -0.9847194210
 H    1.3402797382   -1.3313399052   -4.2557476330
 H    2.6664102715   -0.8769594696   -3.1536559088
 H    2.7235188235   -2.4259471878   -4.0392019506