19

 O    0.0932821127    1.1712730824    0.6703673444
 C    0.0716759611   -0.1556932057    0.1878730331
 C   -1.3074531557   -0.5130172721   -0.3362167037
 C   -1.6609177083   -2.0052440592   -0.4785211555
 C   -2.6649464804   -1.7393518694    0.6577320343
 C   -4.1616533329   -2.0867240252    0.5638866066
 O   -4.0662332887   -2.9641437713    1.7050544641
 C   -2.7094010549   -2.5513404803    1.9647513771
 O   -2.2942155118   -0.3531056352    0.7239527724
 H   -0.6407783621    1.2391020107    1.2935705663
 H    0.8124456581   -0.2216325012   -0.6172632979
 H    0.3596119242   -0.8776311164    0.9709113598
 H   -1.5636636779    0.1231157078   -1.1910764408
 H   -2.1080263176   -2.2965654717   -1.4301077522
 H   -0.8541160502   -2.6996250718   -0.2311748309
 H   -4.8121610529   -1.2223892050    0.7506099956
 H   -4.4948781289   -2.6129940520   -0.3388113919
 H   -2.0228729520   -3.4030032945    2.0455561624
 H   -2.6251461619   -1.9220919199    2.8606558166