23

 C   -0.3289080174    1.5556420984   -0.0629545974
 C    0.0212221670    0.0516720832   -0.0193552354
 C    0.6425475023   -0.3815487166   -1.3268922775
 C    1.8599503036   -0.9105959797   -1.4575194810
 C    2.7908774005   -1.1380195943   -0.2929459336
 C    2.3943414280   -0.2702178581    0.9070917849
 O    2.7978479615    1.0868864949    0.7140392011
 C    0.8840421048   -0.4015069823    1.1931179942
 C    0.5028972596    0.2767965374    2.5121378440
 H    0.5647367497    2.1837646651   -0.0714326690
 H   -0.9102257147    1.7803882470   -0.9635436774
 H   -0.9317824299    1.8495286423    0.8003683742
 H   -0.9409506394   -0.4755019267    0.0662187483
 H    0.0286045170   -0.2328409348   -2.2138344225
 H    2.2155798214   -1.2017656430   -2.4431478365
 H    2.7860428479   -2.1995593857   -0.0071680825
 H    3.8249966648   -0.9058361579   -0.5740750543
 H    2.9477522439   -0.6006430996    1.7939843529
 H    2.5847979906    1.3202957049   -0.1962680189
 H    0.7034908236   -1.4800025119    1.3081518612
 H    0.7985474049    1.3290491549    2.5136876837
 H   -0.5746799175    0.2192692434    2.6993857790
 H    1.0109605678   -0.2104882011    3.3513052324