19

 C   -0.0755259024    1.5038562362   -0.1044651473
 C    0.0382216455   -0.0099910308    0.0519506634
 C    0.7874548776   -0.4304267131    1.3076080718
 O    1.2453798050    0.3665686091    2.1002537097
 C    0.9219047795   -1.8618554410    1.5005686106
 C    1.0276821783   -3.0554858897    1.6507682857
 C    1.1799606079   -4.4837663184    1.8739385445
 C    1.9483759124   -4.8065613053    3.1615395698
 O    2.0184116538   -6.2180416279    3.2463494900
 H    0.9132635231    1.9670895654   -0.1508365409
 H   -0.6202794649    1.7553604470   -1.0186347844
 H   -0.6010464201    1.9459447056    0.7457250232
 H   -0.9496965999   -0.4893599199    0.0813674507
 H    0.5488107866   -0.4684486484   -0.8058092505
 H    0.1948752620   -4.9641231104    1.9219197642
 H    1.7038274757   -4.9431964291    1.0266352136
 H    2.9464568147   -4.3470622109    3.1150948921
 H    1.4199651786   -4.3683667886    4.0207414800
 H    2.4967366367   -6.4505354799    4.0473472439