17

 O   -0.4856130500    0.5086787605   -0.5909165602
 C    0.1114509340    1.0148732513    0.3269940156
 C    1.2669396213    1.9621356524    0.1691864989
 C    1.4112317815    2.8910723891   -1.0614714328
 C    0.0635414284    3.4606579774   -1.5261123284
 C   -0.6854937247    3.9955179747   -0.3233654450
 C   -0.1099191874    3.9314688474    0.8789064775
 C    1.2814356675    3.3295462385    0.9147242075
 O    2.0543918691    3.8737934057   -0.1956110832
 H   -0.1585574427    0.7812940022    1.3831135540
 H    2.2031304521    1.4221075043    0.3514602558
 H    2.0571031694    2.5785698286   -1.8844215161
 H    0.2371380086    4.2619707900   -2.2554755140
 H   -0.5200093108    2.6824226431   -2.0311506752
 H   -1.6734104692    4.4212959168   -0.4711325073
 H   -0.5836908384    4.2847891552    1.7880813047
 H    1.8009405413    3.4248808327    1.8695048382