20

 C    0.0621759195    0.6334338729   -0.8389373799
 C    0.0293683247   -0.2936007826    0.3927668793
 C    0.5994982469    0.3928256309    1.6353317701
 C   -1.3821418558   -0.7977695729    0.6175073917
 N   -2.0994157008   -0.4195825919    1.5911876813
 O   -1.7132815780   -1.6693789306   -0.3832199886
 C   -3.0307595904   -2.2154711471   -0.3721944146
 C   -3.1912818595   -3.0938091051   -1.5199101973
 C   -3.3573813274   -3.8252547637   -2.4569096821
 H    1.0898130659    0.9436195932   -1.0506895453
 H   -0.3348827554    0.1303929225   -1.7238249645
 H   -0.5322855452    1.5352369536   -0.6572796132
 H    0.6342553062   -1.1783798553    0.1562258283
 H    0.0061104452    1.2714292405    1.9004035271
 H    0.5950049573   -0.2775153158    2.4983230310
 H    1.6297684901    0.7106237946    1.4464232887
 H   -3.0311854774   -0.8294590187    1.6013117655
 H   -3.1976919506   -2.7757016515    0.5590319339
 H   -3.7740692838   -1.4061185328   -0.4074223181
 H   -3.4989043913   -4.4716848803   -3.2877217833