19

 C    0.3048466525    1.3056116339   -0.3004590889
 O   -0.1891630970    0.0700397092    0.1810921941
 C    0.5556031554   -0.4755819049    1.2369111994
 C    1.8903570637   -1.1139138437    0.8813971761
 C    0.6843667677   -1.9657497342    1.2093193333
 O    0.7043226010   -2.6615163470    2.4215312145
 C   -0.1605998417   -2.1475012273    3.4253578337
 C   -0.0495822976   -0.6523070214    3.5937103171
 C    0.3179567888    0.1248811748    2.5782188616
 H    1.3520719017    1.2259157096   -0.6243686965
 H   -0.3147024734    1.5797324156   -1.1575103011
 H    0.2339195498    2.1047238070    0.4507895977
 H    2.2030181436   -1.0663574834   -0.1563318600
 H    2.6834853182   -1.0864190134    1.6195671542
 H    0.1916137305   -2.4892287770    0.3925979156
 H   -1.2094637298   -2.4228885699    3.2171659268
 H    0.1265165788   -2.6613792768    4.3483502145
 H   -0.2800804909   -0.2412333090    4.5724586350
 H    0.4173011887    1.2004211279    2.6919702329