20

 C    0.0460759172    1.5533957761    0.0073703473
 C    0.0009484070    0.0244805230   -0.0626353607
 C   -1.4208137605   -0.5568751687   -0.0213518400
 C   -2.2694139748   -0.1976280535   -1.2643373634
 C   -1.3869001440   -2.0654286684    0.1042066726
 O   -0.4395498814   -2.7580986341   -0.1974658726
 C   -2.6748108604   -2.7384220909    0.6532566060
 N   -2.5711624164   -4.0845697374    0.6747167586
 O   -3.6395804179   -2.0909104549    1.0159457509
 H    1.0810733414    1.9072996446    0.0389318576
 H   -0.4315896258    2.0202821748   -0.8593791835
 H   -0.4590797425    1.9255748080    0.9058997666
 H    0.5045342219   -0.3282838638   -0.9696972602
 H    0.5729334537   -0.3929906265    0.7739676556
 H   -1.9631199617   -0.1820275983    0.8550457647
 H   -1.7940392273   -0.5669320082   -2.1793512180
 H   -3.2707421100   -0.6262739280   -1.1868504547
 H   -2.3747198151    0.8865852848   -1.3486875218
 H   -1.7085357870   -4.5071613619    0.3714332443
 H   -3.3280388465   -4.6429909269    1.0304261106