17

 C    0.1212815455    1.3586360529    0.0783515526
 O   -0.0360110266   -0.0445160970   -0.0603967841
 C    0.6007089641   -0.5721184214   -1.1760607936
 O    2.0406504826   -0.4921091706   -1.0642617515
 C    2.4199150262   -1.8421825452   -0.9672671871
 C    1.5996284068   -2.7155115947   -1.9609825891
 O    1.6323444903   -3.8456351443   -1.0296587803
 C    1.3746725873   -2.6803695473   -0.1745147135
 C    0.3874103433   -2.0746184308   -1.2188779165
 H    1.1733993987    1.6280797649    0.2237950656
 H   -0.2638967376    1.8906465268   -0.8042167878
 H   -0.4563689698    1.6580277698    0.9549427991
 H    0.3084671758   -0.0248871879   -2.0854062179
 H    3.4902414152   -1.9750848722   -0.8291748368
 H    1.7424087257   -2.9145291500   -3.0227282830
 H    1.2426897984   -2.8382395586    0.8941042628
 H   -0.6156189258   -2.4775513245   -1.3332477490