13

 N   -0.0656354284    1.3296274933    0.0084250678
 C    0.0593219994   -0.0162883194    0.0033244215
 O    1.1106839743   -0.6293608616   -0.0071873855
 C   -1.2630900115   -0.7505061720    0.0112116943
 C   -1.2866535024   -2.1479899098    0.0070849899
 N   -2.4317803082   -2.8244227444    0.0138101927
 N   -3.5738627721   -2.1377483579    0.0246974956
 C   -3.5083510131   -0.8074418622    0.0282739266
 N   -2.3985291702   -0.0619338067    0.0220578175
 H    0.7628280698    1.8998456297    0.0029802482
 H   -0.9819349926    1.7473696052    0.0163733577
 H   -0.3662338081   -2.7193821474   -0.0017335789
 H   -4.4613606767   -0.2868632968    0.0372687126