16

 C    0.0485935040    1.5225119204    0.1946254130
 C   -0.0808391759    0.0475861122    0.0437444635
 C   -1.1632745109   -0.6380838236   -0.3293277124
 N   -1.1378109588   -2.0209248707   -0.4269221434
 C   -0.0198488278   -2.7758040136   -0.1530109273
 N   -0.0434595197   -4.0448703069   -0.2571631475
 C    1.1915539358   -1.9829746813    0.2668207996
 N    2.2660574678   -2.5918947776    0.5396455405
 O    1.0983544450   -0.6216192264    0.3424218640
 H    0.8266570279    1.9215307438   -0.4667492144
 H   -0.8963109725    2.0131428989   -0.0489106892
 H    0.3250156840    1.7927779251    1.2205624352
 H   -2.0953796927   -0.1479153489   -0.5684060676
 H   -1.9574024406   -2.5344478779   -0.7093139548
 H    0.8776713175   -4.4076661070   -0.0117271336
 H    2.9995585967   -1.9350076566    0.8073020343