21

 O   -0.3748258862    0.0821170846   -0.3774083353
 C   -0.2200921513    1.2524993309   -0.1291200861
 C   -1.3260432899    2.2546678423    0.2186706496
 C   -0.5754734967    3.5090380810    0.6936302684
 C    0.7557881929    3.4593150979   -0.0884869733
 C    1.1271896951    1.9716438564   -0.1025406898
 C    2.0650026024    1.5109821279    1.0762328984
 C    3.2483050666    1.4534684957    0.0764604766
 C    2.2236928126    1.4859506842   -1.0867941443
 H   -1.8856113239    2.4535448030   -0.7052509719
 H   -2.0350593466    1.8306020795    0.9336764638
 H   -1.1306101340    4.4346749700    0.5242212753
 H   -0.3768299494    3.4415520344    1.7695120742
 H    0.5949445631    3.8081190117   -1.1173280147
 H    1.5310018830    4.0939453973    0.3507801524
 H    2.1447838666    2.1944359996    1.9259279425
 H    1.7846192483    0.5190308260    1.4391426814
 H    3.8625833863    2.3571731850    0.1129534064
 H    3.9079493726    0.5853055335    0.1395614694
 H    1.9808401075    0.4851915992   -1.4544858479
 H    2.4393423607    2.1403336097   -1.9357213250