17

 O   -0.0936919151    0.0475855048    0.1579733781
 C    0.0006913468    1.2486759007    0.0208970254
 C    1.2657101874    1.9585681651   -0.1498541745
 C    1.4404428938    3.2825441471   -0.2520881738
 C    1.0212579471    4.6278530539    0.2812205418
 O    2.3934203092    4.8119500822    0.7454052390
 C    2.8618072720    3.7054054451   -0.1099994874
 C    3.5519155542    2.4582112500    0.4682120192
 C    2.6440391527    1.2979908412   -0.0635827922
 H   -0.9017798496    1.8993762122    0.0185289708
 H    0.7527007054    5.3784980132   -0.4729924815
 H    0.2893972549    4.6416493183    1.0948482904
 H    3.3660989503    4.1181893569   -0.9931679021
 H    4.6013186294    2.3559817989    0.1816493422
 H    3.4930129409    2.5006311619    1.5602472688
 H    2.6187529303    0.4329958117    0.6034760126
 H    2.9885492201    0.9325680566   -1.0385925667