21

 C    0.3499381952    1.4903836761    0.1218796768
 C    0.3446903817   -0.0389678281    0.0685311689
 C    0.5954968437   -0.5822883109   -1.3445997218
 O    1.8825258956   -0.1825661842   -1.8388170135
 C    2.7366703490   -1.3089675413   -1.9593751040
 O    3.7265269873   -1.3497878601   -0.9622850349
 C    4.7007646496   -0.3309551891   -1.0930023173
 C    1.8315917608   -2.4991837552   -1.7879966510
 C    0.6250645681   -2.0848257115   -1.4244594578
 H    1.3016718461    1.8823992119   -0.2465409418
 H   -0.4489453396    1.9114053978   -0.4991509714
 H    0.2029886311    1.8503174773    1.1445423266
 H    1.1175714613   -0.4487391150    0.7283964203
 H   -0.6200053333   -0.4260454510    0.4221184877
 H   -0.1564370929   -0.1585424598   -2.0283235829
 H    3.2277869582   -1.2397892128   -2.9446796844
 H    5.2072410033   -0.3826722144   -2.0693350034
 H    4.2576982195    0.6660938100   -0.9815959992
 H    5.4382878386   -0.4889371427   -0.3029620170
 H    2.1813176849   -3.5160413999   -1.9015475110
 H   -0.2323276284   -2.7008867270   -1.1840362188