14

 O    0.0041477014    1.4437012967   -0.0603390914
 C    0.0693403950    0.0318207594   -0.0369876751
 C    0.7266868211   -0.5157783898    1.2251657292
 C   -0.0708733406   -1.3353477984    1.9092334058
 C   -1.3959034680   -1.4511388476    1.2114069655
 O   -2.0989125790   -0.1824935320    1.1091211855
 C   -1.3190984332   -0.6230805210   -0.0060776798
 C   -2.2223282800   -2.6234175958    1.3391433140
 N   -2.8574213154   -3.5812204995    1.4602649362
 H   -0.5846500063    1.7006364403    0.6615046170
 H    0.6170300851   -0.2594656568   -0.9397641466
 H    1.7100982305   -0.1818301948    1.5336394580
 H    0.1409339984   -1.8320885607    2.8466928325
 H   -1.8727213491   -0.8408067099   -0.9137574709