22

 C    0.0757024065    1.3458890099    0.8755973298
 C    0.1262279315   -0.1215721681    0.5181058329
 C    0.9676694105   -0.5352964267   -0.6342435434
 N    1.4355696483   -0.7464237670    0.7830390722
 C    1.3997291430   -2.2314225206    0.5042410934
 C    0.1816101450   -2.9049956962   -0.1156612485
 C   -1.3214547446   -2.8199931905    0.1389213471
 C    1.0729102028   -2.0431421188   -0.9682811747
 C    1.7886266319   -2.5004274857   -2.2069192295
 H    1.0196798077    1.8374266403    0.6244794933
 H   -0.7345289838    1.8492414182    0.3373458817
 H   -0.0945438870    1.4735593062    1.9493908670
 H   -0.7658103220   -0.6734508367    0.7747010987
 H    1.4615033784    0.2046731692   -1.2594763952
 H    2.1763055145   -2.8190144971    0.9809959413
 H    0.4835401907   -3.9433098094   -0.2641555845
 H   -1.7894485909   -1.9792543227   -0.3780260481
 H   -1.8028931996   -3.7302965535   -0.2328884617
 H   -1.5597997754   -2.7429508602    1.2052313275
 H    1.1716958671   -2.3545601993   -3.1027330980
 H    2.7228135185   -1.9460914669   -2.3556831461
 H    2.0363626771   -3.5648824245   -2.1459589851