23

 C   -0.7475431540    1.3215275889    0.0021147292
 C   -0.0953572596   -0.0558693440   -0.0118565991
 C    1.0955208355   -0.3023372486   -1.0008331941
 O    1.5627213590    0.7761901663   -1.7815089984
 C    1.9842607155   -0.8011539783    0.1871689431
 C    3.1583280904    0.0986113449    0.6018812853
 C    2.5302767911    1.2319698109    1.4417949953
 C    1.3369795284    0.5653225867    2.1574434980
 C    0.8102074434   -0.5067871769    1.1852083600
 H   -0.0331526969    2.1329755113    0.1766275930
 H   -1.2410488487    1.5229497990   -0.9537873002
 H   -1.5044759092    1.3855032286    0.7910333783
 H   -0.8801950499   -0.7989186914   -0.1885187862
 H    0.8824832782   -1.0900640883   -1.7281642642
 H    1.7386808923    1.5260256810   -1.2046489349
 H    2.2869596814   -1.8454083405    0.0824348947
 H    3.8541619694   -0.4761587155    1.2230539053
 H    3.7232756913    0.4671294501   -0.2596543538
 H    3.2415556499    1.6854145536    2.1382856995
 H    2.1791952242    2.0467382843    0.7943612897
 H    1.6914053748    0.0723095208    3.0702451332
 H    0.5710623736    1.2844254031    2.4642078676
 H    0.4055505299   -1.3660380663    1.7242397186