15

 C   -0.1292355555    1.3368639634    0.3577655208
 N    0.0194218907   -0.0673805485    0.0340958115
 C    0.3996478020   -0.8404244997    0.9561095927
 N    0.5744988431   -2.2237892640    0.7418596300
 C    0.9989153331   -3.0514373627    1.7926314346
 N    1.2345766986   -2.5880523109    2.9490849838
 C    0.3306003218   -2.7989156356   -0.5142652139
 O    0.4660469157   -3.9750137398   -0.7451458729
 H    0.5165874751    1.9307126033   -0.2985008571
 H   -1.1601190048    1.6484133086    0.1561636876
 H    0.1137706070    1.5781433598    1.4037226999
 H    0.6306435499   -0.5548909730    1.9850674291
 H    1.0835655936   -4.0869467979    1.4619213229
 H    1.5299496020   -3.3349479316    3.5743800091
 H    0.0060221277   -2.0455403613   -1.2431084181