18

 C   -0.0145639529    1.5715656101    0.1856531375
 C   -0.0380952649    0.0619110570   -0.0585985244
 N   -1.3847706837   -0.4791535507   -0.0827436864
 N   -2.0707466495   -0.6831297901    1.0815630123
 C   -3.2635804129   -1.1288232200    0.7032416987
 C   -3.3763427843   -1.2175978467   -0.7038051508
 N   -4.3970559287   -1.6272252628   -1.6105982061
 C   -2.1428208868   -0.7840212004   -1.1542770239
 O   -1.6899011610   -0.6599598301   -2.4149775643
 H    1.0182005914    1.9303284756    0.2345571690
 H   -0.5268364653    2.1054582407   -0.6201686815
 H   -0.5113777416    1.8080689513    1.1298833880
 H    0.4269205426   -0.1875101703   -1.0159551524
 H    0.5056889891   -0.4630571389    0.7316164824
 H   -4.0020221765   -1.3777302734    1.4532004092
 H   -5.2353810118   -1.0615750366   -1.5216844123
 H   -4.6742979479   -2.5924164334   -1.4615624250
 H   -2.4240411254   -0.9611945013   -2.9727651399