13

 C   -0.2044274260    1.6052370157    0.0956465505
 C    0.0146160105    0.0990593645    0.0303156195
 O    1.1242305869   -0.2855688084   -0.8185484031
 C    1.8634655886   -0.9430241603    0.2346963549
 C    0.7871017796   -0.5344044792    1.2393899052
 O    0.6110831279   -0.5969773358    2.4104694386
 C   -1.2076984560   -0.6288351316   -0.3224388901
 N   -2.1696361740   -1.2144563436   -0.5826231038
 H    0.7233611885    2.1008377535    0.3909699908
 H   -0.5120509578    1.9807529040   -0.8834587814
 H   -0.9840415101    1.8375136091    0.8258796314
 H    1.9529512671   -2.0254177411    0.0810936379
 H    2.8570581048   -0.5095802068    0.3951757295