17

 C   -0.1001591827    1.5543152079   -0.0937080363
 O    1.2170843519    2.0155641514    0.2497154934
 C    1.9472104840    0.9496877435    0.8230050181
 O    1.6964810824    0.7968761208    2.1984199330
 C    0.4239346875    0.2179631332    2.4961711886
 C    0.0051137828   -0.7015438939    1.3543662455
 O    1.2114082278   -1.4125656936    0.9511355674
 C    1.4668486164   -0.3181129475    0.0512113726
 C   -0.0244686891    0.0364553015   -0.0244819068
 H   -0.8423789865    1.9881276112    0.5893815124
 H   -0.3304698927    1.9001228825   -1.1072590509
 H    3.0056757776    1.1950989314    0.7325882693
 H    0.5522462157   -0.3584431613    3.4173580707
 H   -0.3298589246    0.9981275423    2.6792986949
 H   -0.8195680297   -1.3692313880    1.6152415484
 H    2.0721976562   -0.5865271545   -0.8157451243
 H   -0.6123950370   -0.4930307969   -0.7727268059