12

 O   -0.2358534791    0.1986871937    0.4911039540
 C    0.0391974241    1.1245784304   -0.2203635088
 C    1.3687874699    1.8541746698   -0.1281987496
 O    1.3518486764    2.8924892660   -1.1165754931
 C    2.4351779963    3.6413507511   -1.1873183411
 N    3.5136584990    3.5405195478   -0.4601180935
 O    4.3071742881    4.5420930453   -0.9388951102
 N    3.6381740567    5.2042571441   -1.9551840945
 N    2.5119779046    4.6667232039   -2.1086326081
 H   -0.6479450643    1.5208836582   -0.9979943496
 H    1.5011508494    2.2791933380    0.8736223284
 H    2.1972495889    1.1605420516   -0.3135300937