20

 C    0.0830613054    1.5217780675   -0.1435183796
 C   -0.0498179192    0.0355381545    0.1096582667
 C   -1.1450667342   -0.6447738185   -0.6863685046
 O    1.1874741790   -0.6986967158    0.1568975956
 C    0.4105841012   -0.5972100110    1.3617234302
 C    1.0380708528    0.1078213108    2.5385498342
 C    2.1641650014   -0.7193435597    3.1529050176
 O    2.6598992022   -0.0051141109    4.2748915547
 H    0.9350617342    1.9510323389    0.3847100551
 H    0.2249464420    1.7056953346   -1.2142113584
 H   -0.8249295213    2.0504511120    0.1665479426
 H   -0.9748938647   -0.5115866366   -1.7604342028
 H   -1.1717996969   -1.7166441079   -0.4758059471
 H   -2.1247900977   -0.2165679177   -0.4477605287
 H   -0.0827055256   -1.5366561337    1.6288088961
 H    1.4411898754    1.0818861088    2.2515035123
 H    0.2725525066    0.2838116537    3.3046415987
 H    1.7812412600   -1.7105848759    3.4476538493
 H    2.9464509252   -0.8807659915    2.3965174216
 H    3.4066025343   -0.4924198215    4.6346224066