21

 C   -0.6308013050    1.5312308531   -0.0719934983
 C    0.0574566994    0.1821638617   -0.1018541159
 O    1.2807248657    0.1812654464   -0.8854910911
 C    1.9747631640   -0.6038066153    0.1098672351
 C    3.1851274063    0.1333609397    0.6830488002
 C    2.5599819069    1.1977946804    1.6010525709
 C    1.3496075993    0.4679922203    2.2232755108
 O    0.3337880382    1.3050652696    2.7498171131
 C    0.7992289808   -0.4408296617    1.1109192143
 H    0.0025646741    2.3109196069    0.3513205677
 H   -0.9052375105    1.8143015136   -1.0940341002
 H   -1.5431636935    1.4761649274    0.5290834962
 H   -0.6402136111   -0.5598334195   -0.5205761521
 H    2.1994543210   -1.6110313565   -0.2597043228
 H    3.7984815132   -0.5699308029    1.2602174328
 H    3.8134496438    0.5524709782   -0.1077287294
 H    3.2539553685    1.5781916469    2.3572638654
 H    2.2080103829    2.0473703269    1.0089261919
 H    1.7281018501   -0.1992655120    3.0168853165
 H    0.7204280675    1.8349378761    3.4538354114
 H    0.3286206584   -1.3383388594    1.5134066838