19

 C   -0.0682132938    1.2130563025   -0.7153029337
 N   -0.0508400925   -0.0350951231    0.0269403164
 C    1.2338420854   -0.5251397068    0.4850151983
 C   -1.2257485185   -0.7444218878    0.1500140193
 O   -2.3095916017   -0.3012300718   -0.2016765730
 N   -1.1025323275   -1.9907019308    0.7533634802
 C   -2.2577871177   -2.8821882980    0.7561527873
 C   -2.1074152047   -4.0151907276   -0.1558791762
 C   -1.9519113874   -4.9545032487   -0.8895130345
 H    0.5204856464    1.1367813907   -1.6395259557
 H   -1.1020274569    1.4421596848   -0.9672401232
 H    0.3469633062    2.0283629959   -0.1102608318
 H    1.1433527434   -1.0126229060    1.4602228355
 H    1.7079979230   -1.2256757125   -0.2199940868
 H    1.9111752535    0.3238588471    0.6088949160
 H   -0.2087234524   -2.4518990216    0.7112901144
 H   -2.4406644276   -3.2534667297    1.7725271956
 H   -3.1153917793   -2.2672243561    0.4683741821
 H   -1.8340377079   -5.7791548705   -1.5480140000