21

 C   -0.1518529892    1.5516645692   -0.0301285302
 C   -0.0145108784    0.0344720027   -0.0011137603
 C    1.0973591786   -0.5971021378   -0.8935511486
 C    2.0987438095   -0.2668501409    0.2660552786
 C    0.8392931968   -0.5921774245    1.1559948955
 C    0.7150386828   -0.1667427914    2.6009287234
 C    0.7355715146   -2.1079121058    0.8269888978
 O   -0.3366961718   -2.5088083733   -0.0430146272
 C    0.9173571820   -2.1092793784   -0.6223514818
 H    0.7948885007    2.0880277131    0.0795791553
 H   -0.5997995367    1.8694038045   -0.9780952366
 H   -0.8167578866    1.8904044938    0.7720868675
 H   -0.9987126230   -0.4182737331   -0.1234538399
 H    1.2664707561   -0.2767858424   -1.9218667814
 H    2.9715245907   -0.9189386375    0.3764387665
 H    2.4155686079    0.7765924214    0.3071739759
 H    0.8619287643    0.9120290003    2.7150020647
 H   -0.2743620601   -0.4143915616    3.0019889814
 H    1.4610807627   -0.6695230493    3.2277142986
 H    1.1017962382   -2.8644941484    1.5144112106
 H    1.4435738808   -2.8680690905   -1.1917465197