18

 O   -0.1215333754    1.4854521381    0.0976488207
 C   -0.0325805180    0.0913016575    0.0197721559
 C   -0.5057140983   -0.7432680135    1.1822315104
 C   -1.3325943685   -0.6571364808   -0.0888696335
 C   -2.6215056523    0.0971715565   -0.0940555966
 C   -3.5359118805    0.0507224018   -1.2795941724
 C   -3.9568903235   -0.6398169580    0.0119584130
 C   -3.9832047293   -2.0734962202    0.0687345887
 N   -3.9973229377   -3.2299041412    0.1164825385
 H    0.5524122137    1.7914041528    0.7134047175
 H    0.8071128346   -0.2789074397   -0.5678679774
 H    0.0018763189   -1.6731054744    1.4125106291
 H   -0.8799895329   -0.2009099987    2.0446323334
 H   -1.3212894875   -1.5378650259   -0.7237377980
 H   -2.5878711503    1.0360120127    0.4467240914
 H   -4.0847864581    0.9419949074   -1.5602946493
 H   -3.2604428315   -0.5927530299   -2.1076184644
 H   -4.7358233435   -0.1624052746    0.5966622128