14

 N   -0.0361286764    1.4063213442   -0.2131679969
 C   -0.0415065320    0.0038277689   -0.1814905446
 C   -1.1657761941   -0.7163470445    0.0946182573
 N   -2.3706376766   -0.1641179391    0.4047357445
 C   -1.0755037341   -2.1730777061    0.0920251766
 N   -2.1077979241   -2.8771167623    0.3474800756
 O    0.1364118819   -2.7007457647   -0.2112095482
 N    1.3039866201   -1.8495336712   -0.5480187086
 N    1.1367829498   -0.6309506410   -0.4958617445
 H   -0.3504350097    1.8183967424    0.6596059294
 H    0.8849271797    1.7589553994   -0.4437116076
 H   -2.5606358890    0.7556353652    0.0347259840
 H   -3.1343896891   -0.8278193729    0.4092078052
 H   -1.9009544265   -3.8733491884    0.2892294278