18

 C   -0.5457288503    1.4545586134    0.2013185322
 C   -0.1992903158   -0.0140757792    0.0115931315
 C    0.5325982976   -0.5071845128   -1.2654758277
 C    1.2214870578    0.4953452001   -2.1782241341
 O    2.1097926935   -0.1796739810   -3.0461153269
 O    1.5349356243   -1.2005348292   -0.4573575873
 C    1.0209202293   -0.6343795101    0.7613442660
 C    1.9555191001    0.3146464410    1.3781597890
 N    2.6805904327    1.0725069250    1.8640150951
 H    0.3199771905    2.1080169193    0.0708716706
 H   -1.3174276760    1.7594156910   -0.5124584462
 H   -0.9405873033    1.6271422993    1.2073744452
 H   -1.0815787887   -0.6290147642    0.2033480874
 H   -0.0191511332   -1.2312021466   -1.8745976401
 H    0.4825930296    1.0049490753   -2.8064871260
 H    1.7446376147    1.2581540229   -1.5827581247
 H    2.7217499644   -0.6670395649   -2.4811856429
 H    0.7793435029   -1.4103500694    1.4960530187