18

 C    0.0022024772    1.5175440017    0.0584915706
 C    0.0352605032    0.0006188265   -0.0227397385
 C    0.6855497827   -0.5061002073   -1.3059280430
 O    0.6820330234   -1.9255550326   -1.3788721712
 C    0.9602733314   -2.5891584164   -0.1809707307
 C    2.2488943297   -2.4145217246    0.5899853048
 C    0.9440233199   -1.8555548824    1.1295928376
 O    0.7895566829   -0.4641472471    1.0996415269
 H    1.0122528261    1.9302221665   -0.0263820045
 H   -0.6156581820    1.9345240860   -0.7423399124
 H   -0.4137141796    1.8319947114    1.0190199081
 H   -0.9877895240   -0.4053500191    0.0309054860
 H    0.1350047808   -0.1606221344   -2.1861447540
 H    1.7126094840   -0.1120300092   -1.3650947508
 H    0.5319220713   -3.5855306125   -0.2140594919
 H    2.6878909600   -3.2893856858    1.0572141328
 H    2.9601502079   -1.6737700799    0.2426478072
 H    0.4826997351   -2.3175603506    2.0002084829