16

 C   -0.0641443013    1.5232311253   -0.1246239625
 C   -0.0189359573    0.0314626541    0.0692516777
 O    1.2333774465   -0.6208515586   -0.1085673926
 C    0.6715850470   -0.6158531435    1.2103921341
 C    1.3474031966    0.0211971048    2.3643302574
 C    1.1913944517   -0.7949528068    3.4160679212
 N    0.4657443112   -1.9483425989    3.0774632797
 C    0.1387597297   -1.9513194366    1.7324766590
 O   -0.4518910317   -2.8114686748    1.1254471273
 H    0.8042003110    2.0104704377    0.3243230220
 H   -0.0760867201    1.7622379924   -1.1930809823
 H   -0.9732820035    1.9383345999    0.3225023621
 H   -0.8584465854   -0.5337743811   -0.3397676952
 H    1.8632131358    0.9673356639    2.3552319249
 H    1.5320071766   -0.6661695660    4.4333536519
 H    0.2913440434   -2.7305791117    3.6855068951