13

 O    0.1086291939    1.3262067321    0.0818687492
 C    0.0694396355   -0.0165697610    0.0431831855
 N    0.0778555201   -0.6128236024   -1.1359649259
 C    0.0375960251   -1.9601243878   -1.1325868819
 C   -0.0103956009   -2.6745053303    0.0689201930
 N   -0.0183071564   -2.0570497536    1.2536530609
 C    0.0212091305   -0.7328864868    1.2523156724
 C    0.0450851336   -2.6423854922   -2.3851010576
 C    0.0500706263   -3.2495741315   -3.4239467313
 H    0.1380531154    1.6285360106   -0.8371847641
 H   -0.0426275822   -3.7585607610    0.0648719432
 H    0.0156383604   -0.2106225024    2.2039444868
 H    0.0548991403   -3.7759271136   -4.3467092701