20

 C   -1.7600780107    1.5603755269    2.0472032118
 C   -0.3930212123    1.4126546884    1.3696266610
 C    0.5203766605    0.4003432829    2.0016468556
 N    0.1005682968   -0.9363067015    2.4789102273
 C    0.7715193442    0.0115794100    3.4095866685
 C    2.3104175925   -0.0523052146    3.1261555379
 O    2.5511264364   -0.9861177462    2.0704426324
 C    2.0905284899    0.3229404612    1.7280701855
 C    2.8677602995    1.1293454491    0.7403618565
 H   -1.6531977153    1.8117011916    3.1076345012
 H   -2.3373625700    2.3586872793    1.5723625090
 H   -2.3542146714    0.6436289843    1.9727336173
 H   -0.5374830312    1.1524662971    0.3118386318
 H    0.1136440150    2.3865874940    1.3719154248
 H   -0.8970916492   -0.8726453451    2.6854025463
 H    0.3014197023    0.3430908102    4.3262331057
 H    3.1190377626    0.1608077432    3.8157543788
 H    2.6785618172    0.7837426558   -0.2823990345
 H    2.5973078161    2.1889029588    0.7926123759
 H    3.9385344871    1.0333655848    0.9390483269