27

 C   -0.0494226090    1.5905222833   -0.1536993236
 C    0.0197444118    0.0705683848    0.0220721994
 C   -1.3647843255   -0.5891082002    0.0375764431
 C   -1.3601108427   -2.1265518677    0.1291876791
 C   -0.7766826391   -2.6350095321    1.4560544290
 C   -2.7672159789   -2.6844700614   -0.0866375489
 C   -3.4623551559   -2.4950630697   -1.4672246953
 C   -4.0373414282   -3.9303414658   -1.3346584257
 C   -2.9613265646   -4.2204044289   -0.2547296809
 H    0.9492622513    2.0385826629   -0.1649999210
 H   -0.5458541228    1.8587549211   -1.0931133536
 H   -0.6140822435    2.0576751575    0.6610800313
 H    0.6173856825   -0.3646903138   -0.7903098483
 H    0.5561620656   -0.1592078822    0.9503738944
 H   -1.9505270343   -0.1829029100    0.8754947338
 H   -1.9000962864   -0.2929775269   -0.8744987196
 H   -0.7287217428   -2.5089054218   -0.6886516639
 H   -0.8076628966   -3.7280910234    1.5064194935
 H    0.2650334174   -2.3300611257    1.5901979042
 H   -1.3499657188   -2.2470112632    2.3070681833
 H   -3.4277763375   -2.3173176435    0.7103474146
 H   -4.1691925073   -1.6692753103   -1.5799750240
 H   -2.7236014916   -2.4308783813   -2.2737995288
 H   -5.0454758237   -3.9248530865   -0.9099831534
 H   -4.0436521360   -4.5596658390   -2.2278338420
 H   -2.0691630356   -4.6844166782   -0.6898773907
 H   -3.2598454378   -4.8012091182    0.6215647340