16

 O   -0.0666969354    1.4011848983    0.0259659098
 C   -0.0370914019   -0.0121524401    0.1606801772
 C   -1.4092665637   -0.5501936847   -0.2303907915
 C   -1.4924684915   -2.0584961481   -0.1451754182
 C   -1.7925712088   -2.7355140839    1.1710368959
 C   -2.8192338724   -2.7416263361    0.0645545886
 H    0.7950463864    1.7454156305    0.2774792028
 H    0.7343586184   -0.4584635907   -0.4888667026
 H    0.1965580813   -0.3125304384    1.1945527869
 H   -2.1615332253   -0.0958854753    0.4261583214
 H   -1.6375795035   -0.2104432609   -1.2482952644
 H   -0.7934616201   -2.5833645993   -0.7927519464
 H   -1.2837694997   -3.6634721254    1.4075903838
 H   -1.9833206839   -2.1027182639    2.0320342858
 H   -3.6965177100   -2.1143673780    0.1843953763
 H   -3.0087000798   -3.6735666840   -0.4565106454