13

 C   -0.0564945289    1.5345695620    0.1013482690
 O    1.2672290708    1.9218053279   -0.3013152157
 C    2.1197252130    0.7947580110   -0.6090679621
 C    1.2292637809   -0.3806133014   -0.3706725933
 C    0.0000237758    0.0474585948    0.0309695100
 N   -0.7034725059   -1.0846276119    0.2120609381
 N    0.0734062119   -2.1718098464   -0.0706406600
 N    1.2515220370   -1.7345354176   -0.4255860017
 H   -0.2615120780    1.9178201369    1.1111838577
 H   -0.7942727518    1.9777570790   -0.5827134059
 H    2.4664662948    0.8801806983   -1.6469585985
 H    2.9990367668    0.8203266777    0.0473689072
 H   -1.6549899965   -1.2342433204    0.5059360552