20

 C   -0.1034625561    1.6896364512    0.0286465885
 C    0.0428535538    0.1703487573   -0.0526226261
 C   -1.3467379923   -0.5216090781   -0.1230514613
 C   -2.1714792836   -0.2821850012    1.0586375920
 N   -2.8380410326   -0.0848857608    1.9815712997
 C    0.9280613511   -0.2967821108   -1.2348550420
 C    1.7387982292   -1.4549285685   -0.6355575349
 C    1.9047150121   -0.9844992881    0.8103172261
 O    0.6955851050   -0.3030247577    1.1332957463
 H    0.8819926679    2.1520115844    0.1308063867
 H   -0.5794220241    2.0873269808   -0.8742077101
 H   -0.7076715141    1.9740212008    0.8940117450
 H   -1.8930916016   -0.1683968853   -1.0050389938
 H   -1.2075526492   -1.6018673519   -0.2352048655
 H    0.3403796366   -0.5824193804   -2.1110118335
 H    1.5945436765    0.5173459352   -1.5368267553
 H    1.1715270602   -2.3910234473   -0.6701347443
 H    2.6914440411   -1.6213686376   -1.1437363633
 H    2.0391038960   -1.7984523114    1.5286604696
 H    2.7637332242   -0.3019685307    0.9041385463