18

 C    0.7750800196    0.3097863633   -0.6119213326
 C   -0.4918888752    0.7350056450    0.0874395397
 O   -0.6376113745    1.8090273682    0.6298208488
 C   -1.6426989432   -0.2602438660    0.1333862395
 O   -1.3838058683   -1.5493140590   -0.4542165092
 C   -1.7291512038   -2.2506612358    0.7688571867
 C   -1.9079177035   -0.9224524996    1.4949551604
 C   -1.5073981864   -0.4697253276    2.8412577227
 N   -2.9330265774   -0.6117142521    2.4670208151
 H    1.5033517921    1.1208833547   -0.5853587347
 H    1.1836867659   -0.5851441159   -0.1307630174
 H    0.5561265033    0.0213706910   -1.6454923488
 H   -2.5313696536    0.2206538958   -0.3013864890
 H   -2.6501999786   -2.8352434901    0.6615846465
 H   -0.9150776078   -2.8995002337    1.1113073369
 H   -1.1564103854   -1.1911919742    3.5743149680
 H   -1.0900877052    0.5289001329    2.9311086500
 H   -3.3371023580    0.3028688833    2.2761226476