16

 C    0.3355006076    1.3587520996    0.1885623515
 N    0.0969114590   -0.0694765307    0.1250259952
 N   -0.0488754338   -0.6737963289   -1.0749538397
 N   -0.2597484679   -1.9396461058   -0.8571284136
 C   -0.2508482193   -2.1612847974    0.4835864008
 C   -0.0226903569   -0.9704806622    1.1344539791
 C    0.0743963727   -0.6300303490    2.5937295270
 C    1.3891550668   -0.1320839578    3.0005299044
 C    2.4683416100    0.2840149797    3.3254915340
 H    1.2457967186    1.5671043817    0.7551016237
 H    0.4425120760    1.7103403080   -0.8372335548
 H   -0.5071427367    1.8729814991    0.6614375789
 H   -0.4025177693   -3.1438825868    0.9015664606
 H   -0.6915692817    0.1104043002    2.8634285623
 H   -0.1678518291   -1.5320488417    3.1662671617
 H    3.4248164742    0.6394944021    3.6204657286