22

 C    0.3198477740    1.5088753212    0.2127877794
 C    0.1635818428   -0.0223515640    0.1958085842
 C    0.7880510841   -0.6220271832    1.4735790206
 C   -1.3267481228   -0.4322737952    0.0480976193
 C   -2.2582764604   -0.0311003073    1.1882687553
 O   -3.5689857374   -0.4205665375    0.7987151844
 C    0.8820327887   -0.7000136734   -0.9979025848
 N    1.4086858233    0.1104471573   -1.9596605365
 O    0.9649534099   -1.9124422472   -1.0743324816
 H    1.3748656130    1.8033694766    0.2113129551
 H   -0.1796406666    1.9835488902   -0.6399953316
 H   -0.1257197914    1.9327274880    1.1169547057
 H    0.3021538255   -0.2309634389    2.3720172964
 H    0.7003357005   -1.7098518666    1.4625716765
 H    1.8523353013   -0.3711629067    1.5378950476
 H   -1.7299348375    0.0043428330   -0.8745310916
 H   -1.3736799278   -1.5180641199   -0.0729064120
 H   -1.9615116497   -0.5324183262    2.1213384928
 H   -2.2127378877    1.0543781439    1.3697076591
 H   -4.1668971479   -0.2288573425    1.5269112535
 H    1.3200784639    1.1092131047   -1.9494766327
 H    1.8333882022   -0.3331210964   -2.7576203193