17

 C   -0.0979526854    1.4993696660    0.0061650946
 C    0.1114216838    0.0178370858    0.0176332032
 N   -0.7705896783   -0.9095179176    0.7576473982
 C    0.6821613725   -0.9249437153    1.0314105673
 C    1.3436286698   -1.7919054956   -0.0721612412
 C    0.7619956902   -0.8249717440   -1.1205089796
 O   -0.0457102944   -1.8938399358   -1.6889385685
 C    0.4493304675   -2.8096248322   -0.7645865643
 N    0.2353915586   -4.0364743319   -0.6432368923
 H    0.7848190425    2.0214504182   -0.3782345175
 H   -0.9501961587    1.7709678081   -0.6276226379
 H   -0.2954706553    1.8758934937    1.0156502947
 H   -1.2145621830   -0.3684544417    1.4992971328
 H    1.0709573707   -0.7427042242    2.0252849983
 H    2.4045848964   -2.0075726916    0.0257558023
 H    1.3464972488   -0.2930061718   -1.8705840646
 H   -0.4428059156   -4.3657910999   -1.3325227555