19

 C   -0.1426363463    1.5544124667   -0.0193494751
 C    0.0419770970    0.0282796751   -0.0004033840
 C    0.8743851417   -0.5135041239   -1.1935521989
 C    1.3495397348   -1.9144617955   -0.7534961187
 C    1.3476145628   -1.8950699756    0.8049679552
 C    0.8695215764   -0.4841859229    1.2090018155
 C   -1.2800590789   -0.6189521117    0.0048044518
 N   -2.3183371719   -1.1282456785    0.0088506106
 H    0.8373531452    2.0413926270   -0.0233831948
 H   -0.6913630972    1.8756210185   -0.9090547826
 H   -0.6947775827    1.8971679961    0.8601460030
 H    0.3118620620   -0.5197468664   -2.1302103327
 H    1.7276977795    0.1615351195   -1.3260293301
 H    0.6629141275   -2.6807948600   -1.1227379927
 H    2.3345205456   -2.1467253651   -1.1658364218
 H    0.6613968173   -2.6531355421    1.1915824454
 H    2.3320072945   -2.1153501830    1.2252225354
 H    1.7217968171    0.1944690251    1.3290024213
 H    0.3028768756   -0.4682972132    2.1430530534