19

 C   -1.5601769654   -0.4505686423   -0.3939206510
 O   -0.1843339312   -0.1582203404   -0.1630741398
 C    0.7043971433   -0.6943353806   -1.0998368775
 C    0.6348125939   -0.0201302439   -2.4549574484
 O    0.8428646966    1.3742831142   -2.3369579128
 C    2.0242703984   -1.0923160020   -0.5357445173
 C    1.0621704499   -2.1793281388   -1.0236483569
 C    0.4347406535   -3.0548905394   -0.0796584263
 C   -0.0817036098   -3.8142954143    0.6979579468
 H   -1.9384231751    0.0377523150   -1.3015252648
 H   -1.7292152766   -1.5297593105   -0.4650718177
 H   -2.1042051233   -0.0570816402    0.4672345941
 H    1.4180968001   -0.4154668388   -3.1096720981
 H   -0.3317053434   -0.2394226138   -2.9373458558
 H    0.3733551975    1.6491196326   -1.5400908928
 H    2.9193641203   -0.9067105046   -1.1181056994
 H    2.1348373932   -1.0053515665    0.5381563595
 H    1.3126467188   -2.6434414165   -1.9743332867
 H   -0.5374437006   -4.4775143990    1.3904400747