17

 O    0.0799497509    1.2893059806    0.1403519262
 C    0.0323681994   -0.1103715863   -0.0044866308
 C   -1.4430740504   -0.5794415109   -0.1072880955
 C   -1.3580741073   -0.2871562750   -1.6355230621
 C    0.1483436858   -0.5908121941   -1.4815219397
 O    0.3963460012   -2.0066932045   -1.5141397939
 C   -0.3976891142   -2.8052891779   -0.7458825314
 O   -0.2324789920   -3.9920601014   -0.7515858562
 C   -1.4670394188   -2.0950115763    0.0909156170
 H    0.9917951846    1.5755049487    0.0213267740
 H    0.6774538748   -0.6272429162    0.7201449516
 H   -2.1801767120   -0.0531801083    0.5011205410
 H   -1.9264585702   -0.9192732316   -2.3218436208
 H   -1.5254126061    0.7664386729   -1.8573481875
 H    0.8845370314   -0.1375039662   -2.1466663408
 H   -1.2953557552   -2.3760906193    1.1358226300
 H   -2.4338902417   -2.5244060140   -0.1921490112