17

 C   -0.0492480583    1.5502723112    0.0452667435
 C   -0.0812568031    0.0514229000   -0.0202972386
 C    0.4177008312   -0.7385447700   -1.2715220301
 C   -0.4868251652   -1.8705450056   -0.7882744773
 C   -0.8888035390   -3.0465965321   -1.4738914744
 N   -1.2086976356   -4.0118853930   -2.0295602049
 C   -0.4423901710   -1.7850712944    0.7879943363
 N    0.4504445031   -0.7062057554    1.1621004831
 C   -1.3498614807   -0.9001721132    0.0199284520
 H    0.9860141106    1.9107255447    0.0374479558
 H   -0.5651028566    1.9899021307   -0.8138358521
 H   -0.5242326399    1.9069848745    0.9630065667
 H    0.0409393862   -0.3048545372   -2.2008244427
 H    1.4951024396   -0.9232199430   -1.3526099195
 H   -0.6549423549   -2.6508456894    1.4012356347
 H    1.4447820770   -0.9300487250    1.0906079912
 H   -2.4175662133   -0.7395072330    0.0307873764