18

 C   -0.1140003108    1.5386140274    0.0272874069
 C    0.0499270625    0.0160718360    0.0102513421
 N    0.6941674093   -0.4785386867   -1.1942339104
 C    0.0440914017   -0.8384303588   -2.3777175902
 C    1.0108809978   -1.1651119538   -3.2912194409
 O    0.7534534423   -1.5891019060   -4.5648920775
 C    2.2917489043   -0.9954644496   -2.6799195422
 C    2.0348439189   -0.5678257574   -1.3944721533
 O    2.8540034717   -0.2312699899   -0.3612756641
 H    0.8622606903    2.0299190805   -0.0067316233
 H   -0.6999430339    1.8763606040   -0.8324048928
 H   -0.6268922530    1.8550805656    0.9413070695
 H    0.6450351957   -0.3085303494    0.8680990413
 H   -0.9250359149   -0.4754660373    0.0847286499
 H   -1.0296788488   -0.8464228965   -2.4453437475
 H    1.5926071592   -1.7479589448   -5.0051059589
 H    3.2614059133   -1.1708614382   -3.1215707308
 H    3.7597508443   -0.4204373950   -0.6223236379