20

 C   -0.0273069337    1.5350777796    0.0096024706
 C   -0.0097303217    0.0254935422   -0.0226710926
 C    0.0031222192   -0.7169567279   -1.3576048613
 C   -0.7441358507   -1.8435920640   -0.5841923861
 C    0.3259387643   -2.7211217824    0.0108385826
 C    1.1524624794   -2.0894617538    0.8477866434
 C    0.7206585438   -0.6896155307    1.1978286630
 C   -0.7316951330   -0.8622305870    1.7524804228
 N   -1.2778366800   -0.7501086835    0.3748278897
 H    0.9344883939    1.9322222522   -0.3362703758
 H   -0.8143597869    1.9247148666   -0.6434551771
 H   -0.2004084029    1.9213902634    1.0194833837
 H   -0.6570426808   -0.2024842159   -2.0613286552
 H    0.9492274237   -0.9762360276   -1.8353061638
 H   -1.5445077939   -2.3849960359   -1.0890538937
 H    0.4281671163   -3.7572996484   -0.2924386804
 H    2.0011263337   -2.5530672295    1.3388018979
 H    1.4542010736   -0.1125360011    1.7645269393
 H   -0.9504016078   -1.7837968111    2.2975722980
 H   -1.0856455864    0.0007983948    2.3242170450