23

 C   -0.0449583555    1.3122972004   -0.1776363991
 O   -0.0397470045   -0.0368081831    0.2226565003
 C   -1.3056021233   -0.6598905924    0.1394583071
 C   -1.7391870817   -1.0602805595   -1.3122644289
 C   -1.7985707218   -2.5955561821   -1.1465678830
 C   -2.1902475357   -3.4191953886   -2.3513860023
 C   -2.5394388502   -2.7095209846    0.2250344635
 C   -1.2370070498   -2.0577239819    0.7666982275
 C   -0.4938094262   -2.8671921209   -0.3321007725
 H    0.9687308866    1.6972760075   -0.0404124735
 H   -0.3265500334    1.4348536149   -1.2347329670
 H   -0.7383302709    1.9142621164    0.4316288250
 H   -2.0570886875   -0.0246216613    0.6337027661
 H   -2.7052327212   -0.6374449914   -1.6068239094
 H   -0.9886965693   -0.7488871968   -2.0459308200
 H   -1.4837604682   -3.2738527829   -3.1771270910
 H   -2.2106874090   -4.4883401011   -2.1140778003
 H   -3.1855043533   -3.1394495656   -2.7167624907
 H   -3.4851822126   -2.1705286062    0.3488892257
 H   -2.6530822007   -3.7455306712    0.5541879367
 H   -0.9530897018   -2.1026991874    1.8176562044
 H   -0.3853435967   -3.9224383096   -0.0687145641
 H    0.4492812666   -2.4661719126   -0.7102579645