16

 C    0.0696437630    1.5202012063    0.0045334439
 C    0.0217994903    0.0035115873   -0.0063822794
 O    0.7284163184   -0.4840673965   -1.1288412885
 C    1.2835570533   -1.7349244074   -0.7452414276
 C    1.4496801286   -1.6067467324    0.7539928196
 N    2.1261514619   -2.3615620627    1.4993273294
 O    0.7349920952   -0.5082125284    1.1422397995
 C   -1.3567683731   -0.5204105199    0.0233215827
 C   -2.4812460428   -0.9420210500    0.0302549530
 H    1.1132106535    1.8411491514    0.0070845213
 H   -0.4288951842    1.9056313016   -0.8872675204
 H   -0.4382966127    1.9045440527    0.8910296044
 H    0.6135060066   -2.5708759967   -0.9884752172
 H    2.2363616943   -1.8765242767   -1.2566194389
 H    2.0585487627   -2.0719008635    2.4758671706
 H   -3.4752937953   -1.3176061351    0.0391552477