18

 C   -0.1406335127    1.4596189410    0.0075965894
 C   -0.0283044837   -0.0789632710    0.0080004302
 N    0.6639043069   -0.6540725654   -1.1517919381
 C    0.6544161381   -0.5498579602    1.2574437615
 N    0.1352229278   -1.1037235575    2.3092659745
 C    1.2367933749   -1.2758043710    3.1254813468
 C    1.1602309009   -1.8940955331    4.4780069352
 N    2.3616953351   -0.8539884296    2.6105671976
 O    1.9763764157   -0.3591141588    1.3531885843
 H    0.8529528730    1.9188313469    0.0106503751
 H   -0.6719500306    1.7901417013   -0.8904169768
 H   -0.6905443138    1.8210232841    0.8825355726
 H   -1.0338521658   -0.5086649997    0.0435900362
 H    0.1994504653   -0.3482278655   -2.0018533457
 H    1.6136689737   -0.2941603399   -1.1957720375
 H    0.7636520829   -2.9112267776    4.4060144182
 H    2.1487044115   -1.9249904218    4.9383279303
 H    0.4812996507   -1.3224477922    5.1177938264