14

 O    0.0077340223   -0.0499316371   -0.0848074933
 C   -0.0189219180    1.1555107936    0.0016370086
 C   -1.3017972177    1.9735382882    0.0346600072
 O   -1.4283974576    2.8005488676    1.1856603019
 C   -0.8126636186    4.0224687637    1.2170570121
 O   -1.2649860024    4.8809393179    1.9277117097
 C    0.4253205384    4.2081089368    0.4429626606
 C    1.2945607179    3.2727393769    0.0186603922
 N    1.1530744935    1.8995394076    0.0067391125
 H   -1.3726054180    2.5720027436   -0.8835548444
 H   -2.1317449624    1.2688461070    0.0685206576
 H    0.7365535475    5.2426974437    0.3769935408
 H    2.2574293054    3.5971172051   -0.3646715463
 H    1.9820427196    1.3400137653   -0.1400503193