12

 O    0.0464159029    1.3268064216    0.0073741771
 C   -0.0517845988   -0.0038844992    0.0011561731
 C   -1.2411278201   -0.6652098009    0.0043758758
 C   -1.1754159345   -2.0798518081   -0.0031108438
 C    0.0085266775   -2.7572552118   -0.0130831682
 C    1.2646842493   -2.0662881688   -0.0167036634
 O    2.3882791949   -2.4773510970   -0.0247888969
 O    1.1233838957   -0.6201434679   -0.0084904507
 H    0.9859643726    1.5561891387    0.0033403529
 H   -2.1692142502   -0.1143966656    0.0123066684
 H   -2.1048694973   -2.6410775203   -0.0007467277
 H    0.0606865981   -3.8373899506   -0.0187276067