17

 O   -0.0879255143    1.3906858608    0.2588155113
 C    0.0262327054   -0.0068167621    0.0522720999
 C   -1.3846982143   -0.5822262652    0.0401042491
 C   -1.3893460759   -2.0988627899   -0.1631617898
 O   -0.7680500430   -2.8180246724    0.8987046335
 C   -1.7910834314   -3.3597423523    1.6996399071
 O   -2.9656492043   -3.4422067776    0.8992193624
 C   -2.8081025398   -2.6610835649   -0.2035910729
 O   -3.6629669409   -2.4772379670   -1.0159293821
 H    0.7977260492    1.7611231233    0.3134514625
 H    0.5236863793   -0.2335136778   -0.9057014244
 H    0.6112431652   -0.4892085552    0.8490696540
 H   -1.8840134386   -0.3262111940    0.9817997377
 H   -1.9650312111   -0.1249930086   -0.7683211917
 H   -0.8730614146   -2.3588007270   -1.0942446251
 H   -1.5055077720   -4.3655001020    2.0206330175
 H   -2.0079072187   -2.7272200384    2.5731216808