17

 O   -0.0867583087   -0.0675524844    0.0739151752
 C   -0.0740234815    1.1255285046    0.0610782920
 C   -1.1550565111    2.2271705567    0.1743970825
 C   -0.0441128218    3.1521152540    0.7221072402
 O   -0.0357102051    3.0337703199    2.1352404143
 C    1.2775962318    3.1098364202    2.6802510063
 C    2.1325039982    1.9670249761    2.1533869886
 O    2.2635937969    2.0525074615    0.7347848826
 C    1.0377313766    2.2170501092    0.0953970433
 H   -1.5386341220    2.5378223779   -0.8019059902
 H   -1.9833988511    2.0259561378    0.8544661870
 H   -0.0391216018    4.2029563990    0.4107290296
 H    1.7464824036    4.0751395721    2.4325449687
 H    1.1659023688    3.0429495023    3.7660669503
 H    3.1477062127    2.0151329652    2.5563161137
 H    1.6805975333    1.0059317413    2.4375090541
 H    1.2449714210    2.5159982064   -0.9396792281