20

 C   -0.1380992353    1.5666937583    0.0376743088
 C    0.0006508011    0.0473747241    0.0042661635
 C    0.9385332067   -0.5004900592   -1.0929023337
 C    2.3331665723   -0.0105348650   -0.6702934231
 C    2.2716482752   -0.2888591379    0.7891742611
 C    0.7980876021   -0.5950765549    1.1757098631
 C    0.7025179445   -2.0930342487    0.7998172423
 C    1.4069098854   -1.9089548005   -0.5435362247
 N    2.7629510712   -1.3454383263   -0.1591712603
 H    0.8372517173    2.0560563334    0.1243955389
 H   -0.6194489181    1.9385433236   -0.8732724056
 H   -0.7483972995    1.8858101894    0.8890976551
 H   -0.9960220914   -0.4066884562   -0.0627113739
 H    0.6304475453   -0.4113968998   -2.1327488828
 H    3.0107601425    0.6724992797   -1.1711451891
 H    3.0051564768    0.0865460480    1.4911909785
 H    0.5074107009   -0.3098792175    2.1863994607
 H    1.2761358851   -2.7510812323    1.4585611897
 H   -0.3278895618   -2.4536914094    0.7301658252
 H    1.4767183998   -2.7512922186   -1.2292743536