19

 O    0.1301086071    0.2745815635   -1.1103319540
 C    0.0743649652    1.2145433484   -0.3725818312
 C   -1.0514249745    1.8330781767    0.4790495107
 C   -0.1128819166    3.0514437400    0.7575161840
 C    0.3446225327    3.3549916431    2.2017695990
 C    1.6506701297    2.5963951745    2.4193047777
 C    1.6427971117    1.0990372560    2.2660434860
 C    2.0875802474    1.9651996383    1.1082972523
 C    1.0720700684    2.3226178637    0.0266278859
 H   -1.9688028282    2.0404355932   -0.0795529028
 H   -1.3193273572    1.2371318526    1.3579947654
 H   -0.4657995150    3.9497633207    0.2488538870
 H    0.5304219082    4.4286047841    2.3130716826
 H   -0.4240179345    3.0903753144    2.9376235935
 H    2.3829077036    3.0317832667    3.0910445176
 H    2.4175882716    0.5408410096    2.7805308075
 H    0.6963317317    0.5714581090    2.2152654782
 H    3.1319015815    1.9228526585    0.8229201402
 H    1.5484789170    2.8302230670   -0.8159849697