13

 O   -0.1920605253    0.2517761128    0.5147275144
 C   -0.0368458916    1.3276083807    0.0096140196
 C    1.3627085626    1.9681584882   -0.1190984568
 C    1.4332476515    2.8552876957   -1.2759176366
 N    1.4696175269    3.5441161031   -2.2026059505
 C    1.6734675821    2.6832834712    1.2022171145
 C    2.4282009706    3.9375587977    1.2810180409
 O    1.0030452944    3.9110320406    1.4348743896
 H   -0.8773764245    1.9484055178   -0.3578516600
 H    2.0785640347    1.1470035260   -0.2386786130
 H    1.6885433707    1.9933601557    2.0457010241
 H    2.9893821373    4.1609447550    2.1860899169
 H    2.7850954205    4.4092118356    0.3684908269