17

 C    0.0734998651    1.3421591449   -0.3709120631
 C   -0.0233018336   -0.0693252939    0.1748065304
 O    0.9134301749   -0.6277026173    0.6939102259
 C   -1.3974927997   -0.7646132005    0.1046458377
 C   -2.0289915339   -0.8442422979   -1.3113962242
 N   -1.5683202175   -2.1485677419   -1.7459507556
 C   -1.2753240322   -2.9701604500   -0.6626753997
 O   -1.0292446993   -4.1510678457   -0.7002856943
 N   -1.3256642778   -2.1617543892    0.4798974838
 H    0.2679042757    1.3017425480   -1.4491101287
 H   -0.8548880579    1.9031183855   -0.2265291821
 H    0.9070278586    1.8604642553    0.1050986268
 H   -2.0584865811   -0.1959607957    0.7736801535
 H   -3.1236927130   -0.7817295513   -1.2395044464
 H   -1.6861452926   -0.0437161343   -1.9725836922
 H   -1.9497590144   -2.5903063956   -2.5671075900
 H   -0.6464829914   -2.4003968405    1.1902855682