18

 C   -0.3008957614    1.4462176752    0.0556239998
 C    0.1319614024   -0.0024263150   -0.0366340514
 O    1.3644334401   -0.1683664439   -0.7941130885
 C    2.0273943683   -0.8223781145    0.3073929553
 C    0.7905899598   -0.6589258067    1.1784997508
 C    0.6725448744   -0.2798397346    2.6299804668
 C    0.1600987884   -1.6131288553    2.1296013267
 O   -1.2157339871   -1.8032824625    1.9676998064
 H    0.4782670466    2.0604789554    0.5164127159
 H   -0.5076933260    1.8399193384   -0.9445194508
 H   -1.2167841571    1.5320499707    0.6503881392
 H   -0.6701247925   -0.6145599608   -0.4691418578
 H    2.3073113882   -1.8574945685    0.0680025934
 H    2.9228315300   -0.2757695114    0.6321421395
 H    1.5714772228   -0.2635410988    3.2392689830
 H   -0.0704963678    0.4680688188    2.8896103435
 H    0.7230801603   -2.5073570812    2.4022450114
 H   -1.6082651794   -1.9123008855    2.8402297168