15

 O    0.1098823657    0.2115569200    0.4737704663
 C    0.0962163799    1.3627607872    0.1214525946
 N    1.1470998508    1.9845405131   -0.5530098100
 C    2.5289360414    1.8241638660   -0.1697283347
 C    3.3955846237    2.3195021942   -1.3341505324
 C    2.6832590401    3.7155092568   -1.2527018535
 C    1.8431039666    3.1834658628   -0.0760504169
 C    1.3996046100    3.9044973694    1.0722559859
 N    1.0462236774    4.5166188854    1.9888224980
 H   -0.7798451731    2.0282001181    0.2169872482
 H    2.7821389965    1.1422651444    0.6323592733
 H    4.4527486238    2.3816738271   -1.0724764790
 H    3.2780532526    1.7590019278   -2.2628664234
 H    3.3603987575    4.5144915277   -0.9488716154
 H    2.1001652072    4.0305771000   -2.1190074111