14

 O    0.0595190084   -0.0162180708    0.0781885154
 C    0.0000944239    1.1749387358   -0.0092231266
 N   -1.1155089345    1.9768168990   -0.1005507091
 C   -0.8063561384    3.3758651397   -0.0557107664
 C   -0.0446465020    3.8401366715    1.1909948645
 C    0.7134727871    3.3421663779   -0.0033338388
 O    1.1127795749    1.9957288384   -0.0262516157
 C   -1.5851654964    4.2756681536   -0.8489080238
 C   -2.2562492933    5.0391925054   -1.4906194806
 H   -2.0249320907    1.5967821403    0.1005627965
 H   -0.0151905695    4.9093400748    1.3661193301
 H   -0.1010788908    3.2128429677    2.0737709338
 H    1.3418103757    3.9900134308   -0.5995794882
 H   -2.8437727243    5.7085158560   -2.0694167310