13

 O   -0.1415773990    0.4282885772   -0.3297869222
 C    0.0387481580    1.5848382376   -0.0633942959
 N    1.2145493654    2.0623164308    0.5336956313
 C    2.5316333488    1.6624616599    0.1539901228
 C    2.0717369114    3.1149293888    0.0446639254
 C    1.8842471233    3.6379957426   -1.3430645823
 O    1.1796735747    3.1330794745   -2.1820000558
 C    2.6657182703    4.8541294851   -1.6386139088
 N    3.2860104213    5.8060373785   -1.8528513366
 H   -0.7238232412    2.3754339202   -0.1596923340
 H    3.2204483681    1.4071905118    0.9534798558
 H    2.6359252180    1.1063333929   -0.7742773296
 H    2.4312449810    3.8353192201    0.7747276798