23

 C    0.0191823026    1.4234450023   -0.0954849026
 O    0.0179108172    0.0181568297   -0.1480325653
 C   -1.2668672172   -0.5376690969    0.0236254326
 C   -1.1561097402   -2.0544719893   -0.0557537955
 C   -2.5057279467   -2.7572292902    0.1184235790
 C   -2.3984214810   -4.2839339064    0.0359219673
 C   -3.7558812982   -4.9891660474    0.2011206671
 C   -3.6117592906   -6.4931391515    0.2229588760
 O   -4.1781141328   -7.2560589153   -0.5161804454
 H    1.0499703634    1.7567696324   -0.2390280893
 H   -0.6095294920    1.8641825831   -0.8860177542
 H   -0.3429431686    1.7983205502    0.8755320254
 H   -1.6901748292   -0.2332727334    0.9976491814
 H   -1.9553794662   -0.1614435173   -0.7539998037
 H   -0.7139083597   -2.3210315114   -1.0233109477
 H   -0.4515743057   -2.3935551795    0.7133929796
 H   -2.9458848763   -2.4789558614    1.0860045703
 H   -3.2081526147   -2.4027448542   -0.6479270097
 H   -1.9582047204   -4.5683173313   -0.9281934365
 H   -1.7042694708   -4.6427349858    0.8077107979
 H   -4.2015489744   -4.6874144293    1.1608441032
 H   -4.4530932177   -4.7159566423   -0.5965205345
 H   -2.9064749408   -6.8707469150    1.0019416346