15

 N    0.0106167405    1.3212030844    0.1190051780
 C   -0.0267492641   -0.0382956383    0.0013774954
 N   -1.0892910600   -0.7380623733   -0.1275268819
 C   -0.7499928050   -2.1617795118   -0.0513376841
 C    0.7726417002   -2.2602039273    0.0095669689
 N    1.4264000062   -1.6591605222   -1.1591252300
 C    1.2510601839   -0.8435368078    0.0849920568
 C    2.3962395037   -0.3973509908    0.8179071967
 N    3.3249704791   -0.0025172227    1.3847775480
 H    0.8465466259    1.7987632622   -0.1781249264
 H   -0.8555058347    1.7970803929   -0.0851723211
 H   -1.2048192209   -2.6098675765    0.8410461896
 H   -1.1449039238   -2.6927985093   -0.9246432713
 H    1.2760610543   -3.0531823570    0.5515996493
 H    2.3951669449   -1.9752469724   -1.1977632578