19

 C    0.0452827438    1.5875348373   -0.0083423303
 C    0.0289193671    0.0742006173    0.0285597261
 C    0.6168858116   -0.6840593283   -1.1457929049
 C    1.3231539503   -0.6727892408    0.2003147145
 C    1.2548881375   -2.1710640873    0.5541285466
 O   -0.0854099245   -2.5517362366    0.8888341912
 C   -0.7448827695   -2.6894292160   -0.3861743018
 C    0.3483476481   -2.1902904196   -1.3413011689
 O    1.4927099190   -2.8024555527   -0.6922313579
 H    0.9405062818    1.9649917477   -0.5137980098
 H   -0.8281336571    1.9779756449   -0.5415018916
 H    0.0336258815    2.0042225794    1.0043586077
 H   -0.8307610593   -0.3543335652    0.5317045572
 H    1.0007970165   -0.1215613840   -1.9894549234
 H    2.2554744247   -0.1430284945    0.3638203532
 H    1.9410603513   -2.5328989014    1.3183536480
 H   -0.9875722437   -3.7421816444   -0.5676804856
 H   -1.6613370850   -2.0923523689   -0.4045612969
 H    0.2762196561   -2.5279117366   -2.3732290133