20

 C    0.1159981733    1.5883855421   -0.0377196203
 C   -0.0461824940    0.0615225953    0.0007076693
 C   -1.4751372520   -0.3988295815    0.0172743481
 N   -1.9184648234   -1.6967214365   -0.5559861395
 C   -2.5212139739   -0.4150114260   -1.0260222214
 C   -3.6082745570    0.0361666212   -0.0099233614
 C   -3.7216492695   -0.9219247443    1.1630965471
 C   -2.5622070418    0.0322026567    1.0799181664
 O   -2.3242650456    1.0216730869    2.0207206874
 H    1.1750646042    1.8643650178   -0.0413122631
 H   -0.3447336942    2.0050703925   -0.9392259907
 H   -0.3623268772    2.0511048292    0.8278725915
 H    0.4481815689   -0.3825339096   -0.8737836961
 H    0.4749608704   -0.3437146078    0.8791309967
 H   -1.2212031125   -1.9686877975   -1.2500592859
 H   -2.4745594493   -0.1294917844   -2.0694199686
 H   -4.3624632801    0.7801250004   -0.2283319633
 H   -4.4668748812   -0.6117640621    1.8900585172
 H   -3.6014468690   -1.9891278042    1.0300619848
 H   -2.0660568862    0.5944017519    2.8452186120