18

 C    0.9504364355    1.2591838027   -0.3215339238
 C    0.0945724663    0.0327527227   -0.0291954634
 C    0.1378543161   -1.0655230997   -1.1096433899
 C    1.2577368736   -2.0104459749   -0.6126914532
 C    2.5729282689   -1.7089039026   -1.1690115739
 C    3.6476288094   -1.4608591030   -1.6463861666
 C    1.2185947907   -1.7817510484    0.9019242033
 N    1.7041831472   -2.5674736036    1.7590290735
 O    0.5658206892   -0.6198946058    1.1746466740
 H    1.9766849582    0.9719149078   -0.5656875535
 H    0.5342849499    1.8131691887   -1.1692489573
 H    0.9687936475    1.9222143664    0.5476384181
 H   -0.9339130951    0.3409625526    0.1813509414
 H   -0.8103453355   -1.6092995067   -1.1303400593
 H    0.3296671796   -0.6668669791   -2.1062362965
 H    1.0228566804   -3.0595707352   -0.8099455002
 H    4.6050656532   -1.2526502053   -2.0559807311
 H    1.5590613948   -2.2042498666    2.7026927084