23

 C   -3.5144715501    1.7878922130    1.3650380585
 C   -2.9793564968    0.4892553498    0.7543259784
 C   -3.0456954845   -0.7339455502    1.6910163124
 C   -4.4828081987   -1.1545822142    2.0331494103
 C   -2.3161000078   -1.8945418505    1.0434839702
 O   -0.8876927361   -1.8277238206    0.9588082172
 C   -1.4774147084   -2.8908143023    1.7316980337
 C   -1.1299676778   -2.8833129814    3.1995576344
 O    0.2308902426   -3.2341520755    3.3929176575
 H   -3.3798256075    2.6257052744    0.6740183273
 H   -4.5819602291    1.7256532133    1.5981713345
 H   -2.9852899200    2.0355703301    2.2922346975
 H   -3.5283458393    0.2619652131   -0.1701035625
 H   -1.9325276308    0.6321912827    0.4627532743
 H   -2.5240964742   -0.4696912731    2.6181251198
 H   -4.4937812839   -2.0208781561    2.7023577397
 H   -5.0289033493   -0.3469008538    2.5270319306
 H   -5.0381578987   -1.4265001950    1.1275895751
 H   -2.7826301904   -2.2309775963    0.1123551654
 H   -1.3729936080   -3.8716031719    1.2633900556
 H   -1.3572906472   -1.9068014770    3.6475798250
 H   -1.7203540560   -3.6412865679    3.7261588487
 H    0.7502702822   -2.6152991205    2.8667414864