17

 C   -0.4658268062    1.2445663702   -0.2548628865
 N   -0.1515369807   -0.1562121830   -0.0600298687
 C    0.7458739162   -0.6651590666   -0.7963052548
 N    1.2535020263   -1.9453167612   -0.5970117408
 C    0.3750897314   -3.0247638604    0.0046806513
 C   -0.3081876742   -3.2004129979   -1.3968081835
 C    1.2077653226   -2.9878965218   -1.7105082839
 C    1.4499028854   -3.9926830443   -0.5522647481
 O    2.0493149891   -4.9790283558   -0.2863639169
 H    0.0864066554    1.7138238898   -1.0853364697
 H   -1.5394988519    1.3584385144   -0.4440089523
 H   -0.2457924504    1.8047027714    0.6618665532
 H    1.2751674590   -0.1196494299   -1.5922218129
 H   -0.0778082398   -2.9201792298    0.9850510730
 H   -0.7572192774   -4.1667743079   -1.6393537165
 H   -0.9449865638   -2.3598102633   -1.6697465708
 H    1.7129881888   -2.8473220140   -2.6633513921