19

 C   -0.0323547981    1.5009870754   -0.2774069787
 C    1.2814562286    0.8029995633   -0.0273007195
 O    2.0064771008    0.9648201994    1.1681143184
 C    1.5454669354    0.2634933473    2.3259707347
 C    0.3448432818    0.9682206154    2.9662288002
 O   -0.8019051563    0.4849460039    2.2538693363
 C   -0.3805652704   -0.5433633690    1.3460186710
 C    0.9091024093   -1.0892852859    1.9741173604
 C    0.0041279041    0.0097115007   -0.0309788460
 H   -0.4571067474    2.1058469706    0.5145934376
 H   -0.2298318943    1.8531239707   -1.2840542614
 H    1.9653010770    0.7058116617   -0.8647104848
 H    2.4062599666    0.2025230506    2.9949114421
 H    0.2526013638    0.7121727355    4.0306623836
 H    0.4181768197    2.0556715515    2.8662582759
 H   -1.1994207518   -1.2620391147    1.2713025546
 H    1.5123235484   -1.6851521440    1.2870173034
 H    0.7117729075   -1.6637012181    2.8836787640
 H   -0.1768910447   -0.6672045943   -0.8604513018