17

 O   -0.6834494269    0.2836849404   -0.3967680553
 C   -0.3767194158    1.4197427808   -0.2027127805
 O    0.8684316288    1.7888171584    0.1621587004
 C    1.1414157403    3.1670944502    0.3293782680
 C    2.1665889933    3.5120112368    1.4209847235
 C    2.7478012379    4.5949168386    0.4724461891
 C    2.0509459810    3.8768582158   -0.7376750916
 C    2.9164295145    2.9841471466   -1.4809462012
 C    3.6404790838    2.2469947867   -2.0950437243
 H   -1.0704190968    2.2797562651   -0.2885358579
 H    0.2049480699    3.7244731782    0.4491141521
 H    1.7843407434    3.8196682078    2.3957749367
 H    2.8636107312    2.6810377189    1.5500870358
 H    2.3167911185    5.5833079926    0.6465990269
 H    3.8323593176    4.6790533206    0.4167134503
 H    1.5097213267    4.5332650846   -1.4256948849
 H    4.2717924226    1.5892370779   -2.6395474072