23

 C   -0.1565956343    1.5571820684   -0.0226052554
 C    0.0194782314    0.0433495242   -0.0045605615
 C    1.1481966439   -0.6101372477   -0.8493262444
 C    2.1346978873   -0.2134020993    0.2703328677
 C    0.8922377095   -0.5894195003    1.1444780700
 C    0.7533639255   -2.0989333973    0.8163876599
 C    1.8368202436   -2.9968750568    1.4230120777
 C   -0.6145784056   -2.7115780603    1.1342427186
 O    0.9388979399   -2.0175651938   -0.6354410153
 H    0.7697427409    2.1117578173    0.1464062901
 H   -0.5646247236    1.8827521883   -0.9860807681
 H   -0.8676561701    1.8652903919    0.7519647966
 H   -0.9542134640   -0.4232629891   -0.1672462847
 H    1.3091678401   -0.4213900371   -1.9107950721
 H    3.0502021601   -0.7972525723    0.3627570877
 H    2.3707230571    0.8489057854    0.2972659551
 H    0.7932201827   -0.2939083853    2.1897615353
 H    1.7027886244   -3.0797919446    2.5069797976
 H    1.7614808824   -4.0017362681    0.9960692966
 H    2.8450090734   -2.6297512575    1.2292471595
 H   -1.4459799193   -2.1102845663    0.7647691416
 H   -0.6883093183   -3.7010348264    0.6728027253
 H   -0.7343785870   -2.8342505332    2.2160284021