20

 C   -0.0371257812    1.6589654981   -0.2249217466
 C    0.2584227980    0.2413585143    0.2051072918
 C    0.5832777690   -0.8949596821   -0.6840893248
 C    1.4198903219   -0.4900979037   -1.8954637649
 C    2.4112419491    0.1305511438   -0.8934420216
 N    1.6155117307   -0.3482151004    0.3040793723
 C    3.8046263718   -0.4982537029   -0.8657914049
 C    4.6355811451   -0.1735259561    0.3567870001
 O    4.2030837929   -1.2009876340   -1.7651776899
 H    0.4038085449    1.9210604448   -1.1888742283
 H   -1.1199786157    1.7945256371   -0.3130221249
 H    0.3264368513    2.3734334811    0.5218601119
 H   -0.3060442915   -0.0545671314    1.0884658629
 H    0.1396137561   -1.8760813228   -0.5428938459
 H    1.8758710678   -1.3343816717   -2.4133279471
 H    0.9460032378    0.1670133878   -2.6295242131
 H    2.5371934936    1.2209357019   -0.9160917113
 H    4.0737757138   -0.4390147123    1.2571914554
 H    5.5835998312   -0.7108409877    0.3189311187
 H    4.8264146335    0.9051952663    0.4049002402