16

 O   -0.1150954775    1.3543004625    0.0092562351
 N    0.0363178300   -0.0562682572   -0.0003835918
 C   -1.0821524303   -0.6304323954    0.0067757729
 C   -2.5870940936   -0.4223158161    0.0221210176
 C   -2.6287904918   -1.5561853187   -1.0584445862
 C   -1.5797857808   -2.0729451403    0.0030414184
 C   -2.6086179894   -1.5687089120    1.0899888479
 C   -0.8376666390   -3.2956584722   -0.0110512254
 C   -0.2219504539   -4.3281246384   -0.0228677763
 H    0.8023581663    1.6469825522    0.0023462330
 H   -3.1403676217    0.5110854813    0.0327570690
 H   -3.5565397137   -2.1323414579   -1.0999904357
 H   -2.2401633015   -1.3206344885   -2.0498648432
 H   -2.2014182284   -1.3446884804    2.0766157367
 H   -3.5354864674   -2.1454120300    1.1422287131
 H    0.3276927727   -5.2366613389   -0.0334192651