23

 C   -0.0570433818    1.4698864860   -0.5290406191
 C   -0.0468690911    0.0464992452    0.0346146812
 C   -1.4342923891   -0.6017093548    0.0470047130
 C   -1.4174913595   -2.0348161286    0.6159018042
 C   -2.7333058692   -2.6651094035    0.6345777115
 C   -3.8338289733   -3.1551603075    0.6473928069
 C   -5.1532646354   -3.7744106155    0.6432492738
 C   -5.3074313441   -4.8239789949   -0.4626473668
 O   -6.6221624373   -5.3452007520   -0.3606793336
 H    0.9458304952    1.9081141417   -0.5257455101
 H   -0.4235411676    1.4839663352   -1.5614670295
 H   -0.7086307861    2.1241584748    0.0606479799
 H    0.6396160061   -0.5766551062   -0.5542298295
 H    0.3568145419    0.0590118801    1.0559421790
 H   -2.1260714007    0.0084253939    0.6403036655
 H   -1.8435286472   -0.6273626260   -0.9702584453
 H   -0.7240121974   -2.6496317352    0.0258012445
 H   -1.0051036241   -2.0148532791    1.6340436726
 H   -5.3560473071   -4.2574855515    1.6071281866
 H   -5.9345506876   -3.0160531919    0.5089207885
 H   -5.1306800938   -4.3519513823   -1.4407031136
 H   -4.5467082961   -5.6078010142   -0.3303678930
 H   -6.7376268250   -6.0089029636   -1.0464655066