16

 C   -0.4388227057    1.3684092368   -0.5135106957
 C   -0.2420774814   -0.0581579749   -0.2981283254
 C   -0.0810731755   -1.2347723838   -0.0982439141
 C    0.1290853432   -2.6668015387    0.1263571518
 C   -1.1257819294   -3.3644569536    0.4223256681
 C   -2.1505773721   -3.9456962353    0.6531273264
 C    0.8413681891   -3.3986548683   -1.0632703637
 N    0.5715736400   -2.8797732644   -2.2849973656
 O    1.5352584386   -4.3691342374   -0.8619983562
 H    0.3139404022    1.7765532438   -1.1966363608
 H   -1.4260176380    1.5730724812   -0.9414665820
 H   -0.3646924260    1.9204897026    0.4295433308
 H    0.8171564031   -2.8113561630    0.9681427725
 H   -3.0552900901   -4.4607136591    0.8625569287
 H    0.0795998498   -2.0073146863   -2.3781423486
 H    1.0119369421   -3.2947405796   -3.0891679264