14

 O   -0.0959706780    0.0205458653   -0.2177983039
 C    0.0068175819    1.1921664610    0.0640554899
 C    1.2469817585    1.9262701150    0.0526721276
 C    2.2652062226    2.5753567248    0.0560147051
 C    3.5184837948    3.3172774903    0.0373252252
 C    4.3528891449    3.0898345011   -1.2679300899
 O    4.5405399659    4.4230655063   -1.7907874384
 C    3.8953093240    5.2478687071   -0.9374542695
 N    3.3045723863    4.7862478273    0.0844524300
 H   -0.8734723928    1.7981843917    0.3586396951
 H    4.0954495335    3.0246053495    0.9234545499
 H    5.3339744288    2.6523895651   -1.0736198806
 H    3.8237856409    2.4932406123   -2.0131490023
 H    3.9405395487    6.2965033233   -1.2094668083