17

 C   -0.0817475958    1.6058348796   -0.0859924878
 C    0.0716007039    0.0994846846    0.0312109207
 N    1.0913231020   -0.6191689334   -0.8574641642
 C    2.4192880393    0.0042977866   -0.4526628419
 C    2.2567757932   -0.6270792105    0.9130792655
 C    1.2938657008   -1.6171134099    0.3053762043
 C    0.7335163302   -0.5832373561    1.2200930611
 O    0.2351144570   -0.8010647069    2.4873289905
 H    0.8005819275    2.1527027442    0.2564679984
 H   -0.2806036526    1.8882376765   -1.1254883626
 H   -0.9323206682    1.9387577584    0.5182720872
 H   -0.8893407361   -0.3847513982   -0.1749073237
 H    3.2126972953   -0.4608014445   -1.0447332872
 H    2.4819534704    1.0914441266   -0.5610566833
 H    2.9687965667   -0.7964422459    1.7123951360
 H    1.2361165891   -2.6936456545    0.2389767458
 H    0.4796435772   -0.0550409564    3.0458885111