16

 N   -0.0381241128    1.3021378487   -0.3050427724
 C    0.0105072849    0.0849968392    0.0415398071
 O    1.1729974384   -0.5069995168    0.4362673580
 C    1.1715183057   -1.8891014763    0.8180019211
 C   -0.1869129367   -2.5482062968    0.7309258174
 C   -1.1005694393   -2.2329261313   -0.4817484909
 O   -2.2761867344   -2.5970866278    0.3300072737
 C   -1.4362605552   -1.7646945973    1.2105099355
 C   -1.2157632398   -0.7702834681    0.0349045987
 H    0.8909486457    1.7245675395   -0.2375670330
 H    1.8882374171   -2.4065408986    0.1686498053
 H    1.5562085113   -1.9434554235    1.8437365742
 H   -0.1655385045   -3.5989567459    1.0258894484
 H   -1.0536709430   -2.5950658948   -1.5085546753
 H   -1.7933539823   -1.5633432436    2.2202707285
 H   -2.0949255549   -0.2203433465   -0.2916726261