17

 C    0.0538699214    1.6012153423   -0.1412248073
 C    0.0955861827    0.0918237842    0.0802224337
 C    0.7862006246   -0.3170355770    1.3671000764
 N    1.2789763704    0.5361634379    2.1626042792
 N    0.8016466619   -1.7230330726    1.5285168918
 C    1.3328102766   -2.4209181277    2.6027779839
 N    1.1862372708   -3.7941336390    2.4915847169
 O    1.8429587808   -1.8961402313    3.5741213809
 H    1.0633984071    2.0162527830   -0.1747363562
 H   -0.4546071105    1.8331688318   -1.0817274694
 H   -0.4726629928    2.0987581643    0.6759253229
 H   -0.9243041590   -0.3199819660    0.0901338148
 H    0.6057717710   -0.4036979331   -0.7583947380
 H    1.6913857429    0.0731277343    2.9735357998
 H    0.3000189278   -2.2546598794    0.8343898699
 H    1.1783480478   -4.2119655639    1.5737470738
 H    1.7266313166   -4.3002050678    3.1766865168