23

 C    0.2369262257    1.2751790642   -0.5183643589
 C   -0.0695576522   -0.2076091411   -0.2868994470
 C   -1.4579184751   -0.4460429064    0.3076624278
 C   -2.6370890566   -0.3229264181   -0.7111223099
 C   -2.7236233460   -1.8540888248   -0.7495114484
 C   -3.8498526559   -2.7418974371   -1.1751747435
 C   -2.5626851904   -2.7220810072   -1.9679581816
 C   -1.8364483113   -1.9564316674    0.4999860844
 O   -0.8259505135   -2.9334647608    0.5527822168
 H    1.2323748233    1.4122615591   -0.9521111128
 H   -0.4885563607    1.7324294562   -1.1996290749
 H    0.2026422823    1.8335960783    0.4235164171
 H    0.0226736994   -0.7462508805   -1.2411022663
 H    0.6825115033   -0.6387098730    0.3852759596
 H   -1.5695995015    0.1581643697    1.2138911111
 H   -3.5277364872    0.1474411712   -0.2839354871
 H   -2.4038839854    0.1759130976   -1.6569679488
 H   -4.0604097343   -3.6216493781   -0.5746754821
 H   -4.7277825698   -2.2788763094   -1.6149568780
 H   -2.5634934373   -2.2448814382   -2.9429254488
 H   -1.9156454584   -3.5911377458   -1.8907741397
 H   -2.4277537860   -2.1055009126    1.4093330811
 H   -0.3096163024   -2.8652441057   -0.2575005502