12

 O   -0.0161057829   -0.0256751733    0.0037636280
 C   -0.0377132846    1.1738565502    0.0069387662
 C    1.1329506787    2.0152290413    0.0010264557
 C    2.1748269245    2.6138534587   -0.0046211211
 N   -1.2697744800    1.8970360259    0.0172030856
 N   -1.3170891760    3.2404309760    0.0208850638
 C   -2.6115013846    3.5012899127    0.0304493610
 C   -3.3226543632    2.2763438564    0.0322191506
 N   -2.4584049857    1.2770902419    0.0237897733
 H    3.0884184397    3.1575804201   -0.0095796618
 H   -2.9762000591    4.5164864056    0.0355122937
 H   -4.3855687168    2.0914955346    0.0390397249