20

 C   -0.0599952718    1.5934528192   -0.0225884276
 C    0.0429629966    0.0670424392    0.0242202997
 C    0.7881589764   -0.5560325642   -1.1835313670
 C    1.5376660829   -1.7864933047   -0.6270743309
 C    1.6620406944   -1.4957424289    0.8509615942
 C    2.5483487694   -2.2950930470    1.7461935429
 C    0.8445553741   -0.4849720863    1.1991985453
 C    0.6763414660    0.0015610703    2.5232204154
 N    0.5207005775    0.4191340945    3.5938329612
 H    0.9339976411    2.0504634813   -0.0773355362
 H   -0.6290237038    1.9130964516   -0.9014515010
 H   -0.5631138967    1.9862377595    0.8660808850
 H   -0.9766421677   -0.3413225135    0.0844358469
 H    0.1150351014   -0.8011622426   -2.0086671139
 H    1.5153656633    0.1710994535   -1.5615526373
 H    0.9688816695   -2.7170471404   -0.7702657653
 H    2.5112845448   -1.9500575697   -1.1029422774
 H    3.5927829156   -2.2271349810    1.4173140163
 H    2.4880941198   -1.9621203229    2.7846562965
 H    2.2794138371   -3.3582172980    1.7057251734