17

 O   -0.1686415928    1.4139211820   -0.1465111041
 C   -0.0252004727   -0.0014931634   -0.0118932709
 C    0.7382015105   -0.3701456445    1.2616513086
 C    0.0127607376    0.0723754776    2.5315444219
 O    0.6181478677    0.4111806976    3.5272753277
 C   -1.4632769181    0.0218040359    2.4825034839
 C   -2.1252958673   -0.2620026319    1.3555493716
 C   -1.4612846288   -0.5473355045    0.0276080135
 O   -2.2229126476   -0.0352203323   -1.0480707302
 H    0.6888252506    1.7936608467   -0.3587717185
 H    0.4801335057   -0.4124107216   -0.8965564480
 H    0.8539951421   -1.4624446479    1.3064911149
 H    1.7455159290    0.0569274845    1.2697293602
 H   -1.9758400266    0.2429213446    3.4135352019
 H   -3.2119707009   -0.2920317224    1.3352432218
 H   -1.4216973582   -1.6359435754   -0.1185263886
 H   -1.9926793702    0.9024162449   -1.1001143956