21

 C   -0.7690668633    1.3592946454   -0.3468009639
 O   -0.8407176515   -0.0247611030   -0.5971029092
 C   -0.7003113363   -0.8075484582    0.5692004033
 C   -0.8245394664   -2.2983547564    0.2032053814
 C    0.2679838150   -2.7171908676   -0.7772593096
 O   -0.6606168209   -3.0559797022    1.3927000717
 C   -2.2115200377   -2.5565531949   -0.3806274142
 C   -2.8506191228   -3.8697952320   -0.2791496103
 O   -3.2290934961   -2.7993132899    0.6049870652
 H   -0.8905299115    1.8726183669   -1.3037360085
 H   -1.5641156410    1.6903814555    0.3393269779
 H    0.2010685781    1.6436431625    0.0895825200
 H    0.2785512970   -0.6391601379    1.0451716019
 H   -1.4797268391   -0.5501653185    1.3063807836
 H    1.2492137269   -2.5826045439   -0.3125392255
 H    0.1566667690   -3.7708562793   -1.0459121201
 H    0.2259273786   -2.1057276573   -1.6813590763
 H   -1.5196184565   -3.0281270776    1.8394958463
 H   -2.5100948617   -1.8785119606   -1.1769548142
 H   -3.6114984999   -4.1583861475   -1.0013970264
 H   -2.3120844198   -4.6852466036    0.1975272169