18

 C   -0.0335846910    1.5210296058   -0.0171143361
 C    0.0538916232    0.0125168405   -0.0065641162
 C   -0.8121917368   -0.8168851952    0.9231844059
 C    0.6940561987   -0.7853753628    1.0985251662
 C    1.4667875193   -1.9195226882    0.4345644023
 O    2.1657631146   -2.7222418023    1.0195149364
 C    1.2017341311   -1.8193464569   -0.9999908479
 C    0.4359097489   -0.7267439386   -1.2638124805
 N   -0.0442329169   -0.3055915894   -2.4641018011
 H    0.9001580941    1.9754610294   -0.3662696357
 H   -0.8491289800    1.8837192043   -0.6559484151
 H   -0.2309829263    1.8989258658    0.9898627830
 H   -1.4038017824   -0.2785180553    1.6583365247
 H   -1.2722820214   -1.7206089063    0.5387641603
 H    1.1095543310   -0.3203962154    1.9840582287
 H    1.5586564562   -2.5430088050   -1.7206227024
 H    0.3325489295   -0.7054083969   -3.3076834740
 H   -0.3980889920    0.6320375464   -2.5478935284