17

 O    0.1432846501    1.3912109193   -0.1698480820
 C    0.0196609276    0.0157022705   -0.0457325376
 C    0.2001112554   -0.8457777729   -1.3217650240
 O   -1.0153663801   -1.5695539027   -1.0492144081
 C   -1.3662065573   -0.6890852868    0.0463204150
 C   -1.4211258867   -1.4514667897    1.3744273869
 C    0.0588411128   -1.7379848670    1.7182516139
 C    0.7745183526   -0.5096223881    1.1790280655
 O    1.7034750887    0.0888260701    1.6650729276
 H    0.8899003855    1.6428330681    0.3963943184
 H    0.1269630816   -0.2259177873   -2.2238211752
 H    1.0740908445   -1.5041373598   -1.3936348798
 H   -2.2507120480   -0.0845358635   -0.1747801541
 H   -1.8723372366   -0.8116565761    2.1417939627
 H   -2.0262105640   -2.3571833112    1.2891596648
 H    0.2705070409   -1.8879920970    2.7775999354
 H    0.4114672529   -2.6204840859    1.1707917407