17

 O   -0.0337667275    1.3862820524   -0.1055098336
 C   -0.0142931532   -0.0336122481   -0.0218504497
 C    0.7453295312   -0.4938438423    1.2196853200
 O    0.1168279319    0.0389864010    2.3795367340
 C   -1.1919814178   -0.4903768290    2.5745284678
 C   -2.0894261929   -0.1780325153    1.3698840049
 O   -3.1619394032    0.3589487334    1.4820123726
 C   -1.4706273463   -0.5544826431    0.0142676269
 O   -2.2151769036   -0.1034112732   -1.0774439650
 H   -0.0937857254    1.7168240145    0.8011104472
 H    0.4690487732   -0.3955603990   -0.9352091494
 H    0.7920147638   -1.5934092744    1.2684848712
 H    1.7641862480   -0.0979358486    1.2143053280
 H   -1.1446843343   -1.5813557308    2.7336514767
 H   -1.6088746020   -0.0178929107    3.4653118903
 H   -1.4517286302   -1.6528730190   -0.0396656056
 H   -2.1571136018    0.8606776521   -1.0657411963