16

 C   -0.0425740411    1.5575746664    0.0632275621
 C    0.0335291149    0.0315457277   -0.0052677033
 C    0.7088440853   -0.4950494771   -1.2926677096
 C    0.8293737413   -2.0426530736   -1.2604262315
 C    1.6218238854   -2.5847469514   -2.3611496952
 N    2.2650621028   -3.0047536590   -3.2235913257
 C   -0.0267247759   -0.0601021982   -2.4846931626
 N   -0.6330684943    0.2873209515   -3.4048763872
 H    0.9556762297    2.0065133204    0.0276385948
 H   -0.6251974688    1.9637309586   -0.7685407728
 H   -0.5183781879    1.8743828002    0.9951931111
 H    0.6066650403   -0.3540847907    0.8458918089
 H   -0.9713212930   -0.4005210821    0.0669197485
 H    1.7194829905   -0.0742736445   -1.3591434403
 H    1.3000796374   -2.3353475862   -0.3158557216
 H   -0.1680840165   -2.4939228821   -1.2789700354