17

 C   -0.0662830292    1.4790611443    0.0863886983
 C   -0.0773939524   -0.0147469177    0.0323907237
 C    0.0447181339   -1.0453284136    1.1066063775
 C   -0.4320228159   -2.1022950730    0.0316592555
 C    1.0202368116   -2.0805120053   -0.4556409255
 N    1.2148758708   -0.7512478607    0.2251474478
 C   -1.0502144772   -0.9112920565   -0.7518346601
 O   -2.4038070949   -0.6350659399   -0.4703479197
 H    0.5756178669    1.8347199676    0.8966672490
 H    0.3126821241    1.8982159536   -0.8522474968
 H   -1.0793566855    1.8634125700    0.2424814012
 H    0.0835195644   -1.0025300054    2.1876642467
 H   -1.0101586526   -3.0118669373    0.1851641526
 H    1.6680094201   -2.8132392317    0.0320676830
 H    1.2046953599   -2.0848606850   -1.5370831573
 H   -0.9752798005   -0.9428968126   -1.8441892690
 H   -2.4931763835   -0.5458748470    0.4866104133