23

 C    0.0805413263    1.4910737705   -0.1853281313
 C   -0.0141509428   -0.0118927613    0.1146357845
 C   -1.4277458008   -0.5288192739    0.0805571723
 C   -2.5047236516   -0.2024874143    1.1316343378
 C   -2.9693989013   -1.6964609780    1.1176299686
 C   -4.4446126107   -2.0378173986    0.9380163159
 C   -1.9732566140   -1.9833099769   -0.0173173350
 C   -2.0953551202   -1.0337878232   -1.1643777751
 O   -3.3518998205   -0.5972285339   -1.6133481126
 H    1.1157548188    1.8421418200   -0.1317009746
 H   -0.2984545134    1.7175380067   -1.1880072579
 H   -0.5069707282    2.0748322295    0.5313316231
 H    0.5939078222   -0.5701734525   -0.6085637437
 H    0.4256253604   -0.2126879037    1.1010780410
 H   -2.0894642915    0.1093886286    2.0932584063
 H   -3.2551779751    0.5294933991    0.8181788379
 H   -2.5969056362   -2.1785346220    2.0280190122
 H   -4.8524393558   -1.5556474765    0.0481962858
 H   -4.5822067124   -3.1202198084    0.8329288580
 H   -5.0258813270   -1.7157014168    1.8100395210
 H   -1.4239604266   -2.9129621033   -0.1297644479
 H   -1.3950450360   -1.2526584716   -1.9735865338
 H   -3.2548044435    0.3075684605   -1.9288913623