20

 C    1.2933198572   -0.6602841988   -1.1470155729
 N    0.2822217374   -0.3278078451   -0.1437553079
 C    0.6365998481   -0.6552734670    1.2063187540
 C   -0.4981278379   -1.1105817771    2.1217321048
 C    0.4918352684   -2.1090355598    1.6177414137
 C    1.7166486427    0.1066081351    1.9219291355
 O    2.1692638639   -0.1776560877    3.0056879066
 O    2.1089734780    1.1927006531    1.2190047974
 C    3.1174628154    1.9919972840    1.8491628300
 H    1.4602986653   -1.7422256991   -1.1473533970
 H    0.9173800009   -0.3816011015   -2.1358951922
 H    2.2629232979   -0.1636302116   -0.9924245828
 H    0.0494173364    0.6569758194   -0.2059783781
 H   -0.4391396686   -0.8164239620    3.1625433889
 H   -1.4822242400   -1.0947071977    1.6697185991
 H    0.1759305596   -2.7862749019    0.8334937410
 H    1.2275046482   -2.4902618834    2.3147484349
 H    4.0222685824    1.4041689493    2.0225748253
 H    3.3204208409    2.8120296421    1.1601507862
 H    2.7613635637    2.3757836797    2.8084415535