21

 C   -0.0180938683    1.5534068018    0.0134348533
 C   -0.0033139017    0.0223561540    0.0646325579
 C   -1.4009268194   -0.5993587051   -0.0056871801
 C   -2.1213888436   -0.4529683125   -1.4026515307
 C   -2.3852465324   -1.9381073402   -1.7353191370
 C   -2.8715345484   -2.4866730542   -0.3515822278
 C   -1.4205111142   -2.1438190127    0.1255008309
 C   -1.0427686577   -2.5636734431   -1.3083100166
 O   -0.1879829831   -3.2189647569   -1.8262117890
 H    0.9960622553    1.9600049363    0.0697247693
 H   -0.4711031785    1.9214910134   -0.9132216652
 H   -0.5911535382    1.9700413301    0.8493994514
 H    0.6117459200   -0.3719962782   -0.7548616361
 H    0.4840887392   -0.3036857864    0.9925278506
 H   -2.0210536135   -0.1628019062    0.7860682194
 H   -3.0509214342    0.1188663220   -1.3389155745
 H   -1.4811482049    0.0277857462   -2.1484188922
 H   -2.8717003429   -2.1848162850   -2.6767144385
 H   -3.6800061776   -1.9313211478    0.1304508292
 H   -3.0858146135   -3.5567273325   -0.3587715509
 H   -0.9646079926   -2.5901047129    1.0073739365