20

 C    0.1032452069    1.5567258262    0.0928125939
 C    0.1652224876    0.0327687297    0.0467280754
 C    1.1799429221   -0.5585319841   -0.9978661428
 C    2.0216961500   -1.4374375590   -0.0413542236
 C    0.9317156722   -2.1194121511    0.8348419079
 C    0.7524224708   -0.6527515573    1.3168387069
 N    2.2222855486   -0.5323179010    1.1208783324
 C    3.0760100552    0.5202036073    1.2445773710
 O    4.0819790095    0.6793891680    0.5844405149
 H    1.0893037252    1.9995265314    0.2667039829
 H   -0.2664097158    1.9566378809   -0.8571515061
 H   -0.5695219878    1.9050409713    0.8843181372
 H   -0.8437799742   -0.3559375270   -0.1291296829
 H    0.6970942387   -1.1417741159   -1.7859874336
 H    1.7921972214    0.2169507830   -1.4645642700
 H    2.8923555858   -1.9608312151   -0.4293110535
 H    0.0897063553   -2.5916715309    0.3255521063
 H    1.3552549774   -2.7658505132    1.6032651836
 H    0.3388940125   -0.3912516173    2.2910148936
 H    2.7855955985    1.1888263441    2.0816055764