18

 C   -0.0870737538    1.2457406257   -1.1759228431
 C   -0.0241970900   -0.0370169512   -0.3930858558
 O    0.2285532177   -0.0795491358    0.7938134715
 C   -0.2704384691   -1.3727748099   -1.1158913907
 O    0.0368940931   -2.4348442637   -0.2579476787
 C   -1.7434571684   -1.5375808675   -1.5567250418
 O   -2.1215265877   -0.6318401657   -2.5857383735
 C   -2.0037497485   -1.0566200966   -3.8632231483
 N   -2.1348671626   -0.2363728286   -4.8109132620
 H    0.7196735550    1.2564619045   -1.9186368050
 H   -1.0227021776    1.3098403625   -1.7381737173
 H    0.0266223653    2.0970198936   -0.5039900502
 H    0.3638904610   -1.4054368685   -2.0165080347
 H    0.2234818449   -2.0125573856    0.5991256451
 H   -1.8755463156   -2.5774589783   -1.8773866915
 H   -2.4095080357   -1.3551568505   -0.7092130419
 H   -1.8138265040   -2.1360611047   -3.9445759244
 H   -2.0545559241   -0.7178746698   -5.7039345275