23

 C   -0.1843314306    1.5879359671    0.8842939153
 C   -0.0839262722    0.1039038215    0.5687760312
 C    0.9437222320   -0.3998430011   -0.4769660691
 O    2.1941583149    0.1269032314    0.0082019725
 C    2.1208036410   -0.2075083768    1.4130161465
 C    0.7439437572   -0.8860193961    1.4761524533
 C    0.2590684904   -1.3872977385    2.8150219176
 C    0.8814836062   -1.7973319915    0.1950332799
 C   -0.2556906597   -2.7505710485   -0.1486860042
 H    0.7955949277    2.0704518293    0.8610188338
 H   -0.8191169212    2.0957555291    0.1500660686
 H   -0.6301105585    1.7559677314    1.8715016283
 H   -1.0761403114   -0.3112470902    0.3828855754
 H    0.8676189415   -0.2281705402   -1.5506496511
 H    2.9411084733   -0.8830503533    1.6863015633
 H    2.1948431584    0.7001090453    2.0241513782
 H    0.1371017608   -0.5616305912    3.5258258044
 H   -0.7073251291   -1.8942271507    2.7269611287
 H    0.9687447801   -2.0976942757    3.2555401132
 H    1.8349746596   -2.3336403854    0.1307265731
 H   -1.2441933175   -2.2851085057   -0.1169464270
 H   -0.1187543716   -3.1596667794   -1.1556841153
 H   -0.2698471610   -3.5974029308    0.5465452136