17

 O    0.5173278409    0.2569112300    0.6708039800
 C    0.6117711699    1.4454185535    0.7076902632
 O    0.6487061394    2.2026796106   -0.4116433671
 C    0.8645689560    3.6024740368   -0.2531404329
 C    2.3506249051    3.9379670231   -0.3403839528
 C    2.6389951134    5.4302175863   -0.0756241190
 O    2.9383324022    5.4555146023    1.3124740542
 C    3.6399864173    4.2618197831    1.5364782344
 O    3.0407905734    3.2699346583    0.7181339164
 H    0.6573874264    2.0472052041    1.6332208507
 H    0.3126386373    4.0914418191   -1.0612493013
 H    0.4672980865    3.9521979676    0.7083167923
 H    2.7494032458    3.5991950566   -1.3029313044
 H    3.4935523826    5.7788052153   -0.6729292434
 H    1.7852406220    6.0876390004   -0.2565722400
 H    4.7051236225    4.3709014356    1.2663363796
 H    3.5431795992    3.9822220673    2.5893263601