18

 C   -0.0354317343    1.4882356561    0.0002210053
 N    1.2265561559    0.7207286708    0.0010102932
 C   -0.0635313064    0.0087251045    0.0259273238
 C   -0.3719878900   -0.8433707740    1.2525854078
 C   -0.2937525066   -2.2865399509    0.6942961434
 N   -0.5759889589   -2.2386729337   -0.7590837167
 C   -1.7996051081   -1.5006987828   -1.0941368464
 C   -0.4778366323   -0.8205565997   -1.1589843339
 H   -0.2263754192    2.0534733540    0.9088461231
 H   -0.3422409766    1.9909611574   -0.9140818303
 H    1.6200655995    0.7027643447   -0.9379661986
 H    0.3498541172   -0.6591618070    2.0499174005
 H   -1.3684810685   -0.6156147391    1.6444812045
 H    0.7194491003   -2.6847380927    0.8083998947
 H   -0.9829948049   -2.9792914605    1.1858994502
 H   -2.2826080996   -1.8227356837   -2.0121460088
 H   -2.4862362317   -1.2208758687   -0.2987585893
 H   -0.0186685258   -0.6042993748   -2.1216523225