19

 C   -0.0803371321    1.5990348407   -0.1170002749
 C   -0.0678342086    0.0633885208    0.0746079409
 C    0.7745913942   -0.3603567742    1.2590053087
 C    1.4484734562   -1.7082400805    1.2732567945
 C    2.2721238319   -0.4522140198    1.1210725060
 C   -1.5039413226   -0.4038972020    0.2226785093
 O   -2.0689598371   -0.5961708175    1.2747400783
 C   -2.3181124942   -0.6227716030   -1.0641875611
 O   -1.8673391027   -0.5054804263   -2.1732424832
 H    0.9424985212    1.9574843184   -0.2591190257
 H   -0.6694029694    1.8889582137   -0.9914526252
 H   -0.4980153710    2.0949232730    0.7649547060
 H    0.3251877170   -0.3801610375   -0.8480787415
 H    0.3943252336   -0.0088467752    2.2130001466
 H    1.4957566327   -2.2487844466    2.2116506297
 H    1.3356309365   -2.3440561734    0.4008224695
 H    2.7070386128   -0.2502475349    0.1471982177
 H    2.8872795281   -0.1320370426    1.9545453313
 H   -3.3698404767   -0.9145694431   -0.8569454765