20

 C   -0.0395927940    1.5421769215   -0.0041924366
 C   -0.0124778023    0.0364184861    0.0739061003
 C   -1.2380291145   -0.7507681379   -0.3899343938
 C   -1.1672170397   -2.1028584912    0.3245925811
 O   -0.3652998132   -3.1169269351   -0.3459408429
 C    0.4351481016   -3.3131962169    0.8469728298
 C   -0.1212128886   -2.0149053635    1.4646955460
 C    0.6597271824   -0.7439780103    1.1634182314
 N    1.2867754221   -0.6084132615   -0.1659204600
 H    0.8946367076    1.9601417444    0.3786420487
 H   -0.1543066017    1.8774846133   -1.0415173738
 H   -0.8734058008    1.9543486922    0.5753865210
 H   -2.1558514797   -0.2254953917   -0.0987886497
 H   -1.2700207689   -0.8808229900   -1.4780841741
 H   -2.1532190085   -2.5075541003    0.5805083127
 H    0.1411243121   -4.2266540928    1.3795321634
 H    1.5068727772   -3.3512427692    0.6240356518
 H   -0.4624568473   -2.0575092569    2.5002975009
 H    1.2051162928   -0.2630967507    1.9709385253
 H    1.1605954534   -1.4596186295   -0.7108988014