14

 C   -0.0167379995    1.5151110476   -0.0168241105
 C    0.0119680703    0.0247090281    0.0228806738
 C    0.5325869566   -0.9866897377   -1.0140366025
 C    0.8453699515   -1.9759705898    0.1344458946
 C    0.3451516452   -1.0051934549    1.1417875181
 N   -0.6000120221   -2.0220977628    0.5557058455
 C   -0.9068901106   -1.0214754596   -0.5585383468
 H    0.9686666163    1.9433401958    0.2009674462
 H   -0.3187541274    1.8681677908   -1.0089994570
 H   -0.7283622234    1.9226132871    0.7109418563
 H    0.9684395051   -0.8035562279   -1.9860749186
 H    1.5013196852   -2.8338670602    0.2234299611
 H    0.5105127370   -0.9191603229    2.2098874713
 H   -1.8474411042   -0.9593821136   -1.0925519215