20

 O   -0.0549735175    1.4505739733   -0.0980039448
 C    0.0335003685    0.0372839155    0.0143071037
 C   -1.3820311210   -0.5251406406   -0.0232993550
 C   -1.4388126276   -2.0521877551    0.0481122506
 C   -0.9114408937   -2.6766132725    1.3724306537
 C   -1.7963977329   -3.8851981855    1.5663979858
 C   -2.8553449561   -3.8625113309    0.7593553213
 C   -2.8702981157   -2.6347068796   -0.1186107638
 H    0.8350235306    1.8116890473   -0.0539549743
 H    0.6234796327   -0.3917197760   -0.8131865697
 H    0.5319111402   -0.2542594106    0.9526467960
 H   -1.9540684443   -0.0906889457    0.8067375601
 H   -1.8604050802   -0.1762541483   -0.9468279337
 H   -0.8275986386   -2.4604420214   -0.7676738213
 H    0.1539736134   -2.9294650832    1.3224016839
 H   -1.0203775304   -1.9785603008    2.2169214573
 H   -1.5910119042   -4.6469345214    2.3107891417
 H   -3.6478235850   -4.6029285442    0.7440182963
 H   -3.6350196163   -1.9221693737    0.2263707465
 H   -3.1087929619   -2.8530454664   -1.1660465246