14

 N   -0.0143725136   -1.1021022059   -0.2412595351
 C    0.0197835261    0.0326535212   -0.0310148956
 C    0.0621616287    1.4655285124    0.2670007535
 N    1.3977006895    1.9963981267    0.0452416483
 C    1.5257023212    3.3595489489    0.0219515800
 N    0.5802276251    4.2424553722   -0.0798343400
 C    1.2745056533    5.4530992026   -0.1292028473
 C    2.5991111147    5.2231794374   -0.0410333576
 O    2.7804010592    3.8527223137    0.0587819243
 H   -0.6269635518    1.9999402862   -0.3936668590
 H   -0.3014982774    1.6257400935    1.2931205963
 H    2.1584931022    1.4993398374    0.4848144753
 H    0.7570631168    6.3947969955   -0.2188569188
 H    3.4915097863    5.8224149682   -0.0265761646