23

 C    0.0166071906    1.5903964610   -0.0102653446
 C    0.0227271855    0.0646466958    0.1157173516
 C   -1.3672304703   -0.5512476953   -0.0834073579
 C   -1.3834290842   -2.0814667730   -0.0084930839
 O   -0.4789209651   -2.6595748330   -0.9343745444
 C   -1.1998048250   -2.6617710881    1.4196722612
 C   -2.7434014705   -2.7866934052    1.5432803148
 C   -2.8194420825   -2.6831525461   -0.0028348733
 O   -3.8088372010   -1.8844389340   -0.6103704567
 H    1.0191469021    2.0060252448    0.1325132024
 H   -0.3368555361    1.9064466741   -0.9983923190
 H   -0.6431557955    2.0491198011    0.7349174226
 H    0.7147429427   -0.3692933743   -0.6140405080
 H    0.4126498190   -0.2179632708    1.1016434843
 H   -2.0688457383   -0.1446494324    0.6545929380
 H   -1.7721164697   -0.2508167018   -1.0600145967
 H   -0.6540818951   -2.2733742461   -1.8001515561
 H   -0.7055787213   -3.6342839194    1.3694687933
 H   -0.6841198444   -2.0372089903    2.1510463965
 H   -3.1451703144   -3.6875724358    2.0118402647
 H   -3.1927566824   -1.9083351397    2.0142429924
 H   -2.7707663240   -3.6824332010   -0.4584013679
 H   -4.6535481101   -2.3396120904   -0.5395299133