19

 C    0.0509444955    1.5007208884    0.0508746005
 C    0.0539125227   -0.0170926855    0.0086408016
 O    0.7927279954   -0.4306727349   -1.1275279629
 C    0.8587234263   -1.8154023374   -1.2629080860
 C    1.6640200520   -2.1729632503   -2.4981730843
 O    2.1659015653   -1.3687692192   -3.2423994782
 C    1.8127607145   -3.6901125010   -2.7625776792
 C    2.6079561500   -4.0745682349   -3.9836060066
 O    1.3006164239   -4.4795509488   -2.0020059911
 H    1.0728438688    1.8838754072    0.1181414196
 H   -0.4084037882    1.9079996124   -0.8539642748
 H   -0.5128483122    1.8552822482    0.9187587452
 H    0.5061102663   -0.4321588098    0.9250273611
 H   -0.9759322431   -0.4079870638   -0.0474650871
 H    1.3287332762   -2.3063153972   -0.3920842023
 H   -0.1382558378   -2.2820140785   -1.3555637424
 H    3.6179748880   -3.6574043731   -3.9184645154
 H    2.6478563590   -5.1603598495   -4.0711648266
 H    2.1560604976   -3.6337916924   -4.8779879711