15

 C    0.1216905492    1.4436160529    0.2483650655
 C   -0.0899858777   -0.0274672050   -0.0140629989
 C    0.5794250844   -0.7313997506   -1.1901660941
 C    1.4448720117   -0.0113075436   -2.0828754232
 C    2.1381554118    0.5823522680   -2.8646744463
 N    0.9670130882   -0.9914767521    0.1867951556
 C    2.2081956859   -0.8070395564    0.7682911620
 O    3.2600104986   -1.1354621071    0.2811892102
 H    1.0971245355    1.7757189073   -0.1151187228
 H   -0.6509696306    2.0277648443   -0.2612093043
 H    0.0521062914    1.6611445926    1.3188827781
 H   -1.0777285129   -0.4034770841    0.2512065344
 H    0.0318545210   -1.5496435061   -1.6538898728
 H    2.7715856175    1.0954203380   -3.5457290684
 H    2.1120188662   -0.3901106283    1.7902953850