21

 C    0.0616077812    1.5846848489    0.0315998946
 C    0.0085369027    0.0554762940   -0.0106884194
 C    0.9144135522   -0.5286129890   -1.1553479581
 C    2.2796963812   -0.7210939242   -0.4822439356
 C    3.5694971697   -0.6486816473   -1.2327384406
 C    2.0665633811   -0.8398469031    0.8258903462
 C    2.5031941769   -0.3538744101    2.1856197011
 O    1.1592397635    0.1893678328    2.3770490018
 C    0.6561497359   -0.5961920723    1.2350842926
 H    1.0922453134    1.9399256391    0.1255771190
 H   -0.3649753001    2.0082741935   -0.8832810937
 H   -0.4980234375    1.9747135671    0.8860635794
 H   -1.0317108161   -0.2644995520   -0.1325907749
 H    0.5057309460   -1.4671070611   -1.5538633824
 H    0.9869706022    0.1611199684   -2.0054503373
 H    3.6680491115   -1.4838428302   -1.9383836623
 H    3.6271082877    0.2698502894   -1.8305146837
 H    4.4310761562   -0.6788908185   -0.5599810755
 H    2.7202040389   -1.1261995634    2.9356345632
 H    3.2816226905    0.4167781534    2.2190273600
 H    0.0740461826   -1.4446876953    1.6200078558