18

 C   -0.2729477328    1.4782172442    0.0305341314
 N    0.1436890171    0.0861606903    0.0263560972
 C    1.2420637179   -0.3587795678   -0.8627230416
 C    1.9147009362   -1.0900433150    0.3157591340
 C    2.4597286205   -2.4010104649    0.2663859088
 C    2.9247655080   -3.5097170608    0.2047239701
 C    2.2163437271   -0.0941518329    1.4020116969
 O    2.7449630891    1.1483655672    1.0438370715
 C    0.7769817220   -0.4862387355    1.1994150164
 H    0.5556845104    2.1938281174    0.1430712599
 H   -0.7956714070    1.7023126224   -0.9056693670
 H   -0.9840185757    1.6341610949    0.8489569357
 H    0.8922374237   -1.0351684433   -1.6476683196
 H    1.8468284974    0.4433077155   -1.3005236384
 H    3.3353853274   -4.4872245972    0.1533537023
 H    2.6775923544   -0.5596602790    2.2747353114
 H    2.4713961471    1.7908296356    1.7072782067
 H    0.1839608570   -0.9586293011    1.9777644443