16

 C    0.0356708500    1.3942587867    0.1188526046
 N   -0.0229729521   -0.0541842547    0.1531783965
 C   -1.1388505675   -0.6473063080   -0.0183850431
 N   -2.3708855547   -0.0136365268   -0.2474610615
 C   -3.3814687258   -0.7725431935   -0.3960765392
 O   -3.4286553208   -2.1111252595   -0.3629811411
 N   -2.2259717869   -2.8313701604   -0.1365204056
 C   -1.1627262125   -2.1248104266    0.0226005017
 C    0.1050569662   -2.8850010293    0.2612209551
 H    0.7473317537    1.6956577438   -0.6590544361
 H   -0.9270281293    1.8819711042   -0.0617199915
 H    0.4495680325    1.7487111573    1.0704556917
 H   -4.3776948461   -0.3724176934   -0.5777867576
 H   -0.0919358759   -3.9576861968    0.2605339900
 H    0.8373425479   -2.6334857798   -0.5111179091
 H    0.5439938714   -2.5806964133    1.2155444352