14

 O   -0.0330878252    1.3150013645    0.0096111882
 C    1.0910176363    2.0759870558    0.0027973441
 C    2.3414578691    1.5564010025   -0.0120647606
 C    2.4877151561    0.1448445881   -0.0210038916
 C    3.5073971895   -0.7815291419   -0.0358199137
 C    2.8503934185   -2.0548646353   -0.0362100037
 N    1.5234358161   -1.9987868888   -0.0231020929
 C    1.2575826379   -0.6508722064   -0.0133515257
 C    0.0551167082   -0.0260439110    0.0016078970
 H    0.8458346408    3.1283697966    0.0107738419
 H    3.1878393542    2.2335191311   -0.0166466928
 H    4.5724692270   -0.6036363046   -0.0451923799
 H    3.3531400053   -3.0168090801   -0.0462022145
 H   -0.9133398440   -0.5083457606    0.0084072142