16

 C    0.3697000740    0.8721197045    0.3944659213
 O   -0.4687361758    0.3158168685   -0.6053865201
 C    0.2024115313   -0.4352970190   -1.5849221610
 C    0.5576894125   -1.8461282515   -1.1473699043
 C    1.3264669739   -2.7188033701   -2.1554446147
 C    2.4326896578   -2.6829702133   -1.0996904007
 O    3.5275428152   -3.1173409380   -0.9511714670
 O    1.7157093405   -1.8954751846   -0.2325654281
 H    0.8480770165    0.1048481062    1.0137744993
 H    1.1566554621    1.4992367387   -0.0509340710
 H   -0.2681211460    1.4984358382    1.0222776476
 H   -0.4850507080   -0.5155009562   -2.4364564569
 H    1.1156894740    0.0764793325   -1.9322764947
 H   -0.2981222739   -2.3261114717   -0.6664891608
 H    0.9209645043   -3.7110928249   -2.3564282316
 H    1.5973003416   -2.2356559690   -3.0971648173