16

 N   -0.1350929590    1.3830658736    0.4909187374
 C    0.8127351771    2.3695118115    0.1699499009
 C    0.6777400975    3.1743024716   -0.9187854816
 C   -0.2338682543    2.7309455828   -1.9604802227
 N   -1.3089640507    2.1109773172   -1.6548426672
 C   -1.9653577726    1.0079456165   -2.1250258852
 N   -1.6710942617   -0.1942627777   -1.7634083028
 C   -0.5866539571   -0.5621250747   -0.9608214584
 C    0.1194553245    0.0705929545    0.0052612950
 H   -1.0379710046    1.6880443439    0.1499267293
 H    1.7104821309    2.4016346102    0.7837344702
 H    1.4346009854    3.9187186633   -1.1382576664
 H    0.1415534941    2.7805159194   -2.9935989212
 H   -2.8641153224    1.1605239756   -2.7242239425
 H   -0.2943324002   -1.5962152601   -1.1322294369
 H    0.9729985031   -0.4333695976    0.4489908419