17

 O    0.0194721300    1.3302974622   -0.0209413331
 C   -0.0155692500   -0.0819265303   -0.0230573189
 C    0.2765248505   -0.7339472731    1.3713392475
 C   -1.1867428104   -1.1837583956    1.4498111886
 C   -1.4714739269   -0.5423550340    0.0830252974
 C   -1.5274033430   -2.0349618106    0.2391843681
 O   -0.5455082850   -2.7954436728   -0.4189576437
 C   -2.8413224144   -2.6322593883    0.2488531448
 C   -3.9173302731   -3.1692588584    0.2675258174
 H    0.9427953047    1.6023768122   -0.0337713090
 H    0.5476902875   -0.4964513955   -0.8671416043
 H    1.0340558919   -1.5208584310    1.4148014764
 H    0.5026189010    0.0477020844    2.0994981776
 H   -1.8049581085   -1.2160468802    2.3386255474
 H   -2.3212273967    0.0299535043   -0.2666341515
 H   -0.4838534947   -3.6455733808    0.0311664057
 H   -4.8719180628   -3.6345574526    0.2709831896