21

 C   -0.0724481701    1.5953989132    0.1145816224
 C   -0.0244192260    0.0642402727   -0.0279068059
 O    0.6715494210   -0.5098023731    1.0777980286
 C   -1.4509918785   -0.5082748764   -0.0387098792
 O   -2.0183501056   -0.2303613232    1.2402486043
 C    0.7114775754   -0.3907578733   -1.2964342604
 C    2.2033872780    0.0017734036   -1.3205167575
 C    2.8948731776   -0.5244101601   -2.4907119528
 C    3.4412324401   -0.9668495915   -3.4660154692
 H    0.9298950568    1.9972982494    0.2780918356
 H   -0.4973663553    2.0658861213   -0.7787552005
 H   -0.6935256925    1.8704427128    0.9708690012
 H    0.0591948365   -0.4642083319    1.8231743328
 H   -2.0453999386   -0.0517616406   -0.8439190899
 H   -1.3985435556   -1.5914425885   -0.2132600536
 H   -2.7988001355   -0.7781772304    1.3573111575
 H    0.6437497562   -1.4815488012   -1.3652507178
 H    0.2097278644    0.0213352107   -2.1788618509
 H    2.3084631049    1.0928503527   -1.3032015129
 H    2.6769168287   -0.3696111002   -0.4054795503
 H    3.9382705781   -1.3530015158   -4.3207815617