17

 N   -0.0061124070    1.1585106322   -0.4850003602
 C   -0.0325873657   -0.0254136934   -0.0848004406
 O    1.0098857151   -0.8397267923    0.4064368821
 C    0.0655650873   -1.9220448617    0.6479064575
 C   -0.6000190777   -1.9948071476    2.0447000691
 C   -1.8520609867   -1.2488359643    1.4375288007
 C   -1.0753920550   -1.1236106397    0.0897678786
 N   -1.2226597885   -2.0507759947   -1.0569350687
 C   -0.1786304387   -2.9632902867   -0.4716684046
 H    0.9374441829    1.5491872838   -0.4477571704
 H   -0.7853802881   -2.9991010646    2.4318124649
 H   -0.0551349942   -1.4214681620    2.7962113385
 H   -2.7413739105   -1.8775066519    1.3528839312
 H   -2.1336215822   -0.3077774944    1.9122512972
 H   -2.1443112592   -2.4517729466   -1.1825137971
 H    0.6613565046   -3.1446186435   -1.1483598310
 H   -0.5485848264   -3.9250044926   -0.0959063871