25

 C   -0.5288960471    1.3244393524   -0.9535840012
 C    0.6882048843    0.6787740212   -0.2783570453
 C    1.5440819257   -0.0876040099   -1.2718146326
 C    2.6678620002   -1.0627709599   -1.0023562063
 C    2.4197451399   -2.0328722805    0.1627262055
 C    2.5268929995   -1.5674579375    1.6119182243
 C    1.0369464904   -2.4057515550   -0.4720775395
 C    1.3666007617   -1.5225903704   -1.6919623444
 C    1.1254858876   -1.9493289808   -3.1129681835
 H   -0.2214375527    2.0186486455   -1.7437503388
 H   -1.1710956341    0.5658460494   -1.4137041052
 H   -1.1334677211    1.8858410485   -0.2342394860
 H    1.2966012830    1.4568320689    0.2011998242
 H    0.3426218336    0.0247661030    0.5266659691
 H    1.7985733928    0.5327896685   -2.1334419559
 H    3.6428098144   -0.9008550728   -1.4525222387
 H    3.0883856395   -2.8911931797    0.0322123405
 H    1.8800794731   -0.7137258699    1.8275009851
 H    2.2549119009   -2.3755247058    2.3009470468
 H    3.5552221248   -1.2684389194    1.8453038885
 H    0.9594212132   -3.4672428755   -0.7213273489
 H    0.1433044285   -2.1276513420    0.0970035231
 H    0.0556840497   -1.9421918714   -3.3579978243
 H    1.6274250430   -1.2789984819   -3.8188202725
 H    1.4956816693   -2.9654679752   -3.2955510138