18

 C    0.0049703240    1.5506959286    0.0316733668
 C   -0.0247958646    0.0420315945    0.0524488062
 C    1.2508848063   -0.7530418934   -0.2327877969
 C    0.6302404949   -0.7914044638    1.1404032731
 O    1.2810645607   -0.1445178210    2.1938507022
 C   -0.3084411782   -1.9521919243    1.4772412955
 C   -1.4303769005   -1.7967125739    0.4735705577
 C   -1.2792831582   -0.7039389907   -0.2784858281
 H    0.9237426101    1.9215752641    0.4933957364
 H   -0.0447736209    1.9375550566   -0.9925459028
 H   -0.8394818484    1.9690088338    0.5900688033
 H    1.1939543265   -1.6235353135   -0.8791071926
 H    2.1656317291   -0.1728496224   -0.3149309216
 H    2.1032417429   -0.6133947835    2.3714767040
 H    0.1844697295   -2.9306762460    1.4075440513
 H   -0.6675120078   -1.8508184299    2.5103753104
 H   -2.2443444830   -2.5080530773    0.3932172352
 H   -1.9596817924   -0.3757325979   -1.0571753002