22

 C    0.1743230653    1.4647702724    0.0961170140
 C    0.0020046852   -0.0533286865   -0.0242189033
 C   -1.4384858143   -0.5650419560    0.1485378520
 C   -2.3703168033   -0.0621674697   -0.9672487108
 C   -3.8378239753   -0.4878971499   -0.8647350426
 C   -1.5031442857   -2.0966897816    0.4730109505
 C   -2.0105005678   -1.6778722412    1.8723827532
 O   -2.3260752901   -2.2413780513    2.8861947655
 N   -1.9622410303   -0.3524049883    1.5190315282
 H    1.2334037893    1.7344536620    0.0480003526
 H   -0.3375444061    2.0069641185   -0.7040357089
 H   -0.2114725516    1.8328654711    1.0534498240
 H    0.3751533728   -0.3926233332   -0.9989437403
 H    0.6241865319   -0.5412126146    0.7352230257
 H   -2.3269734337    1.0335244891   -0.9877247289
 H   -1.9521499262   -0.3954757616   -1.9258025652
 H   -3.9646616975   -1.5706951468   -0.9572444928
 H   -4.2744426468   -0.1829584487    0.0903856739
 H   -4.4218023054   -0.0234265043   -1.6647650795
 H   -2.2196521569   -2.6813583493   -0.1045699687
 H   -0.5383677323   -2.6073364961    0.4805811946
 H   -2.1554590513    0.4832392260    2.0519206668