19

 C   -0.0725935835    1.6115471417    0.0599966355
 C    0.0107848523    0.0876995852    0.0350495496
 C   -1.3654971511   -0.5313850126   -0.1985263904
 O   -1.8248550394   -0.1178553615   -1.4775989869
 C    1.0794445362   -0.5889694226   -0.8765805267
 N    1.6464934747   -1.3927524799    0.2671122972
 C    2.1735845441   -0.3933705674    1.2120640315
 C    0.7172303725   -0.6236714868    1.1965305981
 H    0.9110154536    2.0696780126    0.1951471389
 H   -0.4985537846    1.9819337786   -0.8764100022
 H   -0.7166270630    1.9521933146    0.8795095346
 H   -1.2871948392   -1.6279156488   -0.1388848661
 H   -2.0544904457   -0.2024372584    0.5975619085
 H   -2.6776222939   -0.5302396683   -1.6410950651
 H    0.6562478566   -1.2405437152   -1.6424494991
 H    1.8144582388    0.0766325276   -1.3415836937
 H    2.7367227879   -0.8361616813    2.0283380431
 H    2.5954010103    0.5308313790    0.8228775029
 H    0.2061747532   -1.1169244363    2.0199764202