17

 C   -0.0028776474    1.2984019066   -0.2937851145
 C   -0.1143518441   -0.1359281207    0.1511387008
 C   -0.7975933874   -0.5362459656    1.4207445286
 C    0.7029728936   -0.7207037890    1.2654350529
 C    1.2470546706   -2.0845572776    0.9166303670
 O    1.6377398557   -2.1465825149   -0.4724996981
 C    0.7323839858   -1.7722855797   -1.3977254341
 O    0.8189794294   -2.0988821468   -2.5415628154
 O   -0.3115624765   -1.0216845328   -0.9472852307
 H    0.8619464834    1.4377686398   -0.9502630126
 H   -0.9007619178    1.5969995671   -0.8429894116
 H    0.1099221588    1.9590325245    0.5702988006
 H   -1.1487123340    0.2523628307    2.0763566291
 H   -1.4174587027   -1.4260380161    1.3982285904
 H    1.3630356429   -0.0554553777    1.8105764690
 H    2.1567698968   -2.3201603766    1.4700075060
 H    0.5153657427   -2.8778828012    1.1043241426