17

 C   -0.2161823320    1.5026366773    0.1145790260
 C   -0.0600952427    0.0276359374   -0.0344570906
 N   -0.1544175867   -0.6552304203   -1.1498316445
 C    0.0569809307   -1.9819777960   -0.8162689555
 C    0.0249715229   -3.1308002761   -1.7708191877
 O    0.8578407170   -4.2079876112   -1.2924589175
 C    0.2882028370   -2.0830116674    0.5303897588
 O    0.5563628811   -3.1300211172    1.3372543520
 N    0.2152780690   -0.8083727930    1.0302574409
 H    0.6883194361    1.9766153756    0.5150275061
 H   -0.4190817967    1.9278373368   -0.8693107804
 H   -1.0470133975    1.7646655144    0.7809803780
 H   -0.9726877334   -3.5773467281   -1.8592438853
 H    0.3257385440   -2.8078004435   -2.7755535242
 H    1.7703647250   -3.9048916655   -1.3629002211
 H    0.6627253343   -3.8855504524    0.7334216487
 H    0.3592237820   -0.5523632007    1.9928916262