22

 C    0.1288742420    1.6084852748    0.0514062155
 C   -0.1541937356    0.1082040462   -0.0259750371
 N    0.5076591913   -0.4950588175   -1.1671026674
 C   -0.0189398540   -0.2301077880   -2.5195974534
 C    0.2717694371   -1.6991448562   -2.8498656898
 O    0.2999263346   -2.3601240013   -3.8444672346
 C    0.5323415221   -1.9836428400   -1.3552380923
 C    1.8791101333   -2.6173700804   -1.0194123835
 C   -0.6353648133   -2.7664035431   -0.7344710225
 H    1.2050158258    1.7935509467    0.1122045590
 H   -0.2536658533    2.1286182061   -0.8332305740
 H   -0.3547348361    2.0473720896    0.9295453896
 H    0.2231832917   -0.3801131553    0.8801800846
 H   -1.2494279472   -0.0533683173   -0.0410111055
 H   -1.1010130070   -0.0115194781   -2.5647686897
 H    0.5132922937    0.5290570919   -3.1027658372
 H    2.6959717529   -2.0454251697   -1.4658249526
 H    2.0321586280   -2.6418244696    0.0653213298
 H    1.9225942145   -3.6452029813   -1.3931843504
 H   -0.6277333063   -3.7949307413   -1.1065288951
 H   -0.5450570759   -2.7999094849    0.3561473653
 H   -1.6061304186   -2.3269945111   -0.9828285687