21

 C    0.2268408437    1.4944324254   -0.0888887471
 C   -0.1813599153    0.0369213814    0.1573643670
 C    0.6477730863   -0.6201231755    1.2388941286
 C    0.7916570989   -2.1226671557    1.4359162920
 C    0.5012471044   -3.0716595253    0.2746736800
 C    1.5355874183   -2.6990608513   -0.7697129162
 C    2.3431989507   -1.7220231391   -0.3495883806
 C    1.9932931999   -1.2645068474    1.0287175572
 O    3.0136199623   -0.8783853161    1.8991656122
 H    1.2688045719    1.5580151199   -0.4193007087
 H   -0.4001457987    1.9584133060   -0.8568520159
 H    0.1343077943    2.0920132776    0.8245922021
 H   -1.2392890480   -0.0057974585    0.4483914235
 H   -0.0953148015   -0.5273140833   -0.7766839110
 H    0.6153588517   -0.0939539527    2.1918829852
 H    0.7089839785   -2.4925939491    2.4513940567
 H    0.5924437872   -4.1233278769    0.5765844966
 H   -0.5186930183   -2.9570927541   -0.1170195400
 H    1.5595319855   -3.1557560700   -1.7530928994
 H    3.1524335792   -1.2722776438   -0.9141683457
 H    3.6076882587   -1.6302744416    2.0061692534