17

 C   -0.0939571057    1.4554838151    0.1708805255
 C   -0.0096776093   -0.0279257554    0.0334220275
 C    0.0359437347   -0.7523975287   -1.0958273580
 C    0.0568217969   -2.2011164311   -0.8106593659
 O    0.1219722249   -3.1090709617   -1.6048627633
 C   -0.0417502662   -2.3501397977    0.7191744510
 C    0.0461323090   -0.9185620332    1.2753399521
 C    1.3682654965   -0.6524018197    1.9900034796
 O    1.5050753744    0.1077001213    2.9108972511
 H    0.6851547851    1.8343939843    0.8416564163
 H   -0.0098356342    1.9580323593   -0.7949245753
 H   -1.0515161985    1.7385872861    0.6263448517
 H    0.0319565194   -0.3612210070   -2.1056811511
 H   -0.9950060368   -2.8229346287    0.9725450736
 H    0.7477951453   -3.0152278307    1.0830051075
 H   -0.7540981221   -0.6559995323    1.9748393355
 H    2.2330163166   -1.2075928599    1.5581328721