17

 O    0.1219961141    0.8937850411    0.7777028998
 C   -0.1886811195    0.2836841250   -0.4797492261
 C   -1.4628705895   -0.5133880115   -0.3540809828
 O   -2.5046998380    0.2347099111    0.2352171522
 C   -1.9702834009   -1.5143595270   -1.3548186591
 O   -0.8655316000   -2.2440766001   -1.9086619181
 C   -0.5663800100   -2.8488388030   -0.6171403563
 C   -1.6035978110   -1.9777390928    0.0570638300
 O   -2.3243360116   -2.3642903135    1.1569600016
 H    0.4280972970    0.2008526283    1.3732272420
 H   -0.3398593553    1.1148857068   -1.1763772156
 H    0.6334797331   -0.3312007932   -0.8593032662
 H   -2.0520343662    0.8199500202    0.8611304091
 H   -2.8827531661   -1.4187702686   -1.9324348654
 H   -0.8342138398   -3.9115968625   -0.6161132221
 H    0.4858499743   -2.7313430159   -0.3308894864
 H   -2.8292415408   -1.5801998743    1.4206359235