12

 N   -0.1033388141    1.2492856339   -0.4054076780
 C    0.0000947215    0.0369379809   -0.0514808711
 N   -1.1176339916   -0.6822660455    0.3413965838
 C   -1.0414461051   -1.9877246114    0.7279772399
 N    0.0136766639   -2.7118390085    0.7852653142
 O    1.2180933468   -2.0632324980    0.4004581152
 C    1.2692183564   -0.7587486228   -0.0055365577
 N    2.3571654566   -0.2103310247   -0.3416579944
 H    0.8234169260    1.5971361437   -0.6553248340
 H   -2.0011022043   -0.1942782305    0.3295314750
 H   -1.9661610953   -2.4728677203    1.0195006801
 H    3.1393958391   -0.8615713667   -0.2642688629