25

 C    0.0291870315    1.4806874112    0.1821916163
 C   -0.0471931495   -0.0468022544    0.1201495643
 C   -1.4775349993   -0.5512391087   -0.0114301234
 O   -1.4631376275   -1.9641752633   -0.0581350249
 C   -2.7460645535   -2.5530422466   -0.1656572070
 C   -2.5665728436   -4.0735691675   -0.0423140622
 C   -3.9279755812   -4.7580445882    0.0638031654
 C   -1.7580578978   -4.6225913048   -1.2290140528
 O   -1.8817749179   -4.3426589081    1.1807983101
 H    1.0652834116    1.8180931783    0.2751318866
 H   -0.3891457134    1.9388437301   -0.7208028032
 H   -0.5260865743    1.8736984988    1.0409205841
 H    0.5344324339   -0.4230222674   -0.7291999918
 H    0.3957049150   -0.4857897967    1.0218019671
 H   -2.0884154354   -0.2061790845    0.8402821047
 H   -1.9442144988   -0.1474556250   -0.9260275515
 H   -3.3961004663   -2.1934037500    0.6475984977
 H   -3.2169742566   -2.2860440043   -1.1255000191
 H   -4.5293875156   -4.5843182034   -0.8338671464
 H   -3.7923376233   -5.8365334945    0.1838154310
 H   -4.4759916600   -4.3866539656    0.9343918927
 H   -0.8042305196   -4.0956212187   -1.3164275358
 H   -1.5571016655   -5.6864257978   -1.0767148859
 H   -2.3014031036   -4.5022257561   -2.1727206798
 H   -1.1565183494   -3.7063234128    1.2167647140