19

 C    0.0354670964    1.4322418561    0.1331628323
 C    1.4725051688    1.9599912143   -0.1365389946
 O    1.6145376460    2.8242752040   -1.2613472575
 C    1.3302252058    2.3254043707   -2.5672459899
 C    2.3340452836    1.3703984937   -3.1879908542
 C    2.2668011694    0.0328215184   -3.0471598115
 C    1.3206176139   -0.4927345155   -2.1305860477
 C    0.5340733682   -0.5449291325   -1.2132926153
 C   -0.1376983396   -0.1123148279    0.0058805717
 H   -0.2819885138    1.7277562666    1.1390564657
 H   -0.6500623356    1.9273610351   -0.5615637973
 H    1.7865197994    2.5911451744    0.7001109747
 H    2.1799750158    1.1243197659   -0.1992482457
 H    0.3409077012    1.8499864402   -2.5897846871
 H    1.2788913617    3.2281725268   -3.1838346665
 H    3.1073640291    1.7967217016   -3.8216252631
 H    2.9595981236   -0.6231246811   -3.5656069343
 H    0.3108139048   -0.6128588199    0.8740009987
 H   -1.2022817688   -0.3724539809    0.0217415717