19

 C   -0.0289273396    1.5591445150   -0.1028206044
 C    0.0081959188    0.0341713051    0.0255100469
 C    0.7118594872   -0.5069859046    1.2966618443
 C    0.0296959038   -0.0353876192    2.5978134346
 C    0.7186337010   -2.0634285565    1.2472182059
 O    1.3921589632   -2.6564229033    2.3335379740
 C    2.1213355679   -0.0811380276    1.3039569142
 N    3.2427030693    0.2030610283    1.3136922640
 H    0.9805000835    1.9817947590   -0.0881086162
 H   -0.4983695097    1.8470577038   -1.0478218596
 H   -0.6021961440    2.0230778264    0.7048551117
 H   -1.0135263856   -0.3651204950    0.0287415608
 H    0.5073988373   -0.3914340892   -0.8528540957
 H   -1.0377826596   -0.2746543422    2.5533319341
 H    0.4650677006   -0.5541371184    3.4537203206
 H    0.1377974572    1.0406296099    2.7466837072
 H   -0.3192089164   -2.4079285224    1.3033404811
 H    1.1330593308   -2.3908479947    0.2826346829
 H    2.3305720143   -2.4480302242    2.2538213334