19

 C   -0.5470281767    1.0723004477   -1.4461115604
 C    0.2926968309   -0.1050933420   -0.9885955296
 N    1.7423060907   -0.0027566698   -1.2708091387
 C    2.0930424470   -0.5562417504    0.0587616441
 C    3.2641458745    0.1028597357    0.7617748463
 C    0.6444701442   -0.2153805999    0.5404055995
 O    0.6337469611    1.0005248594    1.2497444602
 C   -0.0654448754   -1.2611662347    1.2822511016
 N   -0.6509676772   -2.0729339658    1.8614421112
 H   -0.1460657387    2.0044348289   -1.0419559982
 H   -0.5325210535    1.1395891428   -2.5385435149
 H   -1.5914346372    0.9583406074   -1.1337333498
 H   -0.1537936320   -1.0519048683   -1.3251925877
 H    2.0675504478   -0.5441666570   -2.0643101189
 H    2.2160965824   -1.6487405560    0.0534894645
 H    3.1144315048    1.1812305745    0.8277264089
 H    3.3917360771   -0.3021435498    1.7706275940
 H    4.1837389384   -0.0892544849    0.1992487280
 H   -0.2806954082    1.2442470122    1.4328538999