20

 C   -0.2274992291    1.5141726883   -0.0056257052
 C    0.0963163579    0.0528606907    0.0221287175
 N   -0.6853259709   -0.9128097012    0.8324148959
 C    0.7848884980   -0.8035100163    1.0294077534
 C    1.4129315639   -1.6807622477   -0.0533250714
 C    0.7011682390   -0.7772984628   -1.1319258286
 C   -0.2853880057   -1.4184090130   -2.1149444532
 C    0.3900128069   -2.3795850615   -3.0614892693
 O    0.3997168523   -2.2773641617   -4.2625197053
 H    0.5970090908    2.0920647365   -0.4367644357
 H   -1.1233273847    1.7132833969   -0.6057139137
 H   -0.4117555345    1.8953466832    1.0048860556
 H   -1.1311141403   -0.3815339469    1.5803669133
 H    1.1909742826   -0.5458637504    2.0006239425
 H    2.5014387445   -1.6130611887   -0.1028177015
 H    1.1130905044   -2.7317036728   -0.0203601574
 H    1.4437724818   -0.1833975827   -1.6738579933
 H   -1.0298104653   -1.9708361155   -1.5262642656
 H   -0.8001727884   -0.6569138795   -2.7095078159
 H    0.9127375169   -3.2286686450   -2.5615989421