17

 O   -0.0242398613   -0.0162546426   -0.2652334294
 C    0.0202983852    1.1775384493   -0.2604528619
 O    0.9972272839    1.8694189239    0.3488691389
 C    0.9756733774    3.3129403101    0.2623945589
 C    1.2075272721    3.9127755583    1.6340587420
 C    2.2438415043    4.7512192212    1.6352202142
 C    2.9093588786    4.8127894855    0.2983530951
 C    3.5274350773    3.5072719452   -0.1580880275
 C    2.1228307259    3.8614566565   -0.5804060355
 H   -0.7321934784    1.8307770317   -0.7465675874
 H    0.0017393111    3.6080847853   -0.1529971787
 H    0.6024309267    3.6299184592    2.4865173220
 H    2.6073115925    5.2979552486    2.4978447933
 H    3.3022198085    5.7495300504   -0.0788422211
 H    4.2883456234    3.5530531666   -0.9297714570
 H    3.6642206396    2.7222745527    0.5768157524
 H    1.9366707831    4.0807444282   -1.6242823082