13

 O   -0.3672955049    0.7166033759   -0.6963047510
 C    0.3651491485    0.9271666317    0.2343066937
 C    1.4322157678    1.9989233486    0.2371749212
 C    1.5051444847    2.9222385637   -0.9959348990
 O    1.1105687033    4.0738180979   -0.1437019247
 C    1.0337681141    3.2997728448    0.9749232460
 O    0.7388684418    3.6147477184    2.0788930780
 C    2.7910130261    3.1072582101   -1.6256136994
 C    3.8630579184    3.2392987345   -2.1506627562
 H    0.2932655301    0.3517800210    1.1798757952
 H    2.3854228656    1.6002006437    0.5924212232
 H    0.7107729011    2.7217455473   -1.7173229649
 H    4.8071028436    3.3639692924   -2.6225135619