19

 C   -0.0767628581    1.5718356684    0.1517979996
 C    0.0623545404    0.0559982201    0.0473018938
 C    0.6107609246   -0.4011394208   -1.2887336606
 O    0.9177501677    0.3675317818   -2.1726549350
 C    0.7702846374   -1.9038779770   -1.5283607354
 O    0.4487714476   -2.5967151043   -0.3473395838
 C    0.1076266881   -2.4187521193   -2.8406687291
 O    1.3722091211   -2.8420696322   -3.3771498465
 C    2.0874377155   -2.3130281905   -2.2455866302
 H    0.8892340580    2.0647262590    0.0151906416
 H   -0.7482023304    1.9584896770   -0.6193249657
 H   -0.4743386649    1.8538935152    1.1305410854
 H    0.7148452421   -0.3521324311    0.8299012584
 H   -0.8947142104   -0.4571915084    0.2081276904
 H    0.5387623467   -3.5415595307   -0.5094273088
 H   -0.5885454489   -3.2535365959   -2.6840760809
 H   -0.3652818266   -1.6459053645   -3.4556043716
 H    2.7359023232   -1.4759290446   -2.5223397612
 H    2.6633507068   -3.0806585423   -1.7121986204