18

 C   -0.0256815938    1.5336525328    0.0183078752
 N   -0.0481213087    0.0910539882    0.1001896960
 C   -1.3036671707   -0.5829562384    0.4900844154
 C   -0.4607788561   -1.5815269926    1.3194241025
 C    0.7007552040   -0.5802613791    1.1827937886
 C    1.8896612048   -1.4147401301    0.7077661419
 O    1.3345755167   -2.6377131886    0.1975909039
 C    0.0203474349   -2.7888608404    0.5254595014
 O   -0.6105239571   -3.7537520934    0.2046609037
 H    0.9910332053    1.8793143736   -0.1963593535
 H   -0.6700648529    1.8665975036   -0.8017174289
 H   -0.3690660965    2.0288968804    0.9464780578
 H   -1.9481760949    0.0332805772    1.1361505748
 H   -1.8981992990   -0.9835671213   -0.3366651104
 H   -0.8381524566   -1.8782514789    2.2963546399
 H    0.9265760546    0.0547871439    2.0488411663
 H    2.4424065039   -0.9289926943   -0.1004282763
 H    2.5777868120   -1.6591990523    1.5252850619