20

 C    0.0159958331    1.5024375347    0.0087988926
 C   -0.0126141573   -0.0252794012    0.0835756609
 C   -1.4126910890   -0.6025989757   -0.0052708891
 O   -1.3369718143   -1.9920321363   -0.0038854407
 C   -2.6317553709   -2.5763245892   -0.0726392387
 C   -3.4271337400   -2.1835354156    1.1720677120
 C   -3.3621693089   -0.6939547319    1.4154108654
 N   -4.3166257247   -0.0603646003    1.9510238277
 O   -2.1682815416   -0.0955925504    1.1136436541
 H    1.0433834465    1.8710521132    0.0733290133
 H   -0.4079602012    1.8632328473   -0.9348338634
 H   -0.5584079692    1.9445439490    0.8263470825
 H    0.5678138110   -0.4654412004   -0.7339371610
 H    0.4293946911   -0.3784370365    1.0213084485
 H   -1.9323884927   -0.2597245350   -0.9186310615
 H   -3.1452210033   -2.2415520184   -0.9881506230
 H   -2.4888285230   -3.6570787990   -0.1358055976
 H   -4.4732259737   -2.4880099753    1.1101164386
 H   -2.9797993140   -2.6804264992    2.0413418708
 H   -4.0606369081    0.9236173804    2.0618990487