18

 O   -0.0062087504    0.3095735908   -1.0810395259
 C    0.0304916337    1.1989072862   -0.2521922458
 C   -1.2059867109    1.5580264226    0.4939576711
 C   -1.3750327312    2.4959193282    1.4368464028
 C   -0.3807827113    3.4691880292    2.0308796006
 N    0.9964882780    3.4543228762    1.5641709829
 C    1.1172031015    3.4872679250    0.0727302041
 C    1.3182403729    1.9478924962    0.0331931406
 C    1.6037872099    2.0864342286    1.5533818594
 H   -2.0544163042    0.9481678378    0.1958473701
 H   -2.3746918352    2.5968133496    1.8608346797
 H   -0.7805278456    4.4838684917    1.8880233365
 H   -0.3755070691    3.3179683330    3.1203231321
 H    0.2541012764    3.8973352477   -0.4590354556
 H    2.0149079369    4.0372089431   -0.2256664212
 H    2.1050892101    1.5453863481   -0.6061851113
 H    2.6733203992    2.1416868819    1.7778717314
 H    1.1355316292    1.3597541442    2.2231193085