11

 N    0.0523293218   -1.1225838387   -0.0058390092
 C    0.0427242947    0.0311533730    0.0017743193
 C   -0.0260391736    1.4895031863    0.0120318515
 O    1.3156762282    1.9991460022    0.0001180936
 C    1.4012008530    3.3194366407    0.0071998478
 N    0.4136042454    4.1699506240    0.0236772925
 O    1.0445110412    5.3794449736    0.0238409227
 N    2.4154807845    5.1740064204    0.0070017637
 N    2.6348390902    3.9361633960   -0.0031053392
 H   -0.5735191222    1.8497847316   -0.8662515162
 H   -0.5533842132    1.8382479310    0.9071337337