19

 C   -0.0534679889    1.5617004676   -0.0116885836
 C   -0.0805174762    0.0251892609   -0.1057927747
 C   -1.4274029971   -0.5305883781   -0.0334488864
 C   -2.5464072523   -0.9770987484    0.0250538664
 C   -3.9157324320   -1.4966004188    0.0952177401
 C   -3.9520600092   -3.0244636887    0.1961263153
 O   -4.6464433759   -0.8760306624    1.1563229091
 C   -4.6290228320   -1.0051509970   -1.1850798182
 O   -4.8376397009   -1.6831643024   -2.1520220199
 H    0.9755745436    1.9267577180   -0.0750111920
 H   -0.6301856300    2.0107209267   -0.8244579352
 H   -0.4821454323    1.9017001891    0.9348465103
 H    0.3856149249   -0.2956214964   -1.0460770581
 H    0.5327102782   -0.4058101177    0.6958825948
 H   -3.3895492815   -3.3581823796    1.0717793546
 H   -4.9896761231   -3.3540249365    0.2895124249
 H   -3.5195861497   -3.4738572070   -0.6999919459
 H   -4.0523832665   -0.7902356817    1.9090257376
 H   -4.9277834290    0.0618435324   -1.1147266595