19

 C   -0.0258543111    1.5822804600   -0.0731492424
 C    0.0060325534    0.0535947730    0.0072695483
 C    0.7183058767   -0.6195977190   -1.1856175114
 O    1.4562047381   -1.7525851165   -0.6870703311
 C    1.5292400424   -1.6842942203    0.7111220678
 C    2.2475630218   -0.4733100022    1.2783853453
 O    2.9822052872    0.3611420471    0.4322396501
 C    0.7286082376   -0.5250949230    1.2216269619
 O    0.0180186182   -0.6466504015    2.4157010485
 H    0.9892522816    1.9852463932   -0.1153176195
 H   -0.5733505231    1.9212125520   -0.9590737257
 H   -0.5315875011    2.0070409661    0.8009222182
 H   -1.0205407268   -0.3253614009    0.0812229623
 H    0.0197246333   -0.9857383793   -1.9444857298
 H    1.4123767414    0.0812916831   -1.6628602268
 H    1.5774779035   -2.6528380957    1.1955666139
 H    2.6613310378   -0.5891457607    2.2804121379
 H    3.4135494130   -0.2049016794   -0.2185066409
 H    0.0636178658    0.1982888240    2.8772119535