12

 C   -0.0032157630    1.4848411602    0.0398166977
 C   -0.0006895270   -0.0036521214   -0.0204283072
 C   -0.0687759595   -0.8227062287   -1.0925984661
 O   -0.0320104537   -2.1325210433   -0.6315773378
 C    0.0571603836   -1.9885299546    0.7071916036
 O    0.1110508025   -3.1020530316    1.4359586461
 N    0.0811465346   -0.7787320192    1.1462041486
 H    0.9119209935    1.8553569651    0.5135881539
 H   -0.0759982405    1.9188891874   -0.9606010943
 H   -0.8458289757    1.8471036548    0.6380714255
 H   -0.1408660069   -0.6928897565   -2.1575512445
 H    0.0743470221   -3.8589786022    0.8388073643