17

 O    0.0368283041    1.3748386532   -0.1547165002
 C    0.0573676091   -0.0221475170    0.0968275077
 C   -1.3716481514   -0.5186268876   -0.0130890998
 C   -2.0533348293   -0.4968908361   -1.4279342820
 C   -2.2431195575   -2.0097239646   -1.3164826364
 O   -0.9518490959   -2.6130662113   -1.1156039190
 C   -1.5755492672   -2.0440887677    0.0218071714
 C   -3.3343689744   -2.8796576843   -1.7880762291
 O   -4.3244736866   -2.4718388589   -2.3446733780
 H    0.9448207657    1.6897342236   -0.1870223452
 H    0.6812025060   -0.5575494400   -0.6328837615
 H    0.4514208174   -0.2444566831    1.1024651517
 H   -2.0006336608   -0.0187371133    0.7283793115
 H   -2.9994779868    0.0445124380   -1.4396363937
 H   -1.4299208529   -0.1704921716   -2.2619294085
 H   -1.7529829982   -2.6970773643    0.8699841997
 H   -3.1693896313   -3.9569104350   -1.5680956588