19

 C   -0.0729154757    1.4703286542    0.1008050725
 C    1.3155872595    0.8541128156    0.0063806748
 C    2.2123085660    0.3933069097    1.1495592098
 C    2.2937336366   -1.1668977217    1.1268798796
 C    0.8627291633   -1.7810616410    0.9232781539
 O   -0.0735273855   -0.7223444706    1.1670605143
 C    0.0523994497   -0.0014522949   -0.0430590654
 C    0.0088640827   -1.0569626420   -1.1083624790
 C    0.5405382957   -2.1395789617   -0.5377481990
 H   -0.4444102377    1.8192838372    1.0595314025
 H   -0.3969745848    2.0597466974   -0.7505125050
 H    1.8118471448    1.0096027987   -0.9476898206
 H    3.2168656060    0.8201689633    1.0679465196
 H    1.8073201726    0.7174402760    2.1112117178
 H    2.9655804514   -1.4979128675    0.3279023965
 H    2.7209550955   -1.5240847481    2.0689360034
 H    0.6611085981   -2.5882143657    1.6306698488
 H   -0.2843675176   -0.9096919413   -2.1384803527
 H    0.7690398694   -3.0909291675   -0.9988689618