18

 C    0.5813379370    0.4870003399   -0.7776553666
 C   -0.1649698521    0.1562557818    0.4950410717
 O    0.1067910810    0.6608457919    1.5605456464
 C   -1.2907093204   -0.8920717169    0.4100117618
 C   -2.1571121491   -0.8756283584   -0.8374013722
 C   -2.2298829593   -2.0699234907   -1.4302801945
 C   -1.3776690730   -3.0657482628   -0.7175152172
 N    0.0681976037   -2.7040876720   -0.7571806623
 C   -0.7515250061   -2.3330342942    0.4170083279
 H    1.4262606975    1.1386281327   -0.5510770209
 H    0.9053028203   -0.4384018065   -1.2636984172
 H   -0.0909488516    0.9910879207   -1.4819601860
 H   -1.8935521875   -0.7332220938    1.3119505973
 H   -2.6475354651    0.0269336530   -1.1846877012
 H   -2.8014349056   -2.3015376286   -2.3207380051
 H   -1.6494735578   -4.1143006816   -0.6644176841
 H    0.6212679740   -3.5223482366   -0.5074382206
 H   -0.5347015958   -2.8027748480    1.3691829627