21

 C   -0.2111469024    1.5496162442   -0.0107097423
 C    0.0425432984    0.0411585758    0.0117650592
 C    0.8913574170   -0.4967485698   -1.1964864215
 C    2.0013776852   -1.3449268652   -0.5148967777
 C    1.2517975938   -1.8945333931    0.7188033754
 C    0.8315853559   -0.5048472688    1.2448947630
 C    2.1735749185    0.2331640236    1.2636649799
 O    3.3349543972   -0.5856605120    1.4741604280
 C    2.9296525627   -0.3106287488    0.1279024947
 H    0.7224089153    2.1194698316   -0.0582192762
 H   -0.8075129176    1.8293379203   -0.8856518467
 H   -0.7595428827    1.8749716210    0.8803683022
 H   -0.9317508482   -0.4610706557    0.0068752865
 H    0.2847226105   -1.1082311049   -1.8704900161
 H    1.3120865447    0.3202214952   -1.7932708566
 H    2.4837227194   -2.0775902624   -1.1637580777
 H    0.3919795164   -2.5114047175    0.4445676581
 H    1.8948783090   -2.4428861340    1.4050241731
 H    0.2667118648   -0.4847317174    2.1790136852
 H    2.2619252492    1.2572740504    1.6105264263
 H    3.6244573931    0.2735280474   -0.4692318265