16

 C    0.5172796360    1.1117236494    0.6239290770
 C   -0.3009186517    0.4247052488   -0.4716548572
 C    0.5220015763   -0.3660391524   -1.4381989272
 C    1.8683800528   -0.5769742470   -1.5102542999
 N    2.0415017992   -1.3838609172   -2.6065877770
 C    3.2583624254   -1.8881410961   -3.1089236905
 O    3.3601615964   -2.5893737277   -4.0695409246
 N    0.8310542427   -1.6557254375   -3.1851403600
 N   -0.0635838314   -1.0501754330   -2.4884047873
 H    1.0693413227    0.3825366467    1.2262718006
 H    1.2404100660    1.8161900908    0.1995238621
 H   -0.1361216530    1.6721104062    1.2974819468
 H   -1.0463204726   -0.2434526162   -0.0232387121
 H   -0.8775268276    1.1687540201   -1.0347502161
 H    2.6966650976   -0.2436065371   -0.9088998700
 H    4.1051507611   -1.5429845978   -2.4879714646