18

 C    0.1188267073    1.4354650945    0.0307094244
 N    0.0629320237   -0.0204195722   -0.0197452581
 C    0.2632144365   -0.6887117877    1.2553987531
 C   -0.0530119536   -0.6282028869   -1.2308014744
 O   -0.1723988189   -0.0235917207   -2.2819337558
 C   -0.0435565806   -2.1986084590   -1.2863085757
 N   -0.4203150132   -2.7099987464   -2.5947724604
 C    1.2971377035   -2.6851435796   -0.9174491431
 N    2.3556610426   -3.0282957827   -0.6053372506
 H    1.0915253615    1.7681056052    0.4129900438
 H   -0.0286768458    1.8238368359   -0.9747952688
 H   -0.6632038735    1.8205076739    0.6952194474
 H    0.0807775202   -1.7588999557    1.1895909742
 H    1.2887760910   -0.5457847999    1.6176491380
 H   -0.4254678433   -0.2709291400    1.9986286561
 H   -0.7472337056   -2.5951227436   -0.5468322190
 H   -1.4266393481   -2.6148306031   -2.6956026455
 H   -0.0254481739   -2.0789571021   -3.2900122956