23

 C   -0.4221164287    1.2336972362    1.1501113459
 O   -0.8029558525   -0.1183336310    1.0504692827
 C   -0.5063974725   -0.6757601187   -0.2121116455
 C   -0.9196681692   -2.1397933637   -0.2779806168
 C   -1.1049451975   -2.9397609074    0.9747707362
 C   -2.2996775216   -2.6435754301    0.0838942688
 C   -3.4367266048   -1.7517590535    0.5347996006
 O   -0.2534639994   -2.8274892285   -1.3072496072
 C   -0.7229055787   -2.5425386565   -2.6114519464
 H   -0.6838729139    1.5737858697    2.1548005527
 H    0.6613362570    1.3611976500    1.0004924007
 H   -0.9463697151    1.8614887772    0.4124842041
 H   -1.0038749992   -0.0895379087   -1.0040539780
 H    0.5782750875   -0.6318944078   -0.4069392904
 H   -0.7032427449   -3.9465364945    0.9712927560
 H   -1.0292353076   -2.4049713733    1.9141049432
 H   -2.6073576080   -3.4896840268   -0.5264888340
 H   -3.0671553358   -0.9112017692    1.1244599822
 H   -3.9895818091   -1.3486466593   -0.3218360774
 H   -4.1481860628   -2.3152058214    1.1491646090
 H   -0.4910780819   -1.5153129855   -2.9270347302
 H   -0.2148187414   -3.2337412195   -3.2885726697
 H   -1.8082334699   -2.6946907581   -2.6947159467