16

 C    0.0284397863    1.5430555995    0.1301462575
 C   -0.0204124196    0.0209012502    0.0167050415
 O   -1.3412489066   -0.4804796763    0.1151553903
 C    0.6811613979   -0.5139782984   -1.2685518080
 C    0.7844316549   -2.0499628316   -1.2619826206
 C   -0.0577767418   -0.0472688730   -2.4465298148
 N   -0.6833622473    0.3278097487   -3.3440425049
 H    1.0609938820    1.9058225393    0.1614720691
 H   -0.4692982631    2.0161356594   -0.7237910809
 H   -0.4786250231    1.8608074006    1.0445389526
 H    0.5130989297   -0.4243922983    0.8645659581
 H   -1.8737823407   -0.0524683532   -0.5669479794
 H    1.6874636399   -0.0792499929   -1.3163991757
 H   -0.2068800066   -2.4881372268   -1.1321528695
 H    1.2204283951   -2.4230428180   -2.1914126992
 H    1.4170230632   -2.3699566694   -0.4290396461