12

 C    0.0068074210    1.3886961465    0.0586315112
 N   -0.0080994147   -0.0575638376    0.0497369697
 N   -0.0654580085   -0.7650614413   -1.0605097917
 N   -0.0625732290   -2.0276875605   -0.6999807057
 C   -0.0042864514   -2.0227663864    0.6566570579
 N   -0.0427318877   -3.1717098022    1.4095578769
 N    0.0347600849   -0.7933473131    1.1667762889
 H    0.9200979991    1.7484503372    0.5383508990
 H   -0.0292084900    1.7193367470   -0.9786141309
 H   -0.8600931747    1.7666232094    0.6056972315
 H    0.2639318271   -3.9905620218    0.9056626533
 H    0.3717138039   -3.0858362774    2.3252641699