16

 C    0.3769423185    1.5228440401   -0.0885042018
 C   -0.0228601866    0.0659308008   -0.1339504000
 C    0.5650616407   -0.8198012463   -1.2560676529
 C    1.1711078639   -1.6432175230   -0.1020819498
 O    0.6708087788   -0.7232139130    0.8931371247
 C    0.4880925960   -2.9994816703    0.1618133419
 O   -0.2918766280   -3.5080620863   -0.5934728961
 C    2.6268818915   -1.7925207793   -0.0572425396
 N    3.7724241061   -1.9449236621   -0.0299875743
 H    1.4578405668    1.6357778930   -0.2138407392
 H   -0.1291875422    2.0753018521   -0.8875967006
 H    0.0905650615    1.9677497395    0.8690567955
 H   -1.1055081981   -0.0479808653   -0.0095271452
 H   -0.1427798292   -1.3861877251   -1.8599461197
 H    1.2992412554   -0.3223856122   -1.8890605556
 H    0.7359907950   -3.4277097725    1.1539792928