16

 N    0.1131154455    1.2054845642   -0.4362514291
 C    0.8426938523    2.2628446064    0.0760428165
 C    1.9024195923    2.3172416729    0.9074803987
 C    2.5992854690    1.3451675575    1.7291770248
 N    2.1808207339    0.5550115089    2.6497614298
 C    0.8839512220    0.3561445668    3.0435895642
 C   -0.1946889104   -0.1204431888    2.3769774836
 N   -0.3321116281   -0.6209284103    1.1071856635
 C   -0.1800417830   -0.0885178878   -0.0338508398
 H   -0.2443209948    1.3965141237   -1.3604112428
 H    0.5711756508    3.1898646896   -0.4222721572
 H    2.3840999547    3.2939699954    0.9198034190
 H    3.6893633972    1.4025270793    1.6387156605
 H    0.7688717728    0.4025943935    4.1258247780
 H   -1.0360923364   -0.3975854461    3.0112955507
 H   -0.4140908676   -0.7090689952   -0.9019353305