19

 C   -0.0475662798    1.4265153975    0.0084639191
 C    0.0664955962   -0.0837695129    0.0370832004
 C    1.4225681731   -0.6797019898   -0.2170662022
 C    0.8041638906   -0.6940242985    1.1959881277
 C    0.7882791213   -2.2379859335    1.1943525342
 O    1.4245137627   -2.7482173128    2.3199359061
 C   -0.4210044145   -2.9764367079    0.5710657532
 O    0.1312866476   -2.8114647505   -0.7593467404
 C    1.3559731362   -2.2211012479   -0.2452802045
 H    0.8461171069    1.9019902292    0.4264488549
 H   -0.1710924966    1.7903864566   -1.0169407846
 H   -0.9094553221    1.7668185703    0.5920825580
 H   -0.7909724509   -0.6048255215   -0.3785039191
 H    2.2453939493   -0.0872177813   -0.6000950323
 H    1.0806750620   -0.1212729055    2.0731036338
 H    1.5470009900   -3.6964896006    2.1991283595
 H   -0.4702795776   -4.0383044204    0.8552117285
 H   -1.4165881487   -2.5305151286    0.6744774387
 H    2.2572428744   -2.7539756719   -0.5580264511