17

 C   -0.1261353289    1.5081074749    0.0124111917
 C    0.0048287670   -0.0013501990    0.0036028202
 O   -1.3312063436   -0.5530183523    0.0104024491
 C   -1.4011905779   -1.8781448861    0.0048643478
 N   -0.4360101239   -2.7145776911   -0.0057209801
 C   -1.0685632670   -4.0349965540   -0.0071562749
 C   -2.5893313312   -3.8013835370    0.0043876960
 O   -3.5008283651   -4.5883743615    0.0075287830
 N   -2.6852390095   -2.4132108940    0.0115176218
 H    0.8689938935    1.9622743924    0.0073619802
 H   -0.6696544526    1.8593055108   -0.8690737723
 H   -0.6564694454    1.8501185082    0.9054621833
 H    0.5281370342   -0.3677579356   -0.8848255371
 H    0.5409448814   -0.3770037664    0.8804457147
 H   -0.7864525987   -4.6165621946   -0.8923385930
 H   -0.7742277331   -4.6243458995    0.8688516887
 H   -3.5436868092   -1.8871247452    0.0200596710