16

 C    0.1208555300    1.5298478406    0.2021271922
 C   -0.0645426066    0.0195496939   -0.0330731364
 C    0.5788145196   -0.4688063758   -1.2933645351
 C    0.0628049016   -0.7744531604   -2.5353932848
 C    1.1845722898   -1.1460958205   -3.3159618237
 N    2.3222446345   -1.0793709090   -2.6151101152
 N    1.9225976765   -0.6678423731   -1.4062511501
 C    1.1863898709   -1.5555160783   -4.6789300376
 N    1.1427644190   -1.8823693378   -5.7880272974
 H    1.1802108207    1.7946390629    0.2769763159
 H   -0.3088571289    2.1075372850   -0.6209746298
 H   -0.3694913792    1.8362369866    1.1304699802
 H    0.3349616168   -0.5383536941    0.8230991658
 H   -1.1311705823   -0.2179373370   -0.0819142078
 H   -0.9693414529   -0.7414127780   -2.8420503904
 H    2.6189429306   -0.5497235250   -0.6877323456