22

 C   -0.2445635001   -2.6293184462    0.0556722295
 C   -0.6431683885   -1.3549017478   -0.6982483439
 C    0.1040973606   -1.2214472448   -2.0087889616
 C   -0.4607402581   -1.7566198502   -3.2824115284
 N   -0.3294254994   -0.3159771325   -3.0779992434
 C   -1.5237756175    0.4749586735   -2.9413850751
 C   -1.3541790454    1.8827989482   -2.3998970257
 C   -1.5637392946    1.6599310146   -3.8787948050
 O   -0.5062357540    1.8278650120   -4.7646243757
 H   -0.4796801580   -3.5242136719   -0.5297554835
 H    0.8302678510   -2.6442217081    0.2664865731
 H   -0.7717213285   -2.7024388139    1.0114388807
 H   -1.7230573762   -1.3554223648   -0.8795105222
 H   -0.4344568313   -0.4769084820   -0.0741750478
 H    1.1884548418   -1.2450756253   -1.8982133469
 H    0.1782531322   -2.1938531613   -4.0448497024
 H   -1.4651259347   -2.1763341507   -3.2381794196
 H   -2.4541112782   -0.0474660657   -2.7211430055
 H   -2.1586703916    2.2990627856   -1.8029928317
 H   -0.3541480445    2.1710863549   -2.0944036107
 H   -2.5154309409    1.9456157960   -4.3165667556
 H    0.1239348258    1.1256142006   -4.5349069687