23

 C   -0.2501369028    1.5436257505    0.0232147057
 C    0.0074761227    0.0242655741   -0.0104024105
 C    0.7569891232   -0.4233055449   -1.2822688623
 C    2.2729274409   -0.2263194778   -1.1573701167
 C    2.8417745342   -1.0498589329    0.0071147140
 C    4.2929996042   -0.6631601516    0.3019831230
 O    4.8124591789   -1.5785427537    1.2567243938
 C    1.9802665192   -0.9155816295    1.2393649809
 C    0.7388951307   -0.4309677303    1.2297455367
 H    0.6875348081    2.1069437612   -0.0237419080
 H   -0.8764650508    1.8521204336   -0.8208270437
 H   -0.7615210687    1.8358343922    0.9464263052
 H   -0.9790024863   -0.4613515022   -0.0120673480
 H    0.5552658153   -1.4871464708   -1.4596447921
 H    0.3717978368    0.1188765220   -2.1534075224
 H    2.7710373202   -0.5028882670   -2.0936251642
 H    2.4947261019    0.8362226547   -0.9887229854
 H    2.8683715814   -2.1113676968   -0.2855912624
 H    4.8763024852   -0.6939829639   -0.6327547018
 H    4.3269710501    0.3707503011    0.6815673188
 H    5.6849949360   -1.2752038266    1.5226075559
 H    2.4363114293   -1.2386415534    2.1709187495
 H    0.1934227903   -0.3421033480    2.1680150440