17

 C   -0.0947497726    1.5504377406   -0.0660631433
 C    0.0202760098    0.0307670098   -0.0369528790
 N    0.9636939443   -0.3955935883   -1.1055766519
 C    1.6251554325   -1.3545794090   -0.5940820419
 N    3.0267486281   -1.0816202884   -0.2282369064
 C    2.3044673693   -1.0150343724    1.1525189270
 C    1.1864715009   -1.9204836190    0.7996318047
 C    0.7331286757   -0.5738068944    1.2060693201
 O    0.2169175607   -0.3862968317    2.4733548385
 H    0.8968358219    2.0099114474   -0.0275886068
 H   -0.5871953701    1.8790824483   -0.9844795211
 H   -0.6910296632    1.9026427220    0.7839633100
 H   -0.9838147231   -0.4157468475   -0.1039289469
 H    3.5479736941   -1.9629308035   -0.1507700449
 H    2.9049676174   -0.9609676252    2.0554526754
 H    0.8894124183   -2.9131408562    1.1134972939
 H    0.3024599360    0.5464159677    2.7011644426