17

 C   -0.2144922927    1.4727334348   -0.0135680948
 C   -0.0361438885   -0.0402924315   -0.0198707568
 C    1.1625958346   -0.5851732914   -0.7786357838
 N    1.5581610513   -0.5202865903   -1.9661158324
 O    1.7252641623   -1.1964443880    0.3270959046
 C    0.6505038882   -0.7131539117    1.1716343440
 C    0.9160383166   -0.2451914282    2.5580489543
 C    0.1318796348   -1.5294384017    2.2991411783
 H    0.7056673986    1.9773895358    0.2943561776
 H   -0.4745608154    1.8227164162   -1.0161699677
 H   -1.0156266675    1.7705474356    0.6705443255
 H   -0.9634998811   -0.5419070391   -0.3131050255
 H    2.4427580151   -1.0150097903   -2.0929081965
 H    1.9290220107   -0.3475712780    2.9313713978
 H    0.3827340613    0.6274608272    2.9206610713
 H   -0.9372021340   -1.5341231886    2.4855850588
 H    0.6338697857   -2.4685009308    2.5047263452