17

 C   -0.0109755594    1.3243822646   -0.0068452892
 O   -0.0167155598   -0.0830889097   -0.0792702771
 C   -1.3154241053   -0.6339661477   -0.0114168244
 C   -1.1859782084   -2.1236341291   -0.0328126306
 N   -2.1759874290   -2.9922711824   -0.1428026031
 C   -1.5768585443   -4.2191191888   -0.0890759761
 O   -2.3003946116   -5.3581418041   -0.1740824644
 C   -0.2169150216   -4.1121393792    0.0519623949
 N    0.0078592290   -2.7432011898    0.0896226649
 H    1.0302160265    1.6494196362   -0.0641156671
 H   -0.5719007479    1.7747285382   -0.8397378007
 H   -0.4470703181    1.6838120148    0.9378175258
 H   -1.8273426261   -0.3059311075    0.9096944098
 H   -1.9372840007   -0.2996316208   -0.8572469798
 H   -3.2197553157   -5.0823013670   -0.2701078294
 H    0.5725258294   -4.8383412442    0.1192117954
 H    0.8878662530   -2.2615243834    0.1632547610