16

 C    0.0126870964    1.5629686803   -0.0114434992
 O    1.3954062746    1.9187642800   -0.1034283479
 C    2.0958591594    0.7038683332    0.1391540432
 O    1.3205821484   -0.2886385449   -0.4985046678
 C    0.0192834254    0.0064034696    0.0181849251
 C   -0.0852800448   -0.5616339496    1.4409281513
 C    1.1443243294   -0.1733145379    2.2292023266
 C    2.1743562154    0.4217996376    1.6300864459
 H   -0.4418266913    1.9888728089    0.8908652533
 H   -0.5027730085    1.9591400678   -0.8915902683
 H    3.0720355200    0.7625696430   -0.3464325479
 H   -0.7199643111   -0.4336913292   -0.6537094840
 H   -0.9921624784   -0.1824792358    1.9298572728
 H   -0.1882610380   -1.6549513165    1.4069801656
 H    1.1624273318   -0.3980777903    3.2921469354
 H    3.0578896213    0.7438030638    2.1711182461