20

 C    0.0830607875    1.5743984380    0.0935931237
 C   -0.0947589548    0.0642425041   -0.0877144520
 N    0.6323725972   -0.4811358035   -1.2267568967
 C    2.0746168771   -0.6742164156   -1.1441521464
 C    2.4531990983   -2.1041203440   -0.7012785345
 C    3.9499293067   -2.3087893265   -0.7274729024
 O    4.6231089943   -2.5911437507    0.2302413811
 C   -0.0083337831   -0.8935889723   -2.3553068443
 O    0.5385592892   -1.3962020010   -3.3169094048
 H    1.1321078330    1.8426114221    0.2513184792
 H   -0.2762714160    2.1151716089   -0.7868170148
 H   -0.4821909713    1.9179126218    0.9655199097
 H    0.2174763093   -0.4652339233    0.8212719992
 H   -1.1548428379   -0.1678039818   -0.2333047761
 H    2.4941578975   -0.4778520561   -2.1346085481
 H    2.4851156720    0.0601673028   -0.4458206117
 H    2.0830505311   -2.3254384721    0.3034321663
 H    1.9998598605   -2.7996403736   -1.4183655639
 H    4.4137303921   -2.1673064615   -1.7315339633
 H   -1.1009507626   -0.7185314757   -2.3040190700