19

 C    0.0047269898    1.4749214139   -0.1886254180
 C    0.0239660048   -0.0162643609    0.0211546962
 O    1.3080695870   -0.6616905623    0.0056832162
 C    0.5898643207   -0.6443864568    1.2222161547
 C    1.0864810361   -0.0113612885    2.5317716533
 C    0.4837483023   -1.2244034303    3.3144812927
 C    0.1444260091   -1.8928590550    1.9730582106
 C   -0.8154356555   -2.9416371888    1.6256497098
 O    0.5951432810   -3.1919637842    1.6334252674
 H    0.7811958993    1.9646405475    0.4043906134
 H    0.1762898840    1.7161418974   -1.2428023287
 H   -0.9686591153    1.8894570213    0.0960382434
 H   -0.7455396984   -0.5727298009   -0.5180049857
 H    2.1766200837    0.0382238520    2.5799754769
 H    0.6753336577    0.9708555954    2.7754815364
 H    1.1947779200   -1.7914246090    3.9181339530
 H   -0.3881920497   -0.9779330252    3.9249650481
 H   -1.3843700474   -3.4322950316    2.4151681949
 H   -1.2843033391   -2.9495447040    0.6421308857