19

 O   -0.1081611547    1.4760940855   -0.0300881355
 C   -0.0121581265    0.0671727365   -0.1699928599
 C   -1.3811714611   -0.5271670125    0.1556842381
 C   -1.3883162665   -2.0275032879    0.1039614553
 C   -1.5385051942   -2.8555812887   -1.1470644966
 C   -2.5563840733   -2.9968022023   -0.0431893503
 C   -1.9861363409   -3.8286942930    1.1475395491
 O   -0.6541703642   -4.2661864889    0.8356037826
 C   -0.8567300579   -2.9196513379    1.2855026105
 H    0.7479644260    1.8591693329   -0.2416727234
 H    0.2779687036   -0.2187690872   -1.1931003132
 H    0.7470947630   -0.3514653350    0.5109404780
 H   -1.6812031295   -0.1758992609    1.1516384956
 H   -2.1158828851   -0.1236558373   -0.5506246188
 H   -1.8896249217   -2.3018491465   -2.0127093467
 H   -0.8550768628   -3.6671761678   -1.3624187079
 H   -3.6060347333   -2.7637268620   -0.1663030541
 H   -2.5448877491   -4.4042213544    1.8751982364
 H   -0.2944948617   -2.5856661826    2.1500842908