19

 C   -0.0159105676    1.5962196802    0.7593851475
 C   -0.1487282081    0.2659057708    0.0058264078
 C    0.8268541131   -0.7984399335    0.5522280893
 C   -1.5584399912   -0.2830756235    0.1259857117
 O   -2.1724246702   -0.3242635199    1.1681505402
 C   -2.2409083880   -0.8584482384   -1.1406837867
 O   -3.4358342207   -1.4983745555   -0.7934246875
 C   -2.4363477320    0.2389611228   -2.0984042095
 C   -2.5962889334    1.1504720040   -2.8655203706
 H    1.0159269306    1.9564841330    0.7126486802
 H   -0.6654958703    2.3618072526    0.3254887900
 H   -0.2944125532    1.4686446765    1.8086362015
 H    0.0634203491    0.4234929685   -1.0571959190
 H    0.6270394900   -0.9907755631    1.6104324657
 H    0.7428350774   -1.7466157573    0.0114157370
 H    1.8571919882   -0.4451806140    0.4525698898
 H   -1.5464971939   -1.5901698730   -1.5854193325
 H   -3.5909738584   -1.2428463547    0.1323275254
 H   -2.7484505014    1.9445676645   -3.5545576401