22

 C   -0.0862629321    1.5914439665    0.0421329865
 C    0.0268641589    0.0559246131   -0.0394932047
 C    0.7184378953   -0.3862747725   -1.3447613019
 C    0.7130019116   -0.4861524486    1.1338740798
 C    1.2813481442   -0.9242247408    2.1029639363
 C    1.9916660651   -1.4340995365    3.2439518770
 N    1.2024692199   -2.0949360986    4.3173154273
 C    2.1387919596   -2.8998265351    3.5260379893
 C    1.5441912343   -3.9598755714    2.6350624009
 H    0.9070367670    2.0511949248    0.0415246292
 H   -0.6431473737    1.9772399209   -0.8179277129
 H   -0.6014307639    1.8993275219    0.9556166508
 H   -0.9930350357   -0.3539573314   -0.0462706299
 H    1.7402717931    0.0032658071   -1.3900582411
 H    0.7686893707   -1.4760668631   -1.4136959895
 H    0.1685630386   -0.0086745264   -2.2129403514
 H    2.8239606869   -0.8111069231    3.5671969123
 H    1.6059480561   -1.8595391661    5.2205963123
 H    3.0781989058   -3.1763608902    4.0044465361
 H    0.6321836052   -3.5919385810    2.1604332788
 H    2.2525022383   -4.2483451242    1.8510886363
 H    1.2950011550   -4.8544373254    3.2155361585