21

 C    0.1237515879    1.5494653286   -0.1788732046
 C    0.2080077623    0.0271995914   -0.0479024315
 C    0.3567251207   -0.4394588517    1.4085661415
 C    0.4257133300   -1.9436559148    1.5085023469
 O    1.6343413812   -2.5875117457    1.0954553408
 C    1.2474757406   -2.7090753172    2.4806325452
 C    2.1686292271   -2.0548474948    3.4904160664
 C    0.7775420102   -4.0233309235    2.8663501589
 C    0.3964824770   -5.1078919601    3.2180966743
 H    1.0228134385    2.0320407329    0.2203905745
 H    0.0208469156    1.8527364230   -1.2252252054
 H   -0.7364822614    1.9489826877    0.3700307752
 H   -0.6885171292   -0.4313626235   -0.4849922811
 H    1.0592119795   -0.3521751463   -0.6252160846
 H    1.2503848263    0.0152857279    1.8464209363
 H   -0.5018859270   -0.0912591424    1.9989328830
 H   -0.4721004443   -2.4546792437    1.1524974653
 H    2.5280378895   -1.0904766833    3.1300117772
 H    1.6501940832   -1.9119109347    4.4433630822
 H    3.0342425263   -2.6988668887    3.6706819212
 H    0.0566771261   -6.0686487611    3.5170785382