18

 O    0.0454774956    1.2579140168   -0.1692291030
 C   -0.0537041460   -0.1439860187   -0.0240108070
 C    0.0678845362   -0.6024527537    1.4370346809
 C   -1.3842220807   -0.4324470631    1.6586301599
 C   -1.5437238990   -0.5506657613    0.0920137358
 C   -1.4368068252   -2.0460098883    0.3338904761
 C   -2.4635875369   -3.1102509744    0.1726044067
 C   -1.1321173704   -3.1969886737   -0.5648606330
 N   -0.8085853052   -1.8098614235    1.6613937049
 H    0.9565152345    1.5143080503    0.0065706032
 H    0.5420323411   -0.6685940004   -0.7840888785
 H    0.8952553663   -0.4699851960    2.1236925057
 H   -1.9781578984   -0.0174364406    2.4607903389
 H   -2.2863870315   -0.0884029748   -0.5546630990
 H   -2.6167281988   -3.7824038717    1.0101673522
 H   -3.3558852980   -2.8893517730   -0.4040145447
 H   -1.1264352713   -3.0330960065   -1.6379712528
 H   -0.4139895124   -3.9304683474   -0.2141949962