18

 C   -0.0642883762    1.4466015184    0.0721157433
 C    0.0557373858   -0.0361386016   -0.0660499017
 C   -0.4785934061   -0.9676810682   -1.1909079351
 O    0.6626744881   -1.5988668943   -1.8170147058
 C    0.9457856642   -2.1263910666   -0.5000378062
 C   -0.5358371608   -2.0244844090   -0.0598945373
 N   -0.2480286829   -1.0092383389    1.0497273841
 C    1.1405348879   -0.9184873643    0.4599820362
 C    2.3481319970   -0.5155524629    1.2418805614
 H    0.4640738598    1.9548915156   -0.7422798616
 H   -1.1130584805    1.7608276387    0.0464602884
 H    0.3599662090    1.7875744156    1.0208936060
 H   -1.2615024186   -0.6519943493   -1.8782046467
 H    1.6105030988   -2.9883135145   -0.4851798146
 H   -1.2557096783   -2.8281026590    0.0764645776
 H    2.1323483679    0.3460432789    1.8802558584
 H    2.6878617682   -1.3306655411    1.8895597166
 H    3.1717146866   -0.2474234275    0.5706237569