21

 C   -0.0915658154    1.5984888433    0.2653263004
 C    1.4935175899    1.6886351738   -0.0891613319
 C    2.0021499452    2.3583120892   -1.4208773023
 C    1.8455722488    1.2609216678   -2.5668210994
 C    0.6685911208    0.5274356121   -1.9269061542
 C    0.0748300284   -0.8188726576   -1.4410287874
 C    1.5023001920   -1.2301410791   -0.9057516932
 C    1.2746393457    0.2452897649   -0.5054914074
 C   -0.1213608186    0.0038217825   -0.0335271520
 H   -0.2549554085    1.7377096753    1.3379602869
 H   -0.7522885574    2.2812252408   -0.2724575359
 H    2.0946308073    1.9643247185    0.7815678837
 H    1.4155526074    3.2500985990   -1.6680538194
 H    3.0429586117    2.6824580141   -1.3201849508
 H    1.6425275941    1.7143772896   -3.5407739003
 H    2.7588123210    0.6638973847   -2.6508351919
 H   -0.1365916896    1.2624735861   -1.9353585307
 H   -0.6278583389   -1.4809319301   -1.9583431582
 H    1.5346476914   -1.9443545131   -0.0787502513
 H    2.2391865076   -1.4775724633   -1.6749705820
 H   -0.3027296630   -0.6104413985    0.8530141172