19

 C    0.2454286556    1.6598907067    0.3103754842
 C    0.2487934693    0.1329854320    0.3812789938
 C    0.4373058579   -0.5349523969   -0.9977323016
 C    1.7190690900   -0.1987871488   -1.6163119093
 C    2.7856782732    0.0741905835   -2.0981924940
 C    0.3241488252   -2.0625055509   -0.8833743212
 O    0.4393906218   -2.6918170719    0.1353555104
 O    0.0730379301   -2.6075698579   -2.0854788544
 C   -0.0075184211   -4.0394395008   -2.1056943530
 H    1.1870831975    2.0382991514   -0.0977345821
 H   -0.5673919683    2.0288883657   -0.3254624164
 H    0.1098845743    2.0908177652    1.3065802501
 H    1.0399301071   -0.2229680980    1.0468249991
 H   -0.6947361583   -0.2308527995    0.8015445788
 H   -0.3637466038   -0.2098047988   -1.6748236332
 H    3.7227726611    0.3166389633   -2.5349455176
 H    0.9336644767   -4.4811363602   -1.7691572527
 H   -0.8130942810   -4.3888531264   -1.4550897541
 H   -0.2079528171   -4.3097431976   -3.1422235267