19

 C    0.0877448941   -1.1468234993    0.0027111612
 C    0.0417971558    0.0536703014   -0.0013166723
 C   -0.0604893443    1.4996947964    0.0076509012
 C   -0.8325786533    2.1112734569    1.2079537843
 C   -1.0954481794    3.5703664390    0.7171316395
 C   -0.4168031442    3.5920095654   -0.6731607766
 C    1.0970338316    3.4441852983   -0.4614701431
 O    1.2588352777    2.0905952600    0.0035407770
 C   -0.7399645637    2.1815470539   -1.2005760060
 H    0.1383280084   -2.2075110129    0.0030578143
 H   -1.7584783138    1.5633657165    1.4013373006
 H   -0.2120312897    2.0614634686    2.1043586275
 H   -2.1669681245    3.7708265214    0.6271402347
 H   -0.6759681970    4.3229131845    1.3905229731
 H   -0.6962245952    4.4327625886   -1.3093167228
 H    1.6652100924    3.5790794025   -1.3914895931
 H    1.4914839603    4.1396944949    0.2895860633
 H   -0.2509805054    1.9276204596   -2.1435060325
 H   -1.8091771798    1.9672631543   -1.2653396402