21

 C   -0.0156710393    1.5393178110    0.0821868117
 C   -0.0868724800    0.0366454405   -0.0469781765
 C    0.8111068500   -0.5510120323   -1.1450415036
 C    0.5354336274   -2.0621774663   -1.3366137963
 C    0.0790826830   -2.7348308711   -0.0204334822
 C   -0.6692159410   -1.7153030253    0.8330531273
 O    0.2665445840   -0.6570156090    1.2045244647
 C   -1.4703226129   -0.6831517061    0.0087900960
 O   -2.4612722539   -0.0066503720    0.7422160723
 H    1.0001913000    1.8463826209    0.3514140551
 H   -0.2796305983    2.0186499801   -0.8657866190
 H   -0.7018423742    1.9046996066    0.8495346396
 H    0.6643907002   -0.0177280974   -2.0913370127
 H    1.8477091601   -0.3786707937   -0.8338754464
 H   -0.2551448111   -2.1839063921   -2.0849952127
 H    1.4156762397   -2.5648802955   -1.7476623475
 H   -0.5499520717   -3.6069114048   -0.2327495915
 H    0.9359115785   -3.0858642153    0.5647911362
 H   -1.1689234496   -2.1476812061    1.7058684666
 H   -1.9348926526   -0.9939310701   -0.9291988625
 H   -2.0804051684    0.2079625180    1.6023550015