12

 C   -0.0177756804    1.5234060237    0.0135854756
 C    0.0011479748    0.0263661080    0.0146042100
 C   -0.0630406732   -0.8021104203   -1.0621482286
 O   -0.0207762048   -2.1087962365   -0.6812714439
 C    0.0739299007   -2.1150006969    0.6733440659
 C    0.0918208962   -0.8468664841    1.1559028116
 H    0.8928608122    1.9371163369    0.4615681828
 H   -0.0960512719    1.9167285392   -1.0037741692
 H   -0.8647995927    1.9149933794    0.5882908152
 H   -0.1390274462   -0.6254737668   -2.1227182304
 H    0.1181438746   -3.0876505672    1.1349571678
 H    0.1604480807   -0.5552639754    2.1928865930