20

 C    0.3982863923    0.8832726309   -0.4183700257
 O   -0.2016338066    0.0894630463    0.5964623764
 C    0.5888506073   -0.8665431161    1.1287025902
 N    0.1334787745   -1.6604313890    1.9912579094
 C    1.0189534664   -2.6435769459    2.5700210585
 C    0.5666422968   -4.1430730326    2.4886141468
 C    1.9538648446   -4.5026867306    1.9436543540
 C    2.1929406065   -3.7840465949    0.6500984607
 C    2.3753126804   -3.0301750669    1.9439181070
 H    0.6511917328    0.2842345705   -1.3019973886
 H   -0.3401245728    1.6358119778   -0.6979057056
 H    1.3025597483    1.3874102460   -0.0551832945
 H    1.6201441436   -0.8693224824    0.7481675358
 H    1.1596086415   -2.3785924125    3.6235808507
 H    0.3386570038   -4.5683852405    3.4678415116
 H   -0.2702061422   -4.3395229441    1.8122755278
 H    2.5423763218   -5.3617685263    2.2406687935
 H    3.1144939873   -4.0335688185    0.1336718106
 H    1.3583254258   -3.5623416851   -0.0105792013
 H    3.3344010278   -2.6041249763    2.2154489926