15

 C   -0.0909719607    1.4068026189   -0.0199175746
 N   -0.0527269761   -0.0392114015   -0.1108789006
 C   -1.2173071450   -0.8765249747    0.0586706090
 C   -0.5724284833   -2.2806009040   -0.0951387929
 O    0.8104668668   -2.0804585406    0.1798389847
 C    1.1159237973   -0.7492566630    0.0955978552
 O    2.2278883891   -0.3139983441    0.1797901268
 C   -1.8799097535   -0.6795067323    1.3661374014
 N   -2.4007164371   -0.5104502834    2.3834974971
 H    0.9393880155    1.7604698563   -0.0697737331
 H   -0.6620057743    1.8304963553   -0.8522318113
 H   -0.5395748411    1.7377841807    0.9246429135
 H   -1.9655805422   -0.6987848170   -0.7218943896
 H   -0.9747136961   -3.0141113721    0.6036600931
 H   -0.6931651094   -2.6410211085   -1.1216385688