18

 C    0.0315422829    1.5323517221   -0.0973175955
 C    1.5133271657    1.8633520447    0.0166745591
 C    2.1729060716    0.7286330904    0.7876622512
 C    1.0837550037   -0.2778342083    1.1326458885
 C    0.0533143990   -0.0051158758    0.0184243387
 O    0.4963243670   -0.5816742482   -1.2090748708
 C    1.7802104901   -0.1293458425   -1.6418509369
 C    2.4087283943    0.8785593156   -0.6960773286
 H   -0.5342641175    1.9812877136    0.7277058470
 H   -0.4275070097    1.8469015899   -1.0395354015
 H    1.8363609009    2.8909661630    0.1362781867
 H    2.9860045139    0.9131654808    1.4800968472
 H    1.4138681634   -1.3209438382    1.1129166102
 H    0.6583031712   -0.0703315527    2.1217252447
 H   -0.9268567857   -0.4470923894    0.2064667604
 H    2.4372004108   -1.0053092477   -1.7479467278
 H    1.6710741493    0.3126424850   -2.6433221164
 H    3.3859497490    1.2337629879   -1.0093039262