17

 C   -0.4332337884    1.2730708474    0.0804426681
 C    0.0832205648   -0.1508529888   -0.1382326403
 O    1.0742260381   -0.2015579039   -1.1599969947
 C    0.7573126668   -0.6855260070    1.1069884338
 C    0.0617232201   -1.3387303446    2.2407823595
 O   -1.0942474857   -2.0833778062    1.7669726841
 C   -0.2518018799   -2.9454094443    1.0602683031
 O   -0.5626954066   -3.9335814838    0.4830257458
 C    0.9978769558   -2.1784817022    1.4006919441
 H    0.3874191765    1.9434360731    0.3552420031
 H   -0.8950009336    1.6576705601   -0.8355384355
 H   -1.1898741162    1.2967988873    0.8709344975
 H   -0.7654344890   -0.7998970522   -0.3930481146
 H    0.6696009736    0.0980463809   -1.9802233658
 H    1.6194156837   -0.0933487211    1.4118758090
 H    0.0783160040   -1.0786367286    3.2897074620
 H    1.9772270959   -2.5914933863    1.5901841908