18

 C   -0.3180547535    1.5775155845   -0.0698832746
 C   -0.0144347695    0.0802619171   -0.0121455250
 N    0.7536411439   -0.4260869231   -1.1370630052
 C    1.9006082392   -1.1146081411   -0.8408350111
 O    2.6915975113   -1.5545587058   -1.6448569443
 C    1.9857938185   -1.2293176912    0.6852361923
 C    3.3766371314   -0.9817737432    1.2673008391
 C    0.8958715925   -0.2876147566    1.1783071378
 O    0.7607464831    0.1452937539    2.2919829398
 H    0.6012654936    2.1539868796   -0.2078644123
 H   -1.0001674190    1.8082106095   -0.8935484976
 H   -0.7860350212    1.8870924696    0.8676603019
 H   -0.9590534067   -0.4740011616    0.1060350892
 H    0.4997366143   -0.2610716187   -2.0991417124
 H    1.6616712976   -2.2502674200    0.9386000637
 H    3.7151362018    0.0359333223    1.0523305204
 H    3.3634038516   -1.1138734816    2.3512663928
 H    4.0906041511   -1.6781481435    0.8227465156