19

 C   -0.5151623695    1.5890484706    0.4582759044
 C   -0.0247144295    0.1948141143    0.1941906155
 C   -0.8594687545   -1.0337712756    0.4701017154
 C    0.4384286059   -0.7925242193    1.2292197802
 C    1.7008778904   -1.4209905205    0.6730203915
 C    1.6427554653   -1.0389945950   -0.8363818114
 O    0.8398995676    0.1448942262   -0.9217714783
 C    2.9464032667   -0.8063772965   -1.4437378117
 C    4.0318555289   -0.6493957087   -1.9337554733
 H    0.3271693687    2.2703547681    0.6138614682
 H   -1.1009187368    1.9608002302   -0.3887575971
 H   -1.1510880572    1.6092691540    1.3474571007
 H   -1.7829283897   -0.8907733396    1.0211173129
 H   -0.9039280187   -1.8272470510   -0.2687054625
 H    0.3951304758   -0.5658654278    2.2884387965
 H    2.5812068692   -0.9723178113    1.1419221031
 H    1.7641473132   -2.5056931674    0.7972375090
 H    1.1433417121   -1.8475304695   -1.3905237051
 H    4.9876217121   -0.5013326513   -2.3723162879