20

 C    0.3123834705    1.5681657586    0.2141448029
 C   -0.1398082913    0.1326339074   -0.0755759225
 C    0.5938218403   -0.4939669594   -1.2612347509
 C    1.9542921303   -1.1523554427   -1.0544943711
 C    0.7760456318   -2.0037006976   -1.4194204861
 C    0.1835391334   -2.9978328317   -0.4522652157
 O    0.9409770998   -4.1927857403   -0.5766973751
 C    0.4141542186    0.2256312033   -2.5008952200
 N    0.2547506357    0.8100904225   -3.4870506798
 H    1.3812353955    1.6044291925    0.4481347718
 H    0.1354052809    2.2194156882   -0.6468624655
 H   -0.2354858399    1.9792505473    1.0668937098
 H    0.0281780478   -0.4874719083    0.8095469995
 H   -1.2183687992    0.1158435272   -0.2716130197
 H    2.7285737789   -0.9843908398   -1.7929311534
 H    2.3045207184   -1.1908580575   -0.0279274144
 H    0.7512761381   -2.3553847704   -2.4462277730
 H    0.2221391468   -2.6123193067    0.5769892921
 H   -0.8756005733   -3.1697532770   -0.7002312191
 H    0.5171090969   -4.8730748056   -0.0448262999