17

 C    0.0757245053    1.3108838426   -0.0638367304
 O   -0.0089432694   -0.1086646736    0.0985186084
 C    0.5826558809   -0.5930676157    1.1862626615
 N    1.1886765080    0.0809762884    2.0869895119
 C    1.6708810872   -0.8941241068    3.0625166508
 C    1.4339588420   -2.3002827140    2.3979724269
 N    0.4822757773   -1.9771373764    1.3426273832
 C    2.7136201450   -2.9056146504    1.8513654050
 O    2.8952781968   -3.1601388795    0.6880275981
 H    1.1201537283    1.6292768394   -0.1147628707
 H   -0.4399981545    1.5319087924   -0.9985724631
 H   -0.4075731185    1.8215185464    0.7730025157
 H    2.7260754058   -0.7243870270    3.3079260463
 H    1.1068109852   -0.8143040244    3.9993258830
 H    1.0239841013   -3.0122148420    3.1263345802
 H    0.6121054165   -2.5061014352    0.4866340767
 H    3.4924166728   -3.1078050642    2.6209703364