13

 O   -0.1151368260    1.4573612434   -0.0042668976
 C   -0.0205909902    0.0979594069    0.0163604326
 C   -0.2236736620   -0.8008301347   -1.2066282992
 C   -1.1180652164   -0.9651502720   -0.0137376858
 O   -0.3870690202   -1.7623415602    0.9736714882
 C    0.5633372575   -0.7566008482    1.1275892153
 O    1.4470105249   -0.7071941249    1.9148105105
 C   -2.5270620071   -0.8881638646    0.0563371296
 C   -3.7261570825   -0.8203515811    0.1069615014
 H    0.5675001515    1.8135107501   -0.5843204593
 H   -0.6677457795   -0.2737784955   -2.0461489297
 H    0.4785115238   -1.5912573502   -1.4519026869
 H   -4.7855869340   -0.7613131790    0.1587312409