19

 C   -0.0863304585    1.3598214990   -0.2072365021
 O    0.0419767431   -0.0634398337   -0.0824375802
 C    0.5924407440   -0.6972752948   -1.1431702441
 O    0.9568270510   -0.1258598181   -2.1393211371
 C    0.6260579490   -2.2037669550   -0.9271942531
 O    0.5558627539   -2.5637416531    0.4264387951
 C   -0.3793429074   -2.9073265278   -1.9129932240
 C    0.8076754255   -3.1989216767   -2.8674213823
 C    1.7842679123   -2.8848476673   -1.7034051823
 H    0.8954786899    1.8204269609   -0.3387029142
 H   -0.7125792263    1.6122770654   -1.0660976133
 H   -0.5485248201    1.6997795902    0.7192679710
 H    0.0618243925   -1.8777540600    0.8895101073
 H   -0.7575719800   -3.8078855480   -1.4234132084
 H   -1.2186361496   -2.3214453042   -2.2952536338
 H    0.8568231135   -4.1992873677   -3.3009638322
 H    0.8810244504   -2.4574048759   -3.6640791951
 H    2.6573282112   -2.2688485096   -1.9231009656
 H    2.0903540157   -3.7799952335   -1.1574049356