12

 C   -0.0183507017    1.4199263092   -0.0285616323
 C    0.0027029977   -0.0667834976    0.0073376241
 N   -0.0654689192   -0.7945731312   -1.1115568274
 N   -0.0124291711   -2.0411819349   -0.5795696129
 N   -0.0263194213   -3.3064768845   -1.0104929163
 N    0.0524534167   -4.0636944284   -0.0142386932
 O    0.1267799351   -3.2411570680    1.2094793049
 C    0.0804395107   -1.9942391417    0.7704082252
 N    0.0946380649   -0.7650708748    1.2067800452
 H    0.8955845927    1.8222908947    0.4188586683
 H   -0.1022988243    1.7706403388   -1.0576544099
 H   -0.8615876302    1.8005732385    0.5555678243