18

 C   -0.1752447208    1.4260138218   -0.3271940092
 C    0.2350544895   -0.0355638595   -0.2570933594
 N    1.4802486738   -0.4254201602   -1.0155739727
 C    1.9307168239   -1.2365984274    0.1426732258
 C    2.4029358449   -2.5708750087    0.0239866816
 N    2.7984578296   -3.6558184540   -0.0769285579
 C    2.2713472920   -0.2521674070    1.2520137794
 N    2.8390142061    1.0417758312    1.0062971305
 C    0.8280181517   -0.6186449411    1.0341651871
 H   -0.4070055804    1.7099676395   -1.3591046092
 H   -1.0757391629    1.5890762961    0.2747923552
 H    0.6084236974    2.0841733288    0.0523118829
 H   -0.6032722379   -0.6721415569   -0.5658452766
 H    1.2724325383   -0.9964149339   -1.8273736243
 H    2.6724963055   -0.7328783554    2.1395871648
 H    3.8402460723    1.0032748261    1.1733070213
 H    2.7177398070    1.2645078689    0.0201297713
 H    0.2451785900   -1.0965629185    1.8113710996