19

 C   -0.0265106560    1.5431706940   -0.0526082891
 C    1.3933200054    2.1301517137    0.0055268188
 C    2.0742272920    1.8274293429    1.3542363360
 C    1.9015832349    0.3790271225    1.7171811121
 C    2.5409368744   -0.3970130923    2.6317020930
 O    2.0168292672   -1.6530450735    2.6468465987
 C    1.0216817743   -1.6762635138    1.7185813198
 C    0.9018032143   -0.4654616469    1.1128180573
 C   -0.0035612031    0.0036763542    0.0084477909
 H   -0.6123883827    1.9352438592    0.7894187099
 H   -0.5345538348    1.8671426753   -0.9670080345
 H    1.9917568537    1.7052366490   -0.8113597266
 H    1.3639205438    3.2127797676   -0.1564758134
 H    3.1339450711    2.1036782636    1.3193194178
 H    1.6193695790    2.4610410782    2.1286010381
 H    3.3468616165   -0.2193508475    3.3251089299
 H    0.5074589099   -2.6172839687    1.6092785892
 H   -1.0182994184   -0.3902719279    0.1335356241
 H    0.3564108485   -0.3818378694   -0.9558120920