19

 C    0.3391789519    1.3828226425    0.3050109338
 C   -0.4091260769    0.2158509826   -0.3650935903
 C    0.3279789894   -0.3828173656   -1.4724911146
 C    0.9585566202   -0.8670310470   -2.3784185917
 C    1.6862074264   -1.4380304159   -3.4718393626
 C    3.1417801654   -1.8212501701   -3.3233323306
 C    2.1099920192   -2.9201646263   -3.4592217311
 C    1.7930952594   -3.7688724546   -2.3513993252
 C    1.5250100951   -4.4997736060   -1.4348109771
 H    1.2992279968    1.0481324157    0.7072308598
 H    0.5360448383    2.1823454695   -0.4144200918
 H   -0.2540698961    1.7958966400    1.1264804390
 H   -0.6272299723   -0.5573924706    0.3828770889
 H   -1.3850108884    0.5658858082   -0.7260888086
 H    1.3951776672   -1.0791751195   -4.4553756701
 H    3.8037565840   -1.6439347609   -4.1632926035
 H    3.5861182415   -1.6860351576   -2.3452217493
 H    2.0594716327   -3.4034786761   -4.4306425198
 H    1.2869257162   -5.1389696282   -0.6215097353