16

 O   -0.4620333772    0.8032493151    0.9383561510
 C    0.0685176438    1.0739290809   -0.1062095288
 C    1.4159875805    1.7766203881   -0.2268490320
 C    1.3752257220    2.8751254140   -1.2627926480
 N    1.2325203894    2.4763433958   -2.5343320773
 C    1.1682746047    3.4142938000   -3.4814294564
 C    1.2466208513    4.7796533653   -3.2225643600
 C    1.3901170301    5.1889388704   -1.9010665577
 C    1.4504296199    4.2227533118   -0.9033999579
 H   -0.3924934270    0.8208499942   -1.0848358009
 H    1.7131795212    2.1395463611    0.7590874777
 H    2.1353280201    1.0151399216   -0.5559738781
 H    1.0522068457    3.0542016845   -4.5010828793
 H    1.1953276031    5.4959839101   -4.0344823362
 H    1.4537091555    6.2426597316   -1.6500881718
 H    1.5577707170    4.5025058552    0.1388301758