14

 C    0.0892969845    1.5686054091    0.1089359547
 C    0.0194858437    0.0411920847   -0.0339438574
 C    0.6880059437   -0.4480788381   -1.2793535650
 N    0.4778334685   -0.0165456948   -2.5132540280
 C    1.3201462147   -0.7835989100   -3.2584956044
 N    2.0396721746   -1.6601454310   -2.5788387599
 N    1.6190992289   -1.4271054534   -1.3104670355
 H    1.1251869604    1.9082180275    0.2011143544
 H   -0.3447757860    2.0490797161   -0.7706392716
 H   -0.4599258571    1.8966859784    0.9958487768
 H    0.4733898212   -0.4473769897    0.8360082722
 H   -1.0305785068   -0.2748054302   -0.0550547045
 H    1.4060291693   -0.6929744999   -4.3311427633
 H    2.0044684405   -1.9626792584   -0.5498255186