23

 C    0.0509993563    1.6193547746    0.0065096098
 C    0.0431691221    0.0884665039    0.0464262627
 C    0.6006545481   -0.5403534711   -1.2369794995
 C    0.6146784483   -2.0810315059   -1.2445427462
 C   -0.7984603457   -2.6585067540   -1.4585565846
 O   -0.9430915473   -4.0006550990   -1.0435745470
 C    1.6093414909   -2.5759992402   -2.3269254327
 C    1.7317982377   -4.0257386511   -2.4577111127
 C    1.8419901383   -5.2188372090   -2.5752129262
 H    1.0658756210    2.0071581765   -0.1364590614
 H   -0.5651818084    1.9975420485   -0.8168274182
 H   -0.3396439268    2.0438988798    0.9363818330
 H    0.6375941224   -0.2595969560    0.9011089872
 H   -0.9796486892   -0.2625311752    0.2272500250
 H    0.0255631865   -0.1806090412   -2.1031192882
 H    1.6239982835   -0.1706241158   -1.3867575620
 H    0.9639137930   -2.4421563581   -0.2689263440
 H   -1.5214012864   -2.0888355990   -0.8665131177
 H   -1.0822433538   -2.5253440770   -2.5182073042
 H   -0.3073438608   -4.5301487841   -1.5398334395
 H    1.3090007700   -2.1577504905   -3.2979302635
 H    2.6025743709   -2.1613847065   -2.1135557622
 H    1.9532346793   -6.2700299795   -2.6794594778