18

 C   -0.2666716091    1.3375715670    0.1501903751
 O    0.3479299786    0.0839959099   -0.1082696350
 C    0.8258813391   -0.5329935182    1.0468898950
 C   -0.2291368806   -1.2536461249    1.9562235781
 O   -1.2164013877   -0.9347499525    2.5644211614
 N    0.4155021658   -2.4532751191    1.7665360360
 C    1.3875741580   -1.9439296548    0.8130745787
 C    1.7734234181   -2.5461146285   -0.4941683493
 C    2.7983796812   -2.3923152055    0.6244834550
 H    0.4475890394    2.0449910952    0.5990290748
 H   -0.5996740042    1.7302673779   -0.8127266728
 H   -1.1266826717    1.2315981611    0.8214694159
 H    1.4944529046    0.1287782877    1.6188670638
 H    0.1719166370   -3.3932196059    2.0433116151
 H    1.4241655693   -3.5479256130   -0.7220222341
 H    1.8291895326   -1.8799656280   -1.3481003521
 H    3.5711719472   -1.6373130420    0.5220545118
 H    3.1207094725   -3.2932336763    1.1367639425