20

 C    0.1845439589    1.6099391460    0.0101509149
 C    0.0117121748    0.0805664892    0.0477049659
 C    0.6686812343   -0.6315793780   -1.1616318498
 C    2.1266596936   -0.8744404949   -0.7290248014
 C    2.0293558203   -1.2364849803    0.7600116735
 O    3.1920154476   -0.8269728149    1.4503542809
 C    0.7546414011   -0.5315126275    1.2204750444
 N    0.3110111012   -0.4419134487    2.4091468600
 O    1.1719010040   -1.1071163918    3.3238957337
 H    1.2395459093    1.8934875775   -0.0589563330
 H   -0.3383119531    2.0317111654   -0.8545406564
 H   -0.2237900458    2.0620892693    0.9178476451
 H   -1.0569285466   -0.1430389556    0.1162038653
 H    0.1682030102   -1.5895181254   -1.3443617305
 H    0.5914185794   -0.0453166410   -2.0813178077
 H    2.6303532453   -1.6436947533   -1.3184207818
 H    2.7176369474    0.0437260332   -0.8095147362
 H    1.8673762273   -2.3223358304    0.8767308610
 H    2.9995450432   -0.9424104353    2.3894030331
 H    0.7482694374   -0.9303227534    4.1698149287