17

 C    1.0135222192   -0.6339927028   -0.8172289818
 C   -0.3924099303   -0.9467811281   -1.2125359224
 N   -0.1090489675   -0.1444321094   -0.0325603134
 C   -0.3607252328   -0.6352272558    1.2575955149
 C    0.6371586592   -0.6157061384    2.2428649392
 N    0.4455582493   -0.9986878800    3.5031795445
 C   -0.7733850469   -1.4250270742    3.8460754512
 C   -1.8356827702   -1.4834911256    2.9480421176
 C   -1.6292011178   -1.0837390791    1.6341848591
 H    1.6036831710   -1.4480206566   -0.4014328978
 H    1.5813455812    0.1210058152   -1.3527415715
 H   -0.8619408041   -0.4223874933   -2.0395268367
 H   -0.7346397762   -1.9682847130   -1.0586752277
 H    1.6342467455   -0.2657281427    1.9838551054
 H   -0.9042352570   -1.7325508496    4.8801979098
 H   -2.8081754141   -1.8380900888    3.2722944993
 H   -2.4325116086   -1.1096179778    0.9051406503