18

 C   -0.1021938359    1.5671063772    0.0332008119
 C    0.0316533933    0.0720049897    0.0138680555
 C   -0.8391893879   -0.8463232455    0.8279611312
 C    0.6507642003   -0.8845328919    1.0359928722
 C    1.3015909353   -1.7207094708   -0.0873776497
 C    0.6684364911   -0.7250428880   -1.1345914928
 C    2.7509222528   -1.7457721251   -0.0793611470
 C    3.9536605120   -1.7558581197   -0.0658329465
 H    0.8428668717    2.0557280993   -0.2299637166
 H   -0.8620810220    1.9074503172   -0.6811607074
 H   -0.3998129559    1.9248075619    1.0244766061
 H   -1.4021415587   -0.3656607491    1.6223644065
 H   -1.3529236834   -1.6892620781    0.3685104335
 H    1.1156783623   -0.6733008581    1.9912806756
 H    0.9163644415   -2.7457604285   -0.1493980729
 H   -0.0160917866   -1.1649788682   -1.8674052824
 H    1.4439316816   -0.1653224442   -1.6606432950
 H    5.0151380887   -1.7731275081   -0.0560020122