12

 C    0.0032482599   -1.1930213935   -0.1078113108
 C    0.0554629937    0.0067402080   -0.0383725980
 C    0.0721293778    1.4154813342    0.1075441053
 O    0.2176006535    2.2849624911   -1.0244863909
 C    1.1457789142    2.4252538265    0.0389222218
 C    0.4564808390    3.2459008254    1.2004544959
 O   -0.8692989028    3.5664206870    0.7808957347
 C   -0.6176208030    2.2596497657    1.2720358889
 H   -0.0337691415   -2.2517938610   -0.1837205678
 H    2.2031267494    2.3160927296   -0.1678652235
 H    0.9299029384    3.8572485201    1.9572549491
 H   -1.2063545386    1.8715815269    2.0931652851