19

 C   -0.0354620081    1.5707941614    0.1651412716
 C    0.0388803787    0.0698974669   -0.0218750142
 C    0.6190507697   -0.5902332486   -1.2419585200
 C    1.1958228943    0.1816624681   -2.4095750422
 O    1.9556522155   -0.6502199127   -3.2743170969
 C    1.3717301537   -0.6732723997    0.0953734467
 N    2.5653815338    0.1225643107    0.2491464061
 C    1.3546333031   -1.9474227523    0.7828058329
 N    1.3812058554   -2.9602540355    1.3435259445
 H    0.8718908147    2.0734962298   -0.1712951388
 H   -0.8839500469    1.9804679338   -0.3927522086
 H   -0.1869901850    1.8182392716    1.2210607287
 H   -0.7943913943   -0.4673966191    0.4215699577
 H    0.1424244262   -1.5169567220   -1.5479665054
 H    0.3746032238    0.5667449775   -3.0237679156
 H    1.7822900871    1.0368826944   -2.0564409203
 H    2.7369787455   -0.9404837632   -2.7935208919
 H    2.6709225620    0.4233958249    1.2136145229
 H    3.3911120207   -0.4228620859    0.0212371228