23

 C    0.0501863461    1.4766742989   -0.0041145284
 C    0.0197249938    0.0203520152   -0.0115473621
 C   -0.0030208951   -1.1842286874   -0.0063377717
 C   -0.0404318033   -2.6471108533   -0.0253014751
 C   -1.4877308104   -3.1589018296    0.1241477615
 C    0.6528547504   -3.1865840178   -1.2998208157
 C    0.9098744456   -4.6996985343   -1.2862393414
 C    1.6201078426   -5.1680051127   -2.5570239052
 O    1.6277836926   -5.0975202344   -0.1177901227
 H    1.0780339523    1.8553642035   -0.0372037121
 H   -0.4817639019    1.8930816663   -0.8670051267
 H   -0.4203581984    1.8813357923    0.8990811751
 H    0.5364654082   -3.0225778361    0.8295508650
 H   -2.0961188769   -2.8569625328   -0.7346946162
 H   -1.5132398925   -4.2492708375    0.2028907314
 H   -1.9486294841   -2.7446716816    1.0245027645
 H    0.0522467455   -2.9252646225   -2.1799891524
 H    1.6149708039   -2.6705643349   -1.4203512681
 H   -0.0448356075   -5.2317606834   -1.2041749494
 H    2.5836240817   -4.6559881112   -2.6746882553
 H    1.8079726333   -6.2441271236   -2.5116384172
 H    1.0209414891   -4.9555056705   -3.4483371185
 H    2.5014998949   -4.6921434128   -0.1617707394