18

 C   -0.0368328878    1.5291610279    0.0588591426
 N    1.4946189888    1.3951984758   -0.0231967127
 C    1.8139655777    0.7758304598    1.3001189637
 C    0.9883929865   -0.4973313508    1.1503135579
 C    1.5440346510   -1.2546077954   -0.0799333234
 C    0.2709342833   -2.0570891534   -0.5133286710
 O   -0.8148579634   -1.0860312839   -0.3416222989
 C   -0.0218560528    0.0101299457    0.0296567057
 C    1.2600725887    0.0740218434   -0.8098803175
 H   -0.4095423641    2.0685861781    0.9343320135
 H   -0.4075433842    1.9850979340   -0.8612888309
 H    2.8925175273    0.6107435331    1.3873011936
 H    1.4900286923    1.4250779542    2.1180540443
 H    0.6240013532   -1.0417280651    2.0211391280
 H    2.4848787925   -1.8098220472   -0.0887449754
 H    0.2985005675   -2.3835935413   -1.5587534157
 H    0.0870045872   -2.9209513746    0.1329505496
 H    1.2694794962    0.1989000098   -1.8905346335