16

 C   -0.0734606258    1.5946895373   -0.0212421497
 C    0.0283466623    0.0652421460   -0.0232650597
 C   -1.2830909763   -0.5363279072    0.2170180203
 N   -2.3302160946   -0.9960035199    0.3838386712
 C    0.7649862976   -0.6573814581   -1.1771895779
 C    2.1997694947   -0.3457521824   -1.1895101745
 N    1.7170832781   -1.3615266266   -0.2066694515
 C    1.1055872565   -0.5989060275    0.8655148627
 N    1.3132438422   -0.5418578469    2.0974341950
 H    0.8959517721    2.0487375910   -0.2365146953
 H   -0.7953313795    1.9351219848   -0.7682159424
 H   -0.4009012110    1.9381025503    0.9629228819
 H    0.2656740259   -1.2161316955   -1.9587433185
 H    2.8013859864   -0.7912949571   -1.9747842554
 H    2.5710945087    0.6035571771   -0.8153029645
 H    2.0933246425   -1.1467269655    2.3674718782