19

 C    0.0666066627    1.5147540112   -0.1048466313
 C    0.0163585765    0.0022127762   -0.0276687143
 C    1.3206156435   -0.7661067460   -0.1479355862
 C    0.6313858469   -0.6751050654    1.1843913617
 C   -1.1929094141   -0.6246555574   -0.6102956642
 C   -2.2694223484   -0.0169420472   -1.2091808874
 N   -3.1172971044   -1.0429677969   -1.5778933413
 C   -2.5288279217   -2.2071991534   -1.1930516481
 N   -1.3733764639   -1.9953146742   -0.6096523047
 H    0.9877212282    1.8958180679    0.3453700900
 H    0.0355307114    1.8627807618   -1.1441706392
 H   -0.7769043849    1.9698596428    0.4277668119
 H    1.2813687713   -1.7173760012   -0.6651516301
 H    2.2271633815   -0.1901857715   -0.3035467154
 H    1.0618644743   -0.0364029370    1.9488943284
 H    0.1351605527   -1.5660141517    1.5505207389
 H   -2.5099159111    1.0138426561   -1.4044679674
 H   -4.0044585471   -0.9433101815   -2.0409214017
 H   -2.9859416332   -3.1706494126   -1.3637805198