22

 C    0.6665547905   -0.3455395110    1.2583423135
 N    0.1073322212   -0.1378339571   -0.0708532531
 C    1.0729355568   -0.4239437161   -1.1273110783
 C   -1.2244778394   -0.6961465294   -0.2401404695
 C   -1.9842805433   -0.1220243856   -1.4559695839
 C   -2.1405592319    1.3997587986   -1.3909004557
 O   -2.9257713333    1.9067474169   -2.4585732574
 C   -1.3254463343   -2.2216777846   -0.2597577191
 O   -0.3967337686   -2.9855656942   -0.1952105900
 H    1.5641822900    0.2722229332    1.3697770147
 H   -0.0555371606   -0.0218395973    2.0159378324
 H    0.9430501051   -1.3907907914    1.4666504440
 H    1.3943549700   -1.4743978884   -1.1614997000
 H    0.6598604483   -0.1582837127   -2.1044645310
 H    1.9569482897    0.2029690894   -0.9686085562
 H   -1.8080187851   -0.3990774823    0.6485006281
 H   -1.4793547556   -0.4032744563   -2.3888521720
 H   -2.9821738107   -0.5730876293   -1.5000856502
 H   -2.6733717615    1.6737638885   -0.4730194849
 H   -1.1535375946    1.8769876319   -1.3434343319
 H   -2.4141763162    1.8216567981   -3.2690731035
 H   -2.3748298267   -2.6007428609   -0.3341537561