22

 C   -0.0797851975    1.6145072395    0.0806480297
 C    0.0020467448    0.0854918456    0.0002696272
 C    0.6980854300   -0.4139273363   -1.2787884817
 C   -0.0288738791   -0.0521135933   -2.5777741801
 C    0.6282945913   -0.6694678899   -3.8062933367
 O   -0.1076055316   -0.2550052452   -4.9459814543
 C    0.7398911551   -0.4954030523    1.2328553126
 C    0.0731085255   -0.1996355095    2.4990098927
 N   -0.4698180841    0.0392453218    3.4910579519
 H    0.9203061079    2.0622373049    0.0309436237
 H   -0.6713269942    2.0250167192   -0.7411739074
 H   -0.5454158011    1.9342135014    1.0172505794
 H   -1.0188768783   -0.3180386619    0.0130182308
 H    1.7229986863   -0.0162588875   -1.3063304480
 H    0.7973325552   -1.5067560906   -1.2203197301
 H   -1.0709523372   -0.3924188935   -2.5347036160
 H   -0.0588338386    1.0332202740   -2.7199983591
 H    1.6798898894   -0.3431156247   -3.8687618159
 H    0.6353063807   -1.7681201373   -3.7121918000
 H    0.2994238676   -0.6421709682   -5.7263289413
 H    0.8300931003   -1.5837992618    1.1403057180
 H    1.7614326876   -0.0972109845    1.2780335844