18

 C   -0.0377960410    1.4910047234   -0.2187817684
 C   -0.0334686075    0.0174612769    0.1072519695
 O   -0.0829641010   -0.4540825899    1.2141315407
 O    0.0349958883   -0.7029890719   -1.0397611467
 C    0.0532246104   -2.1583022658   -0.9926222351
 C    1.3064207757   -2.6821756872   -0.2733136804
 C   -1.2510181952   -2.7184289466   -0.4030769093
 C    0.1310051238   -2.5315929352   -2.4212833774
 N    0.1917277134   -2.8691702398   -3.5238110445
 H    0.8681570008    1.7545544593   -0.7714685216
 H   -0.8899625985    1.7296168254   -0.8610622180
 H   -0.0930265681    2.0640564699    0.7057492601
 H    1.2497427621   -2.4398498793    0.7870214011
 H    1.3696730805   -3.7663695334   -0.3961444171
 H    2.2040898762   -2.2330038452   -0.7046305852
 H   -2.1127696623   -2.2941819191   -0.9236511949
 H   -1.2708447924   -3.8037973287   -0.5301471065
 H   -1.3088012251   -2.4761423228    0.6572077337