23

 C    0.0828153637    1.5384120861    0.1003985699
 C    0.0020157958    0.0078771448   -0.0076854919
 C    0.6406216809   -0.6430603851    1.2344367226
 C   -1.4811572868   -0.4229617378   -0.1138504641
 C    0.6985697176   -0.4461876456   -1.3085216301
 O    0.8984450009    0.3318679542   -2.2165435586
 C    1.1038426004   -1.9073928934   -1.4428142931
 C    1.5179184584   -2.2789292115   -2.8593810226
 O    1.8807980027   -3.6527001065   -2.8408299796
 H    1.1206421507    1.8729932887    0.1922637105
 H   -0.3379082104    2.0164634955   -0.7859520276
 H   -0.4663510132    1.8825270935    0.9827671340
 H    0.1423407055   -0.2791979794    2.1390600977
 H    0.5501275670   -1.7328746508    1.2264526464
 H    1.7028883747   -0.3898958762    1.3181742935
 H   -1.9612824272    0.0321099175   -0.9855687513
 H   -1.5894504064   -1.5092665750   -0.1915326482
 H   -2.0247284637   -0.0989639489    0.7799085117
 H    1.9389768238   -2.1053916160   -0.7584982228
 H    0.2922882556   -2.5630546174   -1.1067917669
 H    0.6841184064   -2.0887181970   -3.5511742975
 H    2.3514170023   -1.6394387381   -3.1788815264
 H    2.1691797810   -3.8954960413   -3.7253177655