18

 C   -0.1390539419    1.4644511823   -0.0272859946
 C    1.4014679201    1.4930765388   -0.2074605620
 C    1.4757464636    0.1310452297    0.5541838255
 C   -0.0413452728   -0.0614400450    0.2346254372
 C    2.4634456527   -0.9009845966    0.1486528234
 N    3.3476252235   -1.4973234792    0.9356791776
 C    3.9993304719   -2.3427601093    0.0909190972
 N    3.5869105921   -2.3176975098   -1.1646855646
 N    2.6019721798   -1.3870843133   -1.1081256181
 H   -0.4491682591    2.0073717448    0.8696866778
 H   -0.7548537375    1.7977902565   -0.8649159001
 H    1.6879203626    1.3806236503   -1.2580626149
 H    1.9617601790    2.3297624210    0.2146701266
 H    1.6185696051    0.3023589102    1.6226748455
 H   -0.6629431361   -0.4981492343    1.0188871048
 H   -0.1870657238   -0.6395042479   -0.6835650074
 H    4.7992259721   -2.9944227742    0.4097139785
 H    2.0937613386   -1.1535042538   -1.9447545423