17

 C    0.0187061015    1.7906384239   -0.0844051796
 C   -0.0460173145    0.2630663988    0.0228422182
 N   -1.4156679514   -0.2206153006    0.0547713702
 C   -1.9950174186   -0.7349010055    1.1749948564
 O   -1.4571843445   -0.8262720284    2.2573101788
 C    0.6708956037   -0.4569908285   -1.1475590912
 O    0.0256647479   -0.2218097917   -2.3910505279
 C    2.1004656143   -0.1055578195   -1.2080795098
 N    3.2126935589    0.2025450747   -1.2656754378
 H    1.0548100250    2.1410219039   -0.1007123827
 H   -0.4862335765    2.1485599592   -0.9885746852
 H   -0.4835696610    2.2396512104    0.7750784472
 H    0.4128470612   -0.0593643624    0.9614295730
 H   -1.9316945824   -0.2104520107   -0.8120362618
 H   -3.0348490184   -1.0640282357    0.9841208617
 H    0.5916660101   -1.5356379519   -0.9784278671
 H    0.2622970547    0.6605948940   -2.6986376924