16

 C   -0.0468229723    1.5193504730   -0.0989441008
 C   -0.0673907579    0.0058419161    0.1195282475
 N   -1.4003955293   -0.5579274062    0.0235708189
 C   -1.9185876624   -1.3285922746   -0.9590186251
 C   -3.2395853575   -1.5779042439   -0.6438297370
 C   -3.4208257743   -0.8932153740    0.5749167228
 O   -4.5649933719   -0.8469074433    1.2898696749
 N   -2.3208584812   -0.2745565885    0.9834538559
 H    0.9715610115    1.9031571699    0.0155124236
 H   -0.4031780386    1.7745998426   -1.1013295085
 H   -0.6906929513    2.0132817837    0.6323140349
 H    0.5492228883   -0.5056556401   -0.6253439749
 H    0.3336687765   -0.2398273541    1.1083040328
 H   -1.3168842615   -1.6430801037   -1.7979826301
 H   -3.9576065370   -2.1631334274   -1.1921757114
 H   -4.3841671012   -0.3136782195    2.0739647165