20

 C    0.3377453675    1.5571578637    0.4861563041
 C    1.5733061934    1.5900300681   -0.4624361157
 C    1.4847988425    0.0662209798   -0.4942368122
 N    2.1113032511   -0.8610805240   -1.4197119788
 C    2.4455437681   -0.9175392550    0.0403870720
 C    1.9025908823   -1.9907416164    0.9089870784
 C    0.6397772567   -2.0082280605    1.3426146516
 C   -0.4156616921   -0.9829240468    1.0073123418
 C    0.0351159686    0.1002799791    0.0109396882
 H    0.6367357553    1.5760427061    1.5382053551
 H   -0.4425182784    2.3037381933    0.3255692420
 H    1.3340401909    2.0295613662   -1.4357520853
 H    2.4956082680    2.0395719998   -0.0874691890
 H    1.4643816687   -1.6168575203   -1.6421148208
 H    3.4707502744   -0.6124812619    0.2385281408
 H    2.5850942693   -2.7828984012    1.2065193275
 H    0.3130994839   -2.8226917663    1.9857757147
 H   -1.2935236896   -1.5145860889    0.6174278064
 H   -0.7662113562   -0.5182182164    1.9402890237
 H   -0.6518979645    0.1405778114   -0.8422361646