18

 N   -0.0060298489   -1.1078040014    0.4307835073
 C    0.0673410632    0.0435258074    0.3586142208
 C    0.1307352490    1.4855447505    0.2477978771
 O    0.9800800305    2.1645209518    1.1741110159
 C    1.3662559179    2.1672848877   -0.2011824544
 C    2.6331060564    1.4352357150   -0.5727786786
 C    3.8741647609    2.2452666643   -0.2514917128
 C    4.4095735169    2.2761369457    1.1580003955
 C    5.1693252300    1.5476777443    0.0773437065
 H   -0.8333311924    1.9583533788    0.0688987149
 H    1.2150588446    3.1312470791   -0.6912164601
 H    2.6605208428    0.4780414532   -0.0415486168
 H    2.5977591732    1.2040715407   -1.6458643822
 H    3.9623752222    3.1706476960   -0.8158639644
 H    4.8151475569    3.2083631278    1.5345436604
 H    3.8901770029    1.6847229998    1.9037616396
 H    5.1685026983    0.4627278050    0.0986721527
 H    6.0931169657    1.9821597444   -0.2878511915