19

 C   -0.0230648511    1.4137866280   -0.0456618010
 O   -0.0264973490    0.0085206152   -0.0055990991
 C    0.6398083730   -0.5707878722   -1.1064640131
 C    0.5846132015   -2.0582158846   -0.9773602594
 C    0.0023220648   -2.8012856007    0.0155584189
 N    0.2262148676   -4.1196576478   -0.3265870562
 C   -0.1988379183   -5.2891651413    0.4133924068
 C    0.9248196149   -4.1014125434   -1.4963331269
 N    1.1595579438   -2.8797586919   -1.9193765571
 H    1.0005338319    1.8213763997   -0.0306508665
 H   -0.5297773186    1.7990486756   -0.9450651194
 H   -0.5570394147    1.7688187144    0.8392928933
 H    0.1731805138   -0.2545673687   -2.0558459693
 H    1.6898297263   -0.2321879680   -1.1496606312
 H   -0.5335274980   -2.5204865326    0.9055721213
 H   -1.2891116077   -5.3205414432    0.5045110608
 H    0.1314039127   -6.1843901629   -0.1171025891
 H    0.2377163274   -5.2980681122    1.4170481588
 H    1.2318409895   -5.0136567236   -1.9876740119