13

 O   -0.0095049970   -0.0363295627   -0.0016944450
 C    0.0138341700    1.1667846187    0.0079816327
 C    1.2561876041    1.9803164517    0.0011609230
 C    1.2503196850    3.3291568716    0.0129256101
 C    2.4999178191    4.1063711863    0.0053942574
 O    2.5316909732    5.3263538886    0.0167494244
 C    3.6859695463    3.2445349736   -0.0145042661
 C    3.5714994004    1.9058460935   -0.0248695633
 O    2.3924716793    1.2446207251   -0.0177688554
 H   -0.9075016776    1.7851954164    0.0236674624
 H    0.3067586947    3.8632709589    0.0281425246
 H    4.6664615594    3.7040501412   -0.0209850519
 H    4.4013935232    1.2101774570   -0.0398142930