10

 N    0.0049612140    1.3545150083    0.1399279875
 C   -0.0180120961   -0.0025107001    0.0401330399
 N   -1.1265535389   -0.7172114554   -0.0103749666
 O   -0.6551339520   -2.0374501238   -0.0348441151
 C    0.6767392246   -1.9532578460   -0.0069102456
 N    1.1447657199   -0.7433290887    0.0388292517
 C    1.4232826741   -3.1648502460   -0.0301602734
 N    2.0247168100   -4.1514275662   -0.0501841328
 H    0.8606013817    1.7945519281   -0.1587857696
 H   -0.8432310773    1.8354811898   -0.1152234060