21

 C    0.0067625423    1.4475272671   -0.0288396598
 C    0.0354984913   -0.0560499291   -0.0596387817
 C    0.5716420713   -0.9829583440   -1.1715539573
 C    0.0624960566   -1.9525526215   -0.0886962304
 C    0.0804316498   -3.4515001613   -0.1001892230
 O    1.4381667816   -3.8734391571   -0.1610762076
 C    0.5475472405   -1.0178930814    1.0783813938
 C   -0.8267949644   -1.0467707951    1.7749699124
 C   -1.1581788382   -1.0333528481    0.2693099909
 H    1.0190236126    1.8607697523   -0.1029588412
 H   -0.5768865658    1.8473725301   -0.8658195247
 H   -0.4396295733    1.8217308936    0.8991869446
 H    0.0258272922   -0.9771743828   -2.1227698884
 H    1.6519859105   -0.9707350845   -1.3481632092
 H   -0.4190977941   -3.8384560437    0.8033961200
 H   -0.4890140538   -3.8183513039   -0.9702771493
 H    1.4501863176   -4.8334122871   -0.2169431231
 H    1.5473408195   -1.0178083992    1.5156806003
 H   -1.0826282459   -1.9531517052    2.3328777568
 H   -1.1088276299   -0.1596402318    2.3509615773
 H   -2.1316461602   -1.0420956774   -0.2272563304