19

 C   -0.0256630800    1.5012415266    0.0133616086
 O    1.1858321922    0.7472273918   -0.1152076653
 C   -0.0581408030    0.0366067804   -0.0154578664
 C   -0.3212365224   -0.7765294300    1.2502893289
 C   -0.2381171217   -2.3070338491    0.9976922077
 C   -0.5533350923   -2.5916238494   -0.4770537788
 C    0.5005916456   -1.9581223170   -1.4074393906
 C   -0.4270932552   -0.7367871202   -1.2713482856
 O   -1.5402374510   -1.6170512831   -0.9461095909
 H   -0.1494154595    2.0247985547    0.9612771676
 H   -0.3194952550    2.0696725623   -0.8688054475
 H    0.3700495876   -0.4557169928    2.0338598885
 H   -1.3335057402   -0.5396059891    1.5896806273
 H    0.7568704355   -2.7011283516    1.2333444966
 H   -0.9485494776   -2.8246373201    1.6493825183
 H   -0.8740064805   -3.6194290050   -0.6636296938
 H    1.5280640086   -1.8630692713   -1.0516713486
 H    0.4769340123   -2.3808016132   -2.4129264495
 H   -0.6205256434   -0.1010963440   -2.1387766966