19

 C    0.0904641299    1.6251548792   -0.1553286707
 C    0.0294699973    0.0959411471   -0.0346989720
 C    0.6460918947   -0.6490532361   -1.2030899259
 C    1.4581041970   -1.6413159092   -0.8386342099
 C    1.5921262063   -1.7652715359    0.6557538143
 C    2.9227991433   -1.1986058884    1.2504215995
 C    2.1596794796    0.1006877408    1.5621476507
 O    2.4969714552    1.1817741961    1.9507079600
 C    0.7971838639   -0.5129799020    1.1691636666
 H    1.1185827829    1.9795451411   -0.2613640242
 H   -0.4798317686    1.9594703768   -1.0283567158
 H   -0.3351753510    2.1066151651    0.7300462620
 H   -1.0312390533   -0.1848454359    0.0453734916
 H    0.4142873624   -0.3813085280   -2.2293748543
 H    1.9873124514   -2.2964619065   -1.5229613269
 H    1.3031663559   -2.7469372080    1.0396303856
 H    3.2587027358   -1.7004727884    2.1644640046
 H    3.7756447760   -1.0985660997    0.5732587471
 H    0.1659759215   -0.6618962979    2.0496954976