15

 O   -0.1760192752    0.0488577049    0.3125502662
 C   -0.0268074023    1.1959159013   -0.0227610072
 C    1.2676355062    1.9591620064    0.0620056094
 C    1.5023266147    2.9114056334    1.2687804855
 C    1.3539574830    1.9603804114    2.4883329639
 C    2.5722141154    1.2344855216    1.9236575203
 C    2.9982195393    2.4242393073    1.1529228931
 N    2.5153698136    1.2191644674    0.4161646074
 H   -0.8801103970    1.8013790988   -0.4137200483
 H    1.4356654238    2.4845004083   -0.8861034648
 H    1.1232782715    3.9307900567    1.2881148709
 H    1.6117402156    2.4736126404    3.4180037522
 H    0.4162125570    1.4111748020    2.6094048395
 H    3.1701688983    0.4533895012    2.3723756193
 H    3.9459808862    2.9125227489    0.9715297625