22

 C    2.8424066078   -0.9510289272    0.3317551782
 N    1.4201391633   -1.2104797115    0.4965299032
 C    1.0166446979   -2.1493382224    1.5343580910
 C    0.7010203808   -0.6936637646    1.6653041552
 C    1.3353906845    0.1496469749    2.7475676311
 C    1.0021793580    1.6698008005    2.6258287591
 C   -0.1679611954    1.4745202709    3.6293708853
 C    0.5119051578    0.1559546273    4.0826362654
 O   -0.2514990050   -0.9592617634    4.4568516125
 H    3.4406954015   -1.0467270058    1.2510197822
 H    3.2391955775   -1.6648712075   -0.3973099556
 H    2.9858368046    0.0575254972   -0.0694175287
 H    0.2520971987   -2.8728732228    1.2608903617
 H    1.7896351576   -2.5387059394    2.1970576357
 H   -0.3105119574   -0.3796797187    1.4003470752
 H    2.3896661797   -0.1076583450    2.8650914028
 H    1.7976290256    2.2968566589    3.0358546491
 H    0.7480319355    2.0369235424    1.6289936617
 H   -0.3444941030    2.2443573701    4.3838823599
 H   -1.1128891086    1.2724962894    3.1137598472
 H    1.1812459959    0.3457095601    4.9272857712
 H   -0.7992319671   -1.2158167634    3.7078140267