14

 N    0.0137534097    0.9980984691    0.0068635811
 H    0.0226954922   -0.0113471215   -0.0613463684
 H    0.8695213892    1.5207919642    0.0733029431
 C   -1.1768925473    1.6208267535    0.0138895049
 C   -1.2956334369    3.0332686705    0.1090882893
 N   -2.4364512836    3.6871966941    0.1190817434
 N   -3.6100834072    3.0296112475    0.0361856716
 C   -3.5670836487    1.7098900854   -0.0546555661
 C   -2.4031694942    0.9289148056   -0.0727281650
 C   -2.4789241259   -0.5235344397   -0.1759308130
 O   -1.5148053853   -1.2718019200   -0.1977015331
 H   -0.3989868453    3.6464588724    0.1801765965
 H   -4.5365506209    1.2185872035   -0.1193339987
 H   -3.5078005957   -0.9342731444   -0.2367414957