16

 C   -0.2232792916    1.6083554367    0.0073385689
 C    0.0365166605    0.1076516981   -0.0098562680
 C    0.7533427337   -0.5969808942   -1.1704058277
 C    2.2166265394   -0.3636783707   -1.2263137540
 C    2.8777529807    0.8559942868   -0.8300426509
 N    3.4492742232    1.8193116373   -0.5425229319
 N    1.6899226879   -1.3407207886   -0.2215221488
 C    1.1098863857   -0.5326391356    0.8655408531
 N    1.3693458362   -0.4901412486    2.0884490844
 H    0.6827707820    2.1850175477   -0.1851664036
 H   -0.9737950650    1.8767685848   -0.7426291224
 H   -0.6053286581    1.9004442114    0.9895045594
 H   -0.8999849988   -0.4306117604    0.1806193058
 H    0.2638122109   -1.1251966318   -1.9809812923
 H    2.7411622546   -0.8797799278   -2.0261478925
 H    2.1492838788   -1.1090160749    2.3237989405