22

 C   -0.1770521419    1.5374379076    0.0256205875
 C   -0.0100971429    0.0124858367   -0.0056689280
 C    0.6025014025   -0.4606204259   -1.3282852598
 C    0.7006962101   -1.9858691491   -1.4654703333
 N    1.7169537716   -2.6584482045   -0.6665212912
 C    1.7314922422   -2.5876837506    0.5946244929
 C    2.6780579671   -3.4121798355    1.4198418691
 O    0.8942808912   -1.8469739866    1.4007366457
 C    0.8259109115   -0.4328750260    1.1939081766
 H    0.7922809570    2.0435123877   -0.0544266516
 H   -0.7966004191    1.8786995130   -0.8091485260
 H   -0.6522806247    1.8709111576    0.9542057272
 H   -1.0010509207   -0.4512667977    0.1002213181
 H   -0.0076381325   -0.0842938398   -2.1589370044
 H    1.6025787714   -0.0226416551   -1.4523207695
 H   -0.2825402085   -2.4240449363   -1.2346688931
 H    0.9109466079   -2.2278476087   -2.5122368377
 H    3.2734820490   -4.0602342924    0.7777521020
 H    3.3374657939   -2.7648224140    2.0086805265
 H    2.1105405918   -4.0184462531    2.1340213688
 H    1.8461666251   -0.0311642883    1.1051506649
 H    0.3919275179   -0.0416685989    2.1191341553