18

 C    0.0540863405    1.4103591897    0.0623242739
 N   -0.1133475194   -0.0270146352   -0.0354845157
 C    0.5778974915   -0.6799608341   -1.0660500616
 C    1.2084803948   -0.1118948351   -2.1545378324
 N    1.6881482105   -1.1451877599   -2.9359649559
 C    1.3825454205   -2.3442606497   -2.3544253431
 C    0.6893179305   -2.1033716220   -1.1893097614
 C    0.1394646533   -3.1122018083   -0.2293118987
 H    1.1078693572    1.7321220326    0.1284420045
 H   -0.3835273043    1.8912020524   -0.8202573029
 H   -0.4798432353    1.7801249252    0.9414566410
 H    0.0147606178   -0.4883766777    0.8552668075
 H    1.3468064571    0.9163764846   -2.4414873910
 H    2.1834248933   -1.0293159350   -3.8005320815
 H    1.6737512586   -3.2782807553   -2.8091214788
 H    0.6129428360   -3.0492233909    0.7605867426
 H   -0.9379715085   -2.9767748781   -0.0735245393
 H    0.2971501759   -4.1309966932   -0.5950361372