18

 C    0.0446267546    1.5672136958   -0.0481586938
 C    0.0952510465    0.0601159567    0.0659739991
 C    1.3674934616   -0.7761538211   -0.1420793460
 N    2.6333332208   -0.1401048951   -0.3405005134
 C    3.0948591575    0.5753667396    0.5946438764
 O    2.5637147081    0.8361465202    1.8165201346
 C    1.5167908164   -0.0212340931    2.2962100417
 C    0.6987839945   -0.6980856140    1.2083134076
 O   -0.0678746792   -1.7653100669    1.6922693980
 H    0.9229273088    2.0539152923    0.3778168802
 H   -0.0310635588    1.8700293773   -1.0973385545
 H   -0.8362636835    1.9557318470    0.4743112208
 H   -0.7859108898   -0.4440365624   -0.3223688396
 H    1.2405028810   -1.6837954844   -0.7238256491
 H    4.0308192316    1.1165639224    0.4762482509
 H    1.9782105812   -0.8087454181    2.9082063878
 H    0.8968928821    0.5947790841    2.9548320084
 H    0.5257765365   -2.5004048505    1.8869141910