19

 C   -0.0702406754    1.4728143189    0.0653389794
 C    0.0467375755   -0.0182799492   -0.0134166747
 O   -0.5508099763   -0.8002758864    1.0417543374
 C    0.8683307839   -0.8986575004    0.8138563017
 C    1.2836456764   -1.9400974786   -0.2538984075
 C   -0.0368324737   -2.2720750765   -0.9734828602
 C    0.1622075164   -0.7887014900   -1.3763929559
 C   -0.3720811889   -0.1721188819   -2.6377414132
 O    1.6217569124   -1.0512170109   -1.3773961366
 H    0.7067909707    1.9496968641   -0.5403242879
 H   -1.0442935411    1.8156613887   -0.3006516893
 H    0.0397792424    1.8058761174    1.1002473044
 H    1.5166370189   -0.5830316774    1.6241581240
 H    2.0579975732   -2.6680848452   -0.0172760201
 H    0.1384112005   -2.9267182839   -1.8271963625
 H   -0.9107463738   -2.5609124924   -0.3936063570
 H   -1.4594424327   -0.0597044184   -2.5732441930
 H    0.0634847929    0.8174539100   -2.8080035042
 H   -0.1387235012   -0.8010950479   -3.5005640948