18

 O   -0.0222309943    0.2127330531    1.1529129826
 C    0.0033887368    1.2714664834    0.5680961890
 N    1.1072911529    1.8073382142   -0.0382062647
 C    2.3346601712    1.1267237849   -0.1041561736
 C    3.2530704596    0.6400296529    0.9860273100
 C    3.3022321972   -0.7649705656    0.3922627307
 C    2.8996624343   -0.1058969592   -0.9541605580
 C    4.1179817342    0.7871428817   -1.3220686717
 C    3.7576623637    1.6219003603   -0.0940226330
 H   -0.8789201436    1.9350211459    0.4681968927
 H    0.9770171116    2.6437981153   -0.5882161096
 H    3.2310785402    0.9341316954    2.0269960358
 H    4.2482483546   -1.3174589823    0.4138899345
 H    2.4921248467   -1.3755721484    0.7959897220
 H    2.3636236313   -0.6653264550   -1.7174114864
 H    5.0995423523    0.3010651974   -1.3525013940
 H    3.9554617529    1.3452664170   -2.2487076130
 H    4.1102607483    2.6077357191    0.1829599767