19

 C    0.0939478244    1.5146907514    0.1048444037
 C   -0.0168921948    0.0009860678    0.0259450540
 O   -1.3501978086   -0.4477676818    0.1551790127
 C    0.6503365788   -0.7259789752   -1.1969977753
 N    1.3361112166   -1.6314489346   -0.2327074590
 C    2.7493318303   -1.9652923247   -0.0391924387
 C    2.8541952027   -1.7298473505    1.5082215271
 N    1.7957623371   -0.7273567158    1.8398868087
 C    1.0273578749   -0.7925393789    0.8301877105
 H    1.1245918682    1.8484210879   -0.0407472047
 H   -0.5439613082    1.9752288581   -0.6554016811
 H   -0.2301120759    1.8665815335    1.0904712692
 H   -1.6701365710   -0.1792211990    1.0236211649
 H   -0.0390748154   -1.2327774593   -1.8745193729
 H    1.3377873971   -0.0773819259   -1.7537314472
 H    2.9893465545   -2.9886286701   -0.3368110664
 H    3.4002295270   -1.2733073423   -0.5967065348
 H    2.6648901481   -2.6627006811    2.0545233631
 H    3.8347546442   -1.3577462395    1.8146739063