21

 C   -0.3466698680    1.4387042611    0.5510145066
 C   -0.2089931160   -0.0573574566    0.4467175739
 O    0.9359334973   -0.5533740084   -0.2702753804
 C    0.8506560180   -0.8177942769    1.1192938970
 C    1.8711866334   -0.3481268023    2.1622071493
 C    1.5592372985   -1.6467353683    2.9704541353
 C    0.6740637576   -1.4065901473    4.1798401824
 O    0.2719729444   -2.6696639097    4.6872610627
 C    0.7976398279   -2.2183678360    1.7341123709
 H    0.6067402211    1.9019646983    0.8174799547
 H   -0.6764454808    1.8623472009   -0.4034415698
 H   -1.0907891056    1.7050200228    1.3101451246
 H   -1.1313624118   -0.5941157838    0.2129647250
 H    2.8869074210   -0.3331028921    1.7583884490
 H    1.6789194852    0.6064418323    2.6624187033
 H    2.4327652226   -2.2257053092    3.2774746677
 H    1.2313965025   -0.8290465594    4.9356672437
 H   -0.1990701339   -0.8000328496    3.8841998407
 H   -0.3132465969   -2.5231244212    5.4360156228
 H   -0.1846302817   -2.6560526701    1.9272044774
 H    1.3963274255   -2.9313007546    1.1605545132