18

 C   -0.0897151350    1.5205465939    0.0038139430
 N    1.4328565253    1.2701547276    0.0106893811
 C    1.2211602757    0.0335388991    0.9077254408
 C    1.9405419603   -0.9476180813   -0.0250058998
 C    1.2279032271   -2.3169667420   -0.0083815460
 C   -0.2360718844   -2.2033313995   -0.5093870488
 O   -0.9344805630   -1.0267738872   -0.0517943903
 C   -0.0182022764    0.0035151882   -0.0268802667
 C    1.2402179654    0.0714699701   -0.9433751340
 H   -0.4528750764    2.0053672214    0.9148462579
 H   -0.4407282447    2.0454543535   -0.8898546872
 H    1.2411412543    0.1166869636    1.9956011361
 H    3.0326048675   -0.9944167179   -0.0095087290
 H    1.7383534851   -3.0401583470   -0.6540216572
 H    1.2573168267   -2.7252655833    1.0092364714
 H   -0.2294347075   -2.1852455021   -1.6085150463
 H   -0.8311813472   -3.0609162496   -0.1883833312
 H    1.2893201472    0.2163821726   -2.0237462836