14

 O    0.0335216396   -0.0155228809   -0.1848905320
 C    0.0970330052    1.1688849951   -0.2929353709
 O    1.0298016097    1.9058571934    0.3676909100
 C    0.9831252402    3.2867427468    0.1972782391
 C    1.1243246605    3.9987538057   -1.1298247453
 C    2.0957664819    4.2748467286   -0.0124317181
 O    1.5423553228    5.1963383171    0.9276972195
 C    0.4915172948    4.2505986145    1.2717510185
 H   -0.5634166580    1.7902124866   -0.9237470106
 H    1.5272743213    3.3763182680   -1.9234640738
 H    0.4137605270    4.7591158682   -1.4422111989
 H    3.1721668926    4.1785384863   -0.0776352172
 H   -0.5120834602    4.6769882976    1.1663257271
 H    0.6373613925    3.8597619029    2.2842405927