20

 O   -0.2553566864    1.6562667249   -0.2398636576
 C   -0.0431646055    0.2726295866    0.0016874142
 C   -1.3452881642   -0.5295042261   -0.0711380548
 C   -1.1562344246   -2.0216634413    0.2689279685
 C   -2.4556483963   -2.6979959029    0.3893387274
 C   -3.5175570201   -3.2587783298    0.4640078379
 N   -0.2212156785   -2.6235851040   -0.6980743480
 C   -0.1675762300   -4.0734175578   -0.8322903899
 C   -0.7487638453   -3.2320125962   -1.9158846074
 H   -0.5098472001    1.7563898005   -1.1624849419
 H    0.7014657933   -0.1527648566   -0.6825265076
 H    0.3736772051    0.2107396642    1.0136590279
 H   -2.0725533985   -0.0929877768    0.6203397485
 H   -1.7758253781   -0.4534695515   -1.0782824168
 H   -0.6546433228   -2.0886643943    1.2445688748
 H   -4.4575116024   -3.7465954869    0.5475027487
 H    0.8293765265   -4.4941205376   -0.9280205677
 H   -0.8696558817   -4.6686422095   -0.2527439404
 H   -1.8280329334   -3.2805361431   -2.0405211854
 H   -0.1847218270   -3.0244881218   -2.8206755602