19

 O    0.2893343735    0.7325151689    0.9618480012
 C   -0.0587500424    0.3805159690   -0.3734156339
 C   -1.3945659467   -0.3295371122   -0.3101524370
 C   -2.0261735504   -1.0077045657   -1.5722026597
 C   -0.9960368453   -2.0834193551   -1.8972702968
 C   -0.6749483692   -2.5868359168   -0.6966992395
 C   -1.5290298642   -1.7819852836    0.2722271097
 C   -2.9005496508   -1.8492016121   -0.5351544744
 O   -4.0506455825   -1.2851216470    0.0141456804
 H    1.1612696795    1.1373352031    0.9467777814
 H   -0.1564472674    1.2775708954   -1.0077753029
 H    0.6987957695   -0.2697006638   -0.8288732294
 H   -2.0987453508    0.3571440836    0.1768922858
 H   -2.4788364483   -0.4358216026   -2.3824083959
 H   -0.6757828801   -2.3864063137   -2.8840349613
 H   -0.0175514254   -3.4064080591   -0.4438338483
 H   -1.4730742240   -1.9891092547    1.3397096629
 H   -3.1835669301   -2.8444086350   -0.8826240209
 H   -3.8454950150   -0.4173071188    0.3770171385