18

 O   -0.5419865483    1.1104741632    1.1754003969
 C   -0.0807665061    0.1211451565    0.2485374148
 C    0.8792527113   -0.9007285577    0.8915463315
 C   -0.0104605374   -2.0131555801    1.4377876838
 C   -1.1964656983   -1.6072957667    2.2779783230
 C   -1.3767439789   -1.8795045263    0.8035921042
 C   -1.3335130676   -0.7040555481   -0.1678658827
 O   -2.5006632448    0.0790892540   -0.2583650100
 H    0.1521195811    1.7630598119    1.2997214600
 H    0.3666662820    0.6204740237   -0.6191417821
 H    1.5498541268   -1.3050780369    0.1234430054
 H    1.5092394576   -0.4262660284    1.6533805524
 H    0.4369728515   -2.9862721832    1.6077470506
 H   -1.5939792471   -2.3541341758    2.9570619168
 H   -1.2564119211   -0.5885801329    2.6402040227
 H   -1.9508265764   -2.7496056917    0.5058870674
 H   -1.1583252307   -1.1064436780   -1.1736404492
 H   -2.4331171537    0.7358723665    0.4464282647