13

 O   -0.0848955696   -0.0102950761   -0.1057345550
 C   -0.0736101164    1.1678940837    0.0261870556
 C   -1.1042266200    2.2738199189    0.2719043126
 N    0.0161059817    3.2133065916    0.5332022667
 C    1.0530345167    2.2688588762    0.0347032854
 C    2.2063360270    2.0719154967    0.8820303730
 C    3.1643963960    1.8759978986    1.5919832751
 C    4.2484142760    1.6652332219    2.3937016222
 N    5.1730651382    1.4881717800    3.0744506125
 H   -1.7057430946    2.4736949519   -0.6258857080
 H   -1.7775783071    2.1213870477    1.1215804447
 H   -0.0259098089    4.0834620116    0.0168713868
 H    1.3780505111    2.4459536572   -1.0027807415