18

 C    0.1642387124    1.6146415195   -0.1154155322
 C    0.0869886801    0.0949721852    0.0117980793
 C   -1.3409807955   -0.4183922799   -0.1059084339
 O    0.8714252609   -0.4599543648   -1.1059287171
 C    1.9675986755   -1.0167440268   -0.5606816110
 N    2.0911968075   -1.0858583496    0.7007417867
 C    0.8530385093   -0.5098415500    1.2421509155
 C    1.1355159974    0.4257072721    2.4084511428
 O    0.3154542655    1.1644798414    2.8909152021
 H    1.1997122608    1.9617011035   -0.0483670714
 H   -0.2371589481    1.9198336635   -1.0854931933
 H   -0.4099066908    2.0952299844    0.6782567913
 H   -1.8127801351   -0.0549153579   -1.0231416247
 H   -1.3617680121   -1.5117554771   -0.1138437942
 H   -1.9253871847   -0.0651247456    0.7492593460
 H    2.6944074632   -1.3828320539   -1.2782384092
 H    0.2548837811   -1.3245389120    1.6814210434
 H    2.1682630826    0.3441910480    2.8092238499