16

 C   -0.9728684028    1.2567786101    0.0431289994
 C   -0.2199654736   -0.0472117403    0.0435826643
 O    0.9900944199   -0.1040644475    0.1262194907
 C   -0.9933223597   -1.3709471003   -0.0855825739
 O   -0.0849638498   -2.4150905663   -0.2897693441
 C   -1.8360404414   -1.6899198721    1.1875524955
 C   -3.0597071079   -0.9177469950    1.3433113565
 C   -4.0783284788   -0.2882214592    1.4546229676
 H   -0.2731214005    2.0852623091    0.1584691098
 H   -1.5225879974    1.3640216792   -0.8987940482
 H   -1.7229075480    1.2722232550    0.8393562399
 H   -1.6832924522   -1.2934965523   -0.9388639306
 H    0.7916477577   -2.0105900471   -0.1702090506
 H   -2.0809734000   -2.7546974938    1.1098891290
 H   -1.1957240173   -1.5857223052    2.0721368718
 H   -4.9820353082    0.2593104858    1.5614725028