19

 C    0.1922545829    1.3059787925    0.1694808459
 O   -0.3035302154    0.0521685964   -0.2489369243
 C    0.4511216122   -0.5277763446   -1.2550195710
 C    1.7186172428   -1.3803494173   -0.8904786894
 O    0.8200809702   -2.3724747107   -0.2550280451
 C    0.1569026946   -2.0195034655   -1.5349203124
 C    1.5261571249   -2.1164412234   -2.2202589050
 C    2.0312394186   -1.9477282891   -3.6130755501
 C    2.2472329319   -3.2502330885   -2.8457774041
 H    1.1888212078    1.2202754059    0.6266763781
 H    0.2551373911    2.0181941115   -0.6682416815
 H   -0.5048200121    1.6961771311    0.9140770256
 H    0.5552440540    0.1298352507   -2.1308289730
 H    2.6352023103   -1.1114700118   -0.3648793863
 H   -0.7889988620   -2.5066006090   -1.7717105806
 H    1.3168702082   -1.9521147469   -4.4302753215
 H    2.8922100752   -1.3080742101   -3.7797998007
 H    3.2516530149   -3.4768514018   -2.5035567962
 H    1.6760924800   -4.1199964595   -3.1533887382