21

 C    0.0889631642    1.4669036875    0.2742121261
 O    1.4053324896    1.5092237765   -0.3342314183
 C    1.2633290245    0.1537379476   -0.8449696011
 C    2.3763450675   -0.8052388444   -0.4597999408
 C    2.1037441154   -2.2338265392   -0.9941236672
 C    0.6242484499   -2.6425787012   -1.1687949347
 C   -0.3039101855   -2.4905881965    0.0495209919
 C   -0.6443351541   -1.0689375136    0.4264594277
 C   -0.0056861868   -0.0067378878   -0.0378438314
 H    0.1053846734    1.7547572514    1.3329059366
 H   -0.6220082946    2.1153418951   -0.2584596607
 H    1.1260196565    0.1827035234   -1.9367795588
 H    3.3384627014   -0.4392962565   -0.8361880717
 H    2.4438204369   -0.8099859133    0.6331693174
 H    2.5839250460   -2.3479499583   -1.9732425585
 H    2.6004918249   -2.9534111493   -0.3324971055
 H    0.1852841183   -2.0830035374   -2.0036906707
 H    0.6115378017   -3.6940274529   -1.4788380338
 H   -1.2369131329   -3.0345518626   -0.1513001507
 H    0.1360638139   -2.9970862194    0.9228409909
 H   -1.4495653902   -0.9374317591    1.1478225332