16

 C    0.0427690278    1.5130849838   -0.2576272459
 C   -0.0316959948    0.0301592421    0.1495399550
 C   -1.4139215519   -0.5322153817    0.1561377053
 C   -2.2227280583   -0.9987884223    1.1523479370
 N   -3.4529752952   -1.4160345028    0.6598849795
 C   -3.3740563874   -1.1975230837   -0.6223182965
 O   -4.3209968818   -1.4405538896   -1.5465837649
 N   -2.1839348184   -0.6679161374   -1.0035050136
 H    1.0762349216    1.8724279080   -0.2334223587
 H   -0.3386991483    1.6706593414   -1.2723235088
 H   -0.5539909265    2.1314804515    0.4191096737
 H    0.6171443172   -0.5584754267   -0.5146359526
 H    0.3782579494   -0.0927421745    1.1573298119
 H   -1.9940296028   -1.0637106773    2.2054074826
 H   -5.0718196197   -1.8115085673   -1.0661496063
 H   -1.9187849709   -0.4320580135   -1.9444108878