17

 O    0.2464712103    1.4684583282   -0.4266456019
 C   -0.0400215900    0.1685900699    0.0515980549
 C    0.0911442042   -0.0444579489    1.5998046255
 C   -1.3742675625   -0.5869554349    1.6508530707
 C   -1.5725926843   -0.0563341698    0.1942299880
 C   -1.4520672453   -2.0869586014    1.7601027330
 O   -2.1178627484   -2.6801963863    2.5701037483
 C    0.6511244569   -0.8502990217   -0.7328543074
 C    1.2577967661   -1.6642060232   -1.3781666467
 H    1.1787648771    1.5040530452   -0.6674156944
 H    0.8871982289   -0.7078693142    1.9445149023
 H    0.1762605206    0.9231990317    2.0975191231
 H   -2.0207965487   -0.1498339360    2.4122163242
 H   -2.0828059538    0.9082615632    0.1846308165
 H   -2.0411180664   -0.7237542452   -0.5311684910
 H   -0.8293891089   -2.6358605891    1.0157418604
 H    1.7813031943   -2.3886425877   -1.9526385454