27

 C   -0.0213612323    1.3790072735   -0.1361931802
 O   -0.1051966386   -0.0170238514    0.0034780980
 C    0.6609285743   -0.5088996949    1.0836591828
 C    0.4885032615   -2.0228345270    1.1406077792
 C    1.2996192970   -2.7128942871    2.2576744026
 C    0.6591245654   -2.4304468833    3.6280127794
 C    1.4624530152   -4.2335297531    1.9809331349
 C    2.3522129598   -4.5034535955    0.7561657557
 C    2.0285165345   -5.0047849598    3.1843514237
 H    1.0123399689    1.7120223159   -0.3248016031
 H   -0.6430991094    1.6627751484   -0.9891716293
 H   -0.3885033602    1.9046299248    0.7604261305
 H    1.7265133763   -0.2527525398    0.9435335092
 H    0.3382869507   -0.0274066211    2.0218761869
 H   -0.5777012174   -2.2497092720    1.2686525174
 H    0.7690454377   -2.4099770444    0.1571121847
 H    2.3124745698   -2.2795241713    2.2638630915
 H    1.2922482973   -2.7613356788    4.4546222657
 H    0.4769669213   -1.3612772117    3.7693283153
 H   -0.3069152199   -2.9421041343    3.7185897435
 H    0.4596657699   -4.6348653677    1.7694336612
 H    3.3726639492   -4.1421621543    0.9338907731
 H    2.4152142666   -5.5778072805    0.5546637795
 H    1.9841129784   -4.0231403884   -0.1537475592
 H    1.3602415755   -4.9830590573    4.0484467518
 H    2.1909880511   -6.0551375493    2.9211508392
 H    2.9958525971   -4.5918313095    3.4966806758