13

 C   -0.0125891316    1.4163448817   -0.0182284756
 N    0.0305973120   -0.0322753210    0.0077319286
 N    0.1688875144   -0.7379056982   -1.1365949012
 C    0.1636950607   -1.9914034484   -0.6942788180
 O    0.2816389184   -3.0172996975   -1.5379469997
 N    0.0331518082   -2.1442854694    0.6418342422
 C   -0.0488200539   -0.8820813555    1.0568664446
 C   -0.1986678990   -0.4434958577    2.3987453364
 N   -0.3207917329   -0.0477087553    3.4793560456
 H    0.9141477960    1.8033981873   -0.4474669116
 H   -0.8567806601    1.7473938916   -0.6270440408
 H   -0.1276880090    1.7808405274    1.0030027640
 H    0.2534335468   -3.8247449049   -1.0097125044