20

 C   -0.0777692783    1.5075620361   -0.1306251088
 N   -0.0700614203    0.0476162002   -0.0558262122
 C   -1.1222030666   -0.6906736139    0.7479110932
 C   -0.1607554755   -1.9098738279    0.6802265467
 C    0.7000891436   -0.6662119623    1.0375364110
 C   -0.4041518215   -0.3078919094    2.0763104100
 C   -0.5573406564    0.9653257416    2.9328296941
 C   -0.7308313711   -0.0106547831    4.1074609163
 O   -0.5765989805   -1.1468195435    3.2321565809
 H    0.8786275416    1.8291024340   -0.5572728638
 H   -0.8629406580    1.8057241087   -0.8339833831
 H   -0.2332815322    2.0653886232    0.8009996387
 H   -2.1838317778   -0.6435649102    0.4970154800
 H   -0.2725559082   -2.6729236887    1.4481420161
 H    0.0039541875   -2.3015231058   -0.3230573613
 H    1.7855819760   -0.5902562795    1.1278578390
 H    0.3268106056    1.6030421018    2.9818630605
 H   -1.4296073534    1.5793828092    2.7028332205
 H    0.0505110175    0.0204394625    4.8757086570
 H   -1.7122481520   -0.0031714530    4.5957538651