17

 C    0.0830273570    1.4660990887   -0.0407653046
 O    1.1874754569    0.5642542421   -0.1202193474
 C   -0.1282475846    0.0146894310    0.0545365191
 C   -0.4097176189   -0.6602118556    1.3370740663
 C    0.0033343485   -0.2457536683    2.7506933602
 C   -0.4842148604   -1.6561514116    3.1648257851
 O   -1.9270303131   -1.5933633590    2.9534870293
 C   -1.6332022786   -1.5842270113    1.5608989561
 C   -0.2640332472   -2.1492124937    1.6856147418
 H    0.0393772495    2.0730458978    0.8622577763
 H   -0.1660667537    1.9890483192   -0.9633563140
 H   -0.5069058640   -0.4975663627   -0.8322152759
 H    1.0886153183   -0.1470284014    2.8235504623
 H   -0.5013882249    0.5984863683    3.2314488595
 H   -0.1999196342   -2.1433877825    4.0943047784
 H   -2.4327325026   -1.7348609989    0.8470917883
 H    0.2682139721   -2.9652079923    1.2173966091