21

 O    0.0540509290    1.4807876004    0.0970646783
 C    0.0411056722    0.0695788072    0.0260067760
 C    0.4088469912   -0.7512422116    1.3065343891
 C   -0.9850515841   -1.4419234146    1.2555270156
 C   -2.0817035709   -0.9973631091    2.2433193932
 C   -3.3290451065   -0.9985203202    1.3019933899
 C   -2.5752537915    0.2025562893    0.6390724774
 C   -2.1167760982    0.5503061882    2.0830760959
 C   -1.3809617267   -0.5504730155    0.0221058132
 H    0.9714370526    1.7702107055    0.1274301814
 H    0.6211971724   -0.2727470739   -0.8428271778
 H    1.2594219801   -1.4256895120    1.1770071057
 H    0.5855154460   -0.1370104184    2.1935983329
 H   -0.9616132190   -2.5236579330    1.1102070231
 H   -2.0977263839   -1.4717614443    3.2258135453
 H   -3.5162246186   -1.8909145166    0.6955762853
 H   -4.2445259482   -0.6895568622    1.8119218550
 H   -3.0876725881    0.9322439007    0.0127848449
 H   -2.9283481451    0.9939024695    2.6649537550
 H   -1.2066655947    1.1342774403    2.2110546534
 H   -1.6558042580   -1.0474735695   -0.9110229729