21

 O   -2.6230841712    0.6402066029   -2.4471820866
 C   -2.4232437735   -0.6711429409   -1.9396358750
 C   -1.8386256425   -0.6583291507   -0.5216918405
 C   -1.5543701223   -2.0401260971    0.0482727016
 C   -0.4436010956   -2.8309504139   -0.6255556772
 O    0.8474761379   -2.2744174445   -0.4234488166
 C   -1.7038706925   -2.2337434145    1.5476496649
 C   -2.7102016936   -2.8339908441    0.5985252702
 O   -3.9845178355   -2.2648250494    0.4798114704
 H   -3.2964800051    1.0613870476   -1.9034598998
 H   -3.3547523883   -1.2546754466   -1.9439385738
 H   -1.7344747524   -1.1496869375   -2.6440514213
 H   -0.9216747749   -0.0540696602   -0.5192081545
 H   -2.5491972360   -0.1425729978    0.1325265053
 H   -0.3967922761   -3.8364012767   -0.1941546358
 H   -0.6561789238   -2.9539294478   -1.6987450124
 H    0.8886081193   -1.4365599233   -0.8942466177
 H   -1.0057747532   -2.8898023525    2.0568782267
 H   -2.0273035606   -1.3750744633    2.1268629303
 H   -2.6878762516   -3.9149616196    0.4550337557
 H   -4.4801161986   -2.4759755603    1.2778139861