22

 C    0.0571352698    1.5041600570   -0.2238866462
 C   -0.1141204943    0.0013169027    0.0386698043
 C    0.6385446350   -0.4719037110    1.2523050565
 C    2.0920184155   -0.8589816570    1.2235874246
 C    1.0755123271   -1.8817638710    1.6640277472
 C    0.6230848883   -1.6317735676    3.1113488471
 C    1.6124041651   -1.8561150579    4.2488517286
 C    0.2371453604   -0.1654182925    2.7069407821
 H    1.1093954467    1.7552101672   -0.3931099102
 H   -0.5125680302    1.8209217574   -1.1031648310
 H   -0.2911606273    2.0958498150    0.6295598369
 H   -1.1822953470   -0.2267814499    0.1581778244
 H    0.2234547178   -0.5652033597   -0.8387350533
 H    2.5057418746   -1.0283800893    0.2335854595
 H    2.8022345488   -0.4306403881    1.9275704590
 H    0.9523789114   -2.8150022166    1.1245867092
 H   -0.2912262293   -2.1991299973    3.3135364237
 H    2.5478269234   -1.3109501096    4.0854383448
 H    1.1954936431   -1.5189423768    5.2045998115
 H    1.8609942326   -2.9185824780    4.3500621493
 H    0.8002696446    0.6365711233    3.1975072754
 H   -0.8302800063    0.0374022999    2.8302038365