14

 N    0.0411239143    1.3573451998    0.0682292637
 C    0.0158645423   -0.0153279384    0.0829203287
 O    1.0270826653   -0.6949970710    0.1567957617
 C   -1.3094212107   -0.6483447817    0.0445985249
 C   -2.5839472827   -0.1814517231    0.0956590603
 N   -3.4239521461   -1.2739964141    0.0402589137
 C   -2.6993890802   -2.4753974705   -0.0367515653
 O   -3.1404426278   -3.6021617081   -0.0906748722
 N   -1.3890350759   -2.0350141527   -0.0372695417
 H    0.9538269211    1.7690597106   -0.0508745285
 H   -0.7346736541    1.8702610919   -0.3167703257
 H   -2.9572506944    0.8243444803    0.1892212152
 H   -4.4284958288   -1.2650768274    0.0733831795
 H   -0.5784940521   -2.6312489855   -0.0550283444