21

 C    0.9062454006   -0.1660481755   -1.3099265683
 C    0.0621634850   -0.0175581521   -0.0430250445
 C    0.7049961558   -0.6519562245    1.2132705992
 C   -0.1296457636   -0.3441846145    2.4792087937
 C    0.5221290817   -0.8372768535    3.7806213397
 C   -0.3894323920   -0.6515265167    4.9701444271
 O   -0.1064278635   -0.0532700105    5.9758329730
 C    0.8928744988   -2.0929428438    1.0475846743
 C    1.0181171841   -3.2821882305    0.9161638654
 H    1.0767849457   -1.2199352547   -1.5474179516
 H    0.4084047192    0.2991163922   -2.1658697935
 H    1.8843707447    0.3135022663   -1.1921920881
 H   -0.1058971117    1.0452620264    0.1686395888
 H   -0.9256581223   -0.4683809603   -0.1959433345
 H    1.6969071731   -0.1950745943    1.3469444822
 H   -0.2819574034    0.7400306801    2.5327364591
 H   -1.1212679260   -0.7999367158    2.3660696927
 H    0.7276205274   -1.9127655981    3.6838049714
 H    1.4678558261   -0.3244360438    3.9798984427
 H   -1.3930759568   -1.1261509424    4.8514287842
 H    1.1442885272   -4.3297831740    0.7953073570