20

 C   -0.0826282038    1.5423740133    0.0265669648
 C    0.0539617873    0.0199862202    0.0276453486
 N    0.7001785508   -0.4092627148   -1.2194367710
 C    1.4757357760   -1.4124666450   -1.2161776002
 C    2.1916741057   -1.8750560436   -2.4512479382
 O    1.8017569047   -2.2093095278   -0.1531101461
 C    1.0561686537   -1.9980919116    1.0556719494
 C    0.7934927059   -0.5121281541    1.2686813689
 O    2.0038300000    0.1817953261    1.5368781217
 H    0.9012437658    2.0154997362    0.0654088593
 H   -0.5910963695    1.8674312137   -0.8841379969
 H   -0.6569475251    1.8815592135    0.8948482821
 H   -0.9578969641   -0.4113848977    0.0374584163
 H    3.2710921595   -1.9142906765   -2.2734357591
 H    1.8730324929   -2.8886766348   -2.7152951440
 H    1.9758607895   -1.1955669895   -3.2744683868
 H    0.1147659559   -2.5596004719    0.9999863353
 H    1.6704616655   -2.4082997558    1.8598898070
 H    0.1757882686   -0.3782928701    2.1629808562
 H    2.5851271907    0.0667002301    0.7768143030