16

 C    0.3316708584    1.4863398394   -0.2383859776
 C   -0.0329553923    0.0225597016   -0.0368710586
 O   -1.4164364095   -0.1691704555    0.1388118842
 C    0.6628415876   -0.9499394472   -1.0554023704
 C    1.6380161489   -1.3504733006    0.0497802430
 O    2.7053101897   -1.8762828951    0.0874973276
 C    0.7382226614   -0.6871048352    1.1373269734
 C    1.3432194518    0.0942001024    2.1920528587
 N    1.8425893489    0.7448417437    3.0071135488
 H    1.4136221556    1.6246936351   -0.3219980462
 H   -0.1226276982    1.8616763234   -1.1629693344
 H   -0.0255661685    2.0888126616    0.6007581073
 H   -1.8868500933    0.3657443639   -0.5096842269
 H    0.0001243693   -1.7797661099   -1.3210168717
 H    1.1045790226   -0.5290399626   -1.9612288044
 H    0.0770718477   -1.4546319148    1.5564395573