19

 C    0.0797042967    1.5426621251    0.0464418850
 C   -0.0786875955    0.0300899834   -0.1376504907
 C    0.7294781940   -0.5255947189   -1.2981124352
 C    2.2740810700   -0.5496587071   -1.1753697243
 O    2.3141842349   -1.9552680483   -1.5027365142
 C    0.8770379889   -2.0618341863   -1.4139118320
 O    0.2218443574    0.1209844092   -2.4788114079
 C    0.7537120490   -0.1621264734   -3.6883940845
 O    0.3563977110    0.3603869353   -4.6871019136
 H    1.1218135574    1.8128590411    0.2501470986
 H   -0.2394424004    2.0784950030   -0.8502413716
 H   -0.5230351385    1.8927259064    0.8887929130
 H    0.2308707598   -0.4974738407    0.7716674430
 H   -1.1329854125   -0.2193885744   -0.3066866340
 H    2.8328008134    0.0654335704   -1.8886385138
 H    2.6437587895   -0.3541663508   -0.1608878336
 H    0.5596365723   -2.6099163726   -0.5180481233
 H    0.4327320604   -2.5268824530   -2.3004688513
 H    1.5678110222   -0.9064163984   -3.6566732796