24

 C   -0.0774083487    1.4530574410   -0.0846161092
 C   -0.0016942648   -0.0735093726    0.0036474584
 C    0.7208777193   -0.5626655004    1.2630816644
 C    0.8137503053   -2.0909321490    1.3906917270
 C    1.6920825391   -2.5138071396    2.5758882666
 N   -0.5162458542   -2.6863144409    1.4911114785
 C   -0.9156584548   -3.7596275235    0.7451698395
 C   -2.3080925649   -4.2855437699    1.0653363031
 O   -0.2168205191   -4.2695908647   -0.1128457232
 H    0.9223505230    1.9015593027   -0.0963929497
 H   -0.5959430432    1.7739324685   -0.9933643391
 H   -0.6161760260    1.8744282998    0.7718354767
 H   -1.0131603778   -0.4953983171   -0.0210181837
 H    0.5123659554   -0.4695693350   -0.8813051340
 H    1.7406071762   -0.1572270456    1.2798092073
 H    0.2240719487   -0.1559609814    2.1575474715
 H    1.2352009510   -2.5086440801    0.4716445271
 H    1.7621248132   -3.6033983060    2.6331523790
 H    2.7041355630   -2.1095303622    2.4731347496
 H    1.2801568841   -2.1465085849    3.5236362748
 H   -1.1231935227   -2.3568029344    2.2250874562
 H   -2.8489341115   -4.4338273769    0.1282392110
 H   -2.2145427103   -5.2635290055    1.5471611082
 H   -2.8892934604   -3.6274432222    1.7169740902