19

 C   -0.1545775636    1.4926990478   -0.1681367775
 C   -0.0848379213   -0.0261163672   -0.0571383034
 O    0.8583664701   -0.4651192226    0.9204061266
 C   -1.4352195482   -0.6520232357    0.2617021566
 O   -2.4306480430   -0.4191097810   -0.7884315052
 C   -2.5350949034   -1.7719360183   -1.0613975777
 N   -3.1805126922   -2.3733326964   -1.9503124190
 C   -1.5880556648   -2.1963564853    0.0502608850
 N   -0.4923775385   -3.0546812374   -0.3309235444
 H    0.8286573508    1.9036300098   -0.4121256052
 H   -0.8658376627    1.7859180569   -0.9451704138
 H   -0.4905559229    1.9370358336    0.7775643511
 H    0.2766125241   -0.4425356954   -1.0042074882
 H    0.6836434091    0.0160722504    1.7371311424
 H   -1.8141101572   -0.2792634943    1.2216247932
 H   -3.6995739062   -1.7195617689   -2.5396259089
 H   -2.1266102357   -2.6517390985    0.8881825716
 H   -0.1192966924   -2.7918715198   -1.2368346811
 H    0.2622192481   -2.9723628677    0.3436431878