19

 C    0.0701679414    1.5278230753   -0.3170985651
 C   -0.0235953566    0.0917922593    0.2069615434
 C   -1.4277175415   -0.4931084846    0.0873838325
 C   -1.8575824680   -1.0874627608   -1.2380649547
 C   -1.6005288263   -2.0214092816   -0.0739737988
 C   -0.4667017864   -2.8961323421   -0.0618362424
 C    0.4751682244   -3.6448772643   -0.0434839715
 C   -2.4381482636    0.1592507894    0.8781681588
 C   -3.2693980889    0.7116827704    1.5503865773
 H    1.0867670245    1.9155034054   -0.2022355293
 H   -0.1922444128    1.5795309214   -1.3791279261
 H   -0.6095247444    2.1897394618    0.2276322453
 H    0.6689840432   -0.5569247425   -0.3378722910
 H    0.2816173851    0.0574050368    1.2590617922
 H   -2.8850465255   -0.9535403108   -1.5537948434
 H   -1.1226402778   -1.0810912651   -2.0351385151
 H   -2.4865440524   -2.4194987560    0.4102279857
 H    1.3058066326   -4.3058644318   -0.0264575401
 H   -4.0050530570    1.1982529197    2.1414403224