21

 C   -0.1815599392    1.5076478912    0.3351395069
 C    0.0582887443    0.0436385091    0.0794841833
 C   -1.1450493280   -0.9356788336   -0.0215461549
 C   -0.3822630321   -1.9128437924    0.8941840669
 C   -0.9775420945   -2.7132382187    2.0150292723
 C   -0.3511103856   -3.4119864094    0.8295633133
 C    0.8142110374   -0.9622315855    1.0117764758
 C    1.8188250717   -1.0539312093   -0.1466517981
 O    1.0167477005   -0.1901508512   -0.9848641628
 H    0.7597692960    2.0293197668    0.5321896797
 H   -0.6488165115    1.9709343843   -0.5415919704
 H   -0.8486987135    1.6505486735    1.1912300834
 H   -2.0739157141   -0.5522180074    0.4134734893
 H   -1.3365040052   -1.2741405028   -1.0431188862
 H   -0.4479460699   -2.7419665972    2.9624256556
 H   -2.0591157134   -2.7321989682    2.1087793770
 H   -1.0079241023   -3.9050666543    0.1200322190
 H    0.6004253507   -3.9137442330    0.9767217036
 H    1.1898215983   -0.7234619788    2.0076314379
 H    2.7993748936   -0.6054541352    0.0606075502
 H    1.9655114067   -2.0473329979   -0.5883521017