14

 C   -0.0047719789    1.4506258751    0.0093470454
 N   -0.0390187489   -0.0015362862    0.0011907170
 C   -1.2141141317   -0.7138868408    0.0045930759
 C   -1.1873540749   -2.0573400364   -0.0025643893
 C    0.0987861793   -2.7240105647   -0.0137354725
 N    0.2266156771   -3.9964688745   -0.0213472111
 N    1.2547371566   -1.8719763456   -0.0161836258
 N    1.1750458652   -0.6154130651   -0.0091269181
 H    1.0429386387    1.7492039389    0.0021526594
 H   -0.5046945779    1.8572308196   -0.8758896833
 H   -0.4894840535    1.8471106111    0.9075724188
 H   -2.1221610637   -0.1223037666    0.0131117705
 H   -2.0946152659   -2.6462464197   -0.0002312719
 H    1.2235880285   -4.2253125851   -0.0285533149