23

 C   -0.3065694112    1.4766311722    0.0460157581
 C    0.0615993293   -0.0103940192   -0.0339228709
 C    0.8422712818   -0.3411807672   -1.3385665070
 C    2.3265598519   -0.0512715692   -1.2832345930
 C    3.1779575094   -0.7852493663   -0.5625866467
 C    2.7296201601   -1.9429027730    0.2641874984
 C    2.8858041759   -1.9538971063    1.7696438255
 C    1.5150949792   -1.7863903781    1.1568567432
 C    0.8338311459   -0.4316916608    1.2347505794
 H    0.5929461209    2.1030569363    0.0245286739
 H   -0.9436018720    1.7767733564   -0.7927243391
 H   -0.8445818911    1.7036279731    0.9730002157
 H   -0.8727957213   -0.5861311329   -0.0774091465
 H    0.7054020520   -1.4059618067   -1.5570295919
 H    0.3832229268    0.2025898468   -2.1711899540
 H    2.7047395554    0.7877645151   -1.8625911614
 H    4.2419733646   -0.5544655731   -0.5739469429
 H    2.8551665340   -2.9161549848   -0.2091708521
 H    3.1361656585   -2.8944370162    2.2484254523
 H    3.3289765164   -1.0817152348    2.2405044936
 H    0.8506195657   -2.6449044956    1.2156620009
 H    1.5966908593    0.3281527301    1.4382378690
 H    0.1517850985   -0.4093446358    2.0940924055