16

 C   -0.2117540913    1.4696978361   -0.1906033434
 C   -0.1049817501   -0.0009031936    0.1190956112
 O    1.1650472830   -0.6550594054   -0.0606021113
 C    0.6247139930   -0.6032328347    1.2457202706
 C    1.3973872711    0.1742017365    2.3368762104
 C    2.0960648927   -0.7517716063    3.2327502716
 C    2.6412066235   -1.5317374593    3.9633744118
 C    2.3466592116    1.1596754336    1.7954697842
 N    3.0922334911    1.9512253671    1.4076966428
 H    0.6348650524    2.0416901469    0.1887709839
 H   -0.2592085210    1.6149609297   -1.2744944663
 H   -1.1361789041    1.8723760401    0.2379776550
 H   -0.9389551841   -0.5960310656   -0.2594258455
 H    0.2678594799   -1.5569866126    1.6356036198
 H    0.6566923046    0.7322945040    2.9287113131
 H    3.1353503075   -2.2152844564    4.6094596922