21

 C   -0.2609553120    0.7966540969    1.3128047993
 C   -0.2447033921    0.3337243996   -0.1382516428
 O    0.9463137666   -0.4009049361   -0.4581671627
 C   -1.4720746415   -0.4941833957   -0.5738262916
 O   -1.3074637472   -0.8842152867   -1.9280472668
 C   -1.6895694165   -1.7334524641    0.2752489083
 O   -2.2864761299   -1.5741345273    1.5693688186
 C   -3.0055902887   -2.3179346154    0.5728796223
 C   -4.3278045580   -1.7683511678    0.1057021893
 H    0.6217685693    1.4083825693    1.5188641567
 H   -1.1540314865    1.3934675650    1.5206748272
 H   -0.2729443373   -0.0520451965    2.0040231194
 H   -0.2081764419    1.2032224450   -0.8046667147
 H    1.1236454177   -1.0092035495    0.2676795005
 H   -2.3577630649    0.1465555145   -0.5209910511
 H   -0.3660723565   -1.0892239927   -2.0184295738
 H   -0.8430788879   -2.4262014796    0.2594580479
 H   -3.0148710550   -3.3922400179    0.7696082614
 H   -4.2888577452   -0.6900848680   -0.0582552760
 H   -4.6277770922   -2.2525036221   -0.8294484983
 H   -5.1024043303   -1.9685182310    0.8532989569