16

 O   -0.0857624293    1.4274277462    0.0105948768
 N    0.0715730490    0.0496868257    0.0016489900
 C   -1.0484170823   -0.5807454495    0.0090006737
 C   -1.0185126722   -2.0927917077    0.0004580019
 C    0.3979618396   -2.6958702948   -0.0163442876
 C    0.3639694085   -4.1529982109   -0.0241004226
 C    0.3110290333   -5.3537821875   -0.0298797686
 C   -2.3266569852    0.0500904093    0.0246252683
 C   -3.4351662136    0.5190993125    0.0377561836
 H    0.8258028980    1.7406625153    0.0035258985
 H   -1.5673157274   -2.4578182356    0.8766242593
 H   -1.5839569211   -2.4482883814   -0.8690207395
 H    0.9423880182   -2.3267116086   -0.8922991693
 H    0.9589981428   -2.3363102299    0.8531018458
 H    0.2792873081   -6.4149254451   -0.0344679628
 H   -4.4045819863    0.9534633321    0.0493618825