21

 N   -0.0273410503   -1.1337303085   -0.0106830646
 C   -0.0058259404    0.0186408614    0.0634165057
 C    0.0275334729    1.4786480270    0.1877745260
 N    1.3467709775    2.0056443677   -0.1356680554
 C    1.4281411046    3.4552402709    0.0333204678
 C    2.8395620999    3.9618267081   -0.2693585071
 C    2.9568515213    5.4664109525   -0.1569808941
 C    3.2054551423    6.1198848791    1.1812740443
 C    4.2873374254    6.1128596958    0.1293061650
 H   -0.7029712579    1.9007291799   -0.5141587579
 H   -0.3301321042    1.7409295669    1.2012857537
 H    2.0415430107    1.5516082968    0.4495990601
 H    0.7166054822    3.9131159234   -0.6672992242
 H    1.1251151169    3.7847981433    1.0446181320
 H    3.5488418512    3.4921616396    0.4267938973
 H    3.1240626234    3.6281082645   -1.2744113607
 H    2.3048401260    6.0145497054   -0.8334066187
 H    2.7071196564    7.0567801974    1.4040056628
 H    3.3364219867    5.4731685088    2.0432638940
 H    5.1422144283    5.4630349197    0.2863390265
 H    4.5265733571    7.0446546502   -0.3708342326