17

 C    0.0537933355    1.4778532814   -0.0127792272
 C    0.0128397757    0.0246372009    0.0060144578
 C   -0.0195569061   -1.1805316599    0.0153772683
 C   -0.0571302282   -2.5964142572    0.0171147660
 C   -0.4019851008   -3.4771459660    1.2065923005
 C   -1.1758888054   -3.6372178337   -0.0746677790
 O   -2.5359649023   -3.4747848246   -0.1911952968
 C   -0.3005001524   -4.3023023124   -1.1283508114
 O    0.7678430294   -3.3457852315   -0.8932913939
 H    0.8203216370    1.8336139791   -0.7101016584
 H   -0.9051856004    1.9006864851   -0.3327335051
 H    0.2887818873    1.8877387877    0.9758203349
 H    0.3154087315   -4.2245607049    1.5369887566
 H   -0.9475434914   -2.9610167345    1.9906694953
 H   -2.9684890197   -3.9923298694    0.4962481090
 H    0.0196812510   -5.3369755786   -0.9582177634
 H   -0.7071140207   -4.1910849417   -2.1397324130