17

 C   -0.0612148850    1.4421126011    0.0551577655
 N    0.0123290538   -0.0060190641   -0.0275997067
 C   -1.2618761337   -0.7083069262   -0.0996289565
 C   -1.0610512124   -2.1617519517   -0.5070175441
 C    0.1114600705   -2.7088146466    0.2849446591
 O    1.2943051179   -1.9601288006   -0.0003168754
 C    1.2538266431   -0.5982423461   -0.0185135438
 O    2.2943823100    0.0151412373   -0.0406912648
 H    0.9506109670    1.8357563168    0.1258778911
 H   -0.5508113486    1.8574309936   -0.8350701188
 H   -0.6382588377    1.7499186909    0.9370596480
 H   -1.7733597757   -0.6546555221    0.8746970669
 H   -1.9063418331   -0.1887115291   -0.8204947720
 H   -1.9692526605   -2.7396552819   -0.3124083867
 H   -0.8356909828   -2.2333978697   -1.5762922828
 H   -0.0946689482   -2.6721016212    1.3640699338
 H    0.3496350253   -3.7413630106    0.0194492172