17

 N    0.1168200894   -1.1177173887    0.0467266153
 C    0.0392232268    0.0361928848    0.0198776600
 C   -0.0526096964    1.4718177733   -0.0032612413
 C    0.4076806026    2.2083470358    1.2545776320
 C    1.2694912535    2.2275087791    0.0173775621
 N    1.3395389832    3.6669130319   -0.3640294481
 C    1.5959995912    4.2253986317    1.0441693133
 C    0.1428856176    3.7247105092    1.3523134421
 C   -0.0795229800    4.1465343833   -0.1138195053
 H   -0.8974006116    1.8293482323   -0.5784384905
 H    0.6370909353    1.6369536957    2.1447723192
 H    2.1915153948    1.6735400658   -0.0994577103
 H    2.4313992705    3.7612728552    1.5732913922
 H    1.7104839302    5.3109764839    1.0083895211
 H   -0.4673061581    4.0849839896    2.1814627812
 H   -0.1093315779    5.2293645636   -0.2426210283
 H   -0.8628414711    3.7025155536   -0.7275097445