16

 C   -0.0199142925    1.5137914858   -0.0681828919
 C    1.5402696678    1.3387176818   -0.0307458335
 C    1.1583170787    0.1658236511    0.9412020273
 N   -0.0991106221   -0.0212789493    0.0666728015
 C    0.5848068327   -0.3557516523   -1.1783969357
 C    0.6270485673   -1.1493448838   -2.2872744817
 N    1.7303843427   -0.7075966761   -2.9843318704
 N    2.3970818321    0.3263646518   -2.3824457236
 C    1.6844748549    0.5183075426   -1.2946633408
 H   -0.4359922448    1.9857634363    0.8259503542
 H   -0.4802505137    1.9118453095   -0.9742490737
 H    2.2384353172    2.1352478784    0.2180141680
 H    1.8100840154   -0.7084385390    0.9878571105
 H    0.8671694746    0.4948799894    1.9423575832
 H    0.0183331865   -1.9583951558   -2.6570672340
 H    2.0775257733   -1.0587658405   -3.8591436194