16

 C   -0.0876804654    1.5456760723    0.0926352716
 C   -0.0047913262    0.0232771489   -0.0182849802
 C    0.7635270052   -0.4907294505   -1.2820864553
 N    2.1616374452   -0.0393678521   -1.3943715296
 C    0.7479571668   -1.9603118448   -1.2720358896
 C    0.7343843812   -3.1583769216   -1.2046797329
 C    0.0484044851   -0.0121210787   -2.4915492179
 N   -0.5317783797    0.3991791731   -3.4014474920
 H    0.9029825509    2.0040545012    0.1779458170
 H   -0.5939820369    1.9820709976   -0.7735409162
 H   -0.6513426225    1.8248771209    0.9869572842
 H    0.5115343259   -0.4016040568    0.8495878772
 H   -1.0099298465   -0.4104237216   -0.0336026071
 H    2.2001823848    0.9747001469   -1.3507725423
 H    2.6861553627   -0.4047926186   -0.6047602612
 H    0.7236548093   -4.2202048061   -1.1689013055