17

 C   -0.0280094021    1.4409241864   -0.0052117058
 N    0.0009266374   -0.0177522636    0.0096565791
 N   -0.0173529812   -0.6208344983   -1.1891230066
 C    0.0073084782   -1.9271412162   -1.2305193373
 C   -0.0139225899   -2.5743492533   -2.5878015075
 C    0.0528827139   -2.7091207620   -0.0328151538
 C    0.0711993119   -2.0942199645    1.1732256182
 C    0.0448695802   -0.6465523320    1.2649807375
 O    0.0583912029    0.0183473329    2.2906900444
 H    0.8605208218    1.8376064277    0.4926408507
 H   -0.0619074936    1.7566812409   -1.0459555630
 H   -0.9035869099    1.8029123579    0.5397391914
 H   -0.0511681547   -1.8089890143   -3.3641764665
 H    0.8778626920   -3.1917545732   -2.7454349247
 H   -0.8844246668   -3.2309108890   -2.6992242117
 H    0.0722580950   -3.7923415066   -0.1092732041
 H    0.1055589950   -2.6352292627    2.1112812598