17

 C    0.1108984945    1.5137964962   -0.3530461948
 C    0.2346725797    0.0083549028   -0.2239960688
 N    1.5735200304   -0.5607037103   -0.2852427149
 C    0.8580405733   -0.6536789044    0.9917421716
 C    1.3994359735    0.1567784200    2.1199368332
 O    1.1129725652   -0.0381024401    3.2744378299
 C   -0.8338320594   -0.8726466440   -0.8556875991
 N   -2.0105821361   -0.2682194338   -1.1636356896
 O   -0.6186951980   -2.0515930753   -1.0811080489
 H    1.0306199123    1.9994385941   -0.0246880689
 H   -0.0581463888    1.7982163143   -1.3967452081
 H   -0.7116543288    1.9104638864    0.2531364467
 H    1.5017429354   -1.4660951505   -0.7523841538
 H    0.4217338345   -1.6060207973    1.2801604005
 H    2.1055770088    0.9590673722    1.8147354739
 H   -2.2216396195    0.6748131937   -0.8913368109
 H   -2.7522913269   -0.8441688441   -1.5273227479