20

 C   -0.0120231588    1.5489008428    0.0495481296
 C    0.0116401237    0.0412870070   -0.0511514135
 C    0.9395105998   -0.6411761796   -1.0943322439
 C    1.1905101984   -1.6111212967    0.0798789144
 O    0.8058507011   -0.5774203608    1.0127071696
 C    0.1144399581   -2.6910000787    0.0428757880
 N   -0.7642039622   -2.7701952182    1.2170259835
 C   -1.2627429808   -2.1353821264   -0.0234214413
 C   -1.3837120796   -0.6117626628   -0.0248616939
 H    1.0060887045    1.9464360011    0.0799975914
 H   -0.5330527710    1.9852025343   -0.8095199070
 H   -0.5318295491    1.8646981704    0.9602039512
 H    0.4980227019   -1.0406392632   -2.0109041818
 H    1.8082641846   -0.0210164391   -1.3221677643
 H    2.1970171259   -1.9910451348    0.2742860617
 H    0.3570423313   -3.5973675732   -0.5075298985
 H   -1.1461125520   -3.7106412730    1.2868354562
 H   -2.0163352100   -2.6783676828   -0.5874706224
 H   -1.9263041331   -0.2700519753    0.8637860054
 H   -1.9533670527   -0.2918215108   -0.9058797442