19

 N   -0.0911220144    1.2352534687   -0.7987443650
 C   -0.0184371554    0.1239533762   -0.1935676138
 C   -1.2901749656   -0.6918511282    0.0141290356
 N   -1.8509348642   -0.6657302824    1.3608548542
 C   -1.2122462476   -1.4286216198    2.4265750204
 C    0.1665518421   -0.9619885665    2.9367767010
 O    1.3104739963   -1.5373194064    2.3084593599
 C    1.3263370082   -1.5810098055    0.9225259177
 O    1.1793079678   -0.3026688290    0.3199844415
 H    0.8300111988    1.6796094681   -0.8269029448
 H   -2.0174454978   -0.2457258007   -0.6670641749
 H   -1.1652215737   -1.7355422581   -0.2912653753
 H   -1.9921154095    0.2962483310    1.6501487852
 H   -1.8943269329   -1.3946228706    3.2847788385
 H   -1.1565620165   -2.4829869433    2.1277370275
 H    0.2188048683    0.1351450747    2.8759115345
 H    0.2782867466   -1.2402726028    3.9890808325
 H    2.3238361606   -1.9324366079    0.6489979075
 H    0.5763713189   -2.2722237975    0.5211922078