19

 C   -0.3493845155    1.4841079622    0.1160534716
 C    0.0689317926    0.0413928644   -0.0207157083
 C    0.1137447659   -0.5712829848   -1.2106249932
 C    0.4487300946   -2.0318878621   -1.4488235787
 C   -0.5387240612   -2.9163432054   -0.7124949800
 C   -0.7330382494   -2.9004116527    0.6092833539
 C   -0.0064728602   -2.0479162905    1.5737220463
 O    1.3504810340   -1.6881761039    1.2947536471
 C    0.3887113173   -0.6336617911    1.2661271968
 H    0.4478791091    2.0911671941    0.5635691702
 H   -0.6032339331    1.9177796392   -0.8541308531
 H   -1.2249025452    1.5855075746    0.7706244874
 H   -0.1618844225    0.0096904895   -2.0878128721
 H    0.3981322325   -2.2424011670   -2.5200573618
 H    1.4694819621   -2.2520687400   -1.1253281867
 H   -1.1584692218   -3.5747394410   -1.3156296335
 H   -1.4981914441   -3.5382974469    1.0436964167
 H   -0.1822953009   -2.2786130773    2.6245237683
 H    0.4627867255    0.0371450387    2.1237193689