16

 O   -0.0327956518    0.0429898985    0.1832219525
 C    0.0403960225    1.2446623078    0.0505802713
 N    1.1894233196    1.9409532388   -0.1382670515
 C    1.4878837801    3.3614208471   -0.1193279451
 C    2.1936341200    3.7372520090    1.1547535781
 C    2.9648218167    3.0466613746    0.0594269866
 C    2.6109235269    1.5368720785    0.0045187927
 C    2.9654986308    0.7160207354    1.1502475530
 C    3.2977697481    0.0614132033    2.1010641268
 H   -0.8424024366    1.9183340315    0.0276055926
 H    0.9921399810    4.0524015861   -0.7894182007
 H    2.4193252382    4.7931752165    1.2661585949
 H    1.9635955660    3.2138784404    2.0778316701
 H    3.8221028810    3.4811778997   -0.4332625010
 H    2.9671944523    1.0710347436   -0.9210039673
 H    3.5732605852   -0.5348047207    2.9358051473