18

 C    0.3125977581    1.0949954927   -0.4501680555
 C   -0.5694591854    0.4008608063    0.5935647769
 C    0.2376583354   -0.3052170681    1.6608030610
 C   -0.2367158758   -1.5708728085    2.3522793374
 O   -1.2842381080   -2.2762661566    1.7195735176
 C   -0.6521460348   -3.0812646362    0.7400452180
 O    0.4852374745   -2.3669098368    0.2902870489
 C    0.9293360548   -1.6336370036    1.4136296374
 H    0.9307199040    0.3632362572   -0.9791183339
 H   -0.2963983641    1.6235010471   -1.1903699295
 H    0.9822682784    1.8276404430    0.0140329294
 H   -1.2242676365    1.1347406891    1.0794582527
 H   -1.2288494294   -0.3194199093    0.1034105284
 H    0.8066185679    0.3540726041    2.3154157494
 H   -0.1795539117   -1.7039461204    3.4273825441
 H   -0.3499452372   -4.0492616195    1.1760076388
 H   -1.3373769761   -3.2323683237   -0.0985732847
 H    1.9560943958   -1.8231462867    1.7081197837