21

 C    1.1007845101    0.9203581884    0.5799651873
 C   -0.0633013758    0.1164430864   -0.0164090558
 C   -0.5403970977   -0.9658454095    0.9523778781
 O   -1.1947896089    0.9711746308   -0.2261279001
 C    0.3162018971   -0.4749911479   -1.3569983653
 C   -0.3505542176   -1.6081358528   -2.1620251101
 C    1.0238374360   -1.8393950986   -2.8847913086
 C    1.5996838464   -0.6858183975   -2.0558589348
 O    0.7947635941    0.4681932898   -2.3403144249
 H    1.9340181952    0.2691592799    0.8626691519
 H    1.4684694791    1.6541818877   -0.1424764616
 H    0.7529757203    1.4484894018    1.4714484958
 H   -0.8172394636   -0.5079993400    1.9057245425
 H   -1.4199954386   -1.4775862903    0.5545341707
 H    0.2470549923   -1.7028768967    1.1350771076
 H   -0.9408305712    1.6040967887   -0.9083180274
 H   -0.6480885178   -2.4637981285   -1.5530530947
 H   -1.1903647803   -1.2920581025   -2.7837317669
 H    1.4670145784   -2.8081729205   -2.6425938885
 H    1.0481100771   -1.6853938284   -3.9658571645
 H    2.6219450255   -0.5040569803   -1.7431745006