18

 C   -0.1774267259    1.6652045328    0.0418882348
 C    0.0164481781    0.1609223651    0.0018603848
 C    0.8954625967   -0.5753469570   -1.0627727491
 C    0.6270220682   -0.8360192854   -2.5086115922
 C    2.1889725743   -0.0662653868   -0.3666484013
 C    1.1992326510   -0.5707438823    0.7116128945
 O    0.9277766875   -1.7493110558   -0.1307303640
 C    1.4204354782   -0.7569003479    2.1251414036
 N    1.5934124961   -0.8592288650    3.2633591708
 H    0.7407450416    2.2281301583   -0.1420853861
 H   -0.9114373730    1.9680874855   -0.7123421323
 H   -0.5673725327    1.9712505999    1.0180027025
 H   -0.9181057753   -0.3788247524    0.1754848922
 H    0.6248130865    0.1048734784   -3.0678963010
 H    1.3968423845   -1.4878973969   -2.9317153901
 H   -0.3470075316   -1.3175227629   -2.6359773813
 H    3.0614168763   -0.7053991102   -0.5025861445
 H    2.4309149493    0.9964038725   -0.3990232613