16

 O    0.4401516201    0.0515280449   -0.0955654487
 C    0.1633042843    1.2072877413    0.0268849032
 C   -1.1821109982    1.9956871768   -0.0274372191
 C   -0.3255888043    3.2729043466   -0.0765900888
 N    0.4179071684    3.3043041236    1.1799684122
 C    0.9633539493    2.4889239460    0.0329476084
 C   -0.5803012888    4.4986372297   -0.8712448923
 C   -1.0054243032    5.7557714858   -0.2355339673
 O    0.3484294057    5.5653078426   -0.6654216778
 H   -1.7111261145    1.7677607048   -0.9577610037
 H   -1.8574576100    1.9060261960    0.8254967462
 H    0.9693899952    4.1665109713    1.1607553266
 H    1.9535700237    2.6916872408   -0.3548993869
 H   -0.8574103058    4.3315991200   -1.9125901269
 H   -1.5751707092    6.4826452524   -0.8107828396
 H   -1.1500349225    5.7848498074    0.8424827643