17

 C    0.0428139703    1.3700066986    0.0635356508
 C    1.4673014909    1.8942937483    0.0028639752
 O    2.0646099797    1.5787889354   -1.2561996105
 C    1.9360192020    0.2345098530   -1.6271847777
 C    2.9143411043   -0.8192460114   -1.0887536122
 O    2.6906537245   -0.9588961752    0.3172293897
 C    1.8007703734   -1.6417974323   -0.5660766509
 C    0.7483323500   -0.6189930640   -1.0152080157
 O    0.0098785870   -0.0524759822    0.0380016183
 H   -0.4366273920    1.6648430437    1.0015299731
 H   -0.5383880383    1.7909202527   -0.7727854231
 H    1.4742257870    2.9863895086    0.0704676128
 H    2.0535381828    1.4751746517    0.8289262574
 H    1.9044632265    0.2021056126   -2.7209761742
 H    3.8849806061   -1.1145450625   -1.4707947584
 H    1.7127038315   -2.7156089066   -0.4574528106
 H    0.0782807741   -1.0025611804   -1.7962896339