21

 C   -0.1619393452    1.4485196225    0.1706024342
 C    0.0422464848   -0.0284679696    0.0945603392
 C   -0.7576696946   -1.0893594237    0.7948069862
 C    0.7549496628   -1.0619957566    0.9555590263
 C    1.3561632223   -1.5344243702   -0.3680884874
 O    0.5831006649   -0.5643676982   -1.1225454656
 C    1.5043966991   -0.9947311665    2.2356505745
 C    0.8282545538   -0.8124377441    3.5733351542
 C    1.4489961646   -2.1392800603    3.2285459035
 H    0.7601186068    1.9846987754   -0.0749484043
 H   -0.9378916342    1.7670012302   -0.5350608798
 H   -0.4787601165    1.7392583882    1.1761560978
 H   -1.3177947936   -0.7520901168    1.6610570102
 H   -1.2382975940   -1.8729751826    0.2137396456
 H    2.4293605717   -1.3254021197   -0.4575030373
 H    1.1556434245   -2.5663481043   -0.6823119377
 H    2.4766025231   -0.5147390750    2.1449337653
 H    1.3241951609   -0.1841428055    4.3048141254
 H   -0.2537897183   -0.7557696475    3.6041907062
 H    0.7780842176   -2.9606747105    3.0017024103
 H    2.3651596994   -2.4318808547    3.7291406631