18

 O    0.1553119135    1.3568113523    0.0287988286
 C    0.0133999091   -0.0158775298   -0.0244693991
 C   -0.4582242867   -0.7047649710    1.2235835961
 N   -0.7853669392    0.2252653460    2.2873132782
 C   -2.2183441961    0.4580204714    2.4999886862
 C   -2.8290638374    1.0361434377    1.2163285776
 C   -2.6550380124    0.0784852501    0.0448516158
 O   -3.5225592762   -0.0926417637   -0.7835532590
 C   -1.3776427835   -0.6880966906    0.0058032996
 H    0.0365829679    1.5737660060    0.9731392633
 H    0.7395378854   -0.5008381913   -0.6696184019
 H   -0.0341420727   -1.6600522483    1.5206766375
 H   -0.3236969068   -0.0447675722    3.1454245311
 H   -2.7573289657   -0.4620113851    2.7813265695
 H   -2.3297037262    1.1683496256    3.3253417873
 H   -3.8953854379    1.2435673587    1.3317084220
 H   -2.3215428650    1.9758018097    0.9651965102
 H   -1.4456400001   -1.5998206358   -0.5770813631