17

 C   -0.1818112130    1.4898913781    0.0488675745
 C    0.0461583631   -0.0051015023    0.1282179386
 O    0.1414978382   -0.5939333918    1.1785094337
 C    0.1774231103   -0.7367397053   -1.2118525345
 C   -0.1476097934   -2.2162721340   -1.1122772976
 O   -1.5654495743   -2.5164178391   -1.2093391354
 C   -1.4051686643   -3.4100754585   -2.3295449724
 C    0.0929395235   -3.0839464692   -2.3543988061
 O    1.0273277647   -3.3430878492   -3.0486733240
 H    0.5365903215    1.9579344418   -0.6331702313
 H   -1.1803575900    1.6833782938   -0.3609333298
 H   -0.1046233339    1.9351390789    1.0412048691
 H   -0.4385611726   -0.2569371943   -1.9793421901
 H    1.2232907280   -0.6275572820   -1.5342945652
 H    0.2851544263   -2.6261887817   -0.1903857427
 H   -1.6469166033   -4.4530458534   -2.0870565501
 H   -1.9761923008   -3.1011552319   -3.2140326065