20

 O    0.0572616551    1.4918385690    0.0682225668
 C    0.0734169443    0.0869769400   -0.1455152855
 C   -1.3494345265   -0.4235793396    0.0483565943
 C   -1.4552993917   -1.9473667045   -0.0696371710
 C   -2.8454878932   -2.5207707161    0.1327957786
 C   -3.1654984601   -3.3505318806   -0.8595144908
 C   -2.0726822258   -3.3793502854   -1.8736673637
 C   -1.8178704305   -2.0739775631   -2.5487282864
 N   -1.0063292991   -2.4728681902   -1.3899539780
 H    0.9383153411    1.8314162416   -0.1127834090
 H    0.4246323005   -0.1632352473   -1.1565890109
 H    0.7465963377   -0.4175311719    0.5672995164
 H   -1.6946210667   -0.1198648017    1.0437066208
 H   -2.0084463430    0.0687533447   -0.6748282602
 H   -0.7729907933   -2.3792733468    0.6796099373
 H   -3.4713462565   -2.2622092162    0.9793559055
 H   -4.0834619644   -3.9171637308   -0.9559946046
 H   -1.7716210286   -4.3157626640   -2.3361585482
 H   -1.2614844011   -2.0353309682   -3.4816050111
 H   -2.5816426982   -1.3094609190   -2.4336678202