12

 O    0.0888941136   -0.0810593287    0.0025399581
 C   -0.0379520491    1.1222890569    0.0072993942
 C    1.1511558813    2.0100916731    0.0013679102
 N    2.0523953342    2.7346232600   -0.0029624667
 C   -1.3081676278    1.8300817668    0.0188057325
 C   -2.6095618854    1.3414768198    0.0268049667
 C   -3.4150234263    2.4862315158    0.0361628374
 N   -2.6818183963    3.6091921672    0.0344419353
 N   -1.4200663143    3.1926894462    0.0239775673
 H   -2.8987887153    0.3039591167    0.0256686722
 H   -4.4920864559    2.5549816378    0.0441718805
 H   -0.6706104486    3.8690456486    0.0206804924