23

 C    1.1488505014   -0.3023939275    1.0940208315
 C    0.3069159400   -0.2176758498   -0.1825732381
 C   -1.1692225612   -0.5932476400    0.0253973848
 C   -1.9933515679   -0.3292724890   -1.2318488673
 C   -3.4627335808    0.0077414478   -1.1632222718
 C   -2.4623729433    1.0647704753   -1.5611921334
 C   -1.3234646819   -2.0817987205    0.3741084365
 C   -2.4021259440   -2.4480386905    1.3749023150
 O   -0.6298685795   -2.9219802795   -0.1537319482
 H    2.1825122972    0.0008178522    0.9018231673
 H    0.7526415682    0.3525933975    1.8788570111
 H    1.1738895521   -1.3238189714    1.4866892532
 H    0.3482754438    0.7990138421   -0.5892891433
 H    0.7235530151   -0.8865049703   -0.9427242377
 H   -1.5914749020    0.0076804750    0.8426493268
 H   -1.6858458220   -0.9404793603   -2.0763342227
 H   -4.1220459545   -0.3966560460   -1.9231623505
 H   -3.9220215281    0.1011110080   -0.1842549583
 H   -2.2510318110    1.8522313890   -0.8447870353
 H   -2.4327561745    1.3875194049   -2.5959465022
 H   -2.1550385681   -2.0225162132    2.3549919193
 H   -3.3640774530   -2.0179551018    1.0764726576
 H   -2.4863688262   -3.5324027319    1.4582033959