19

 C   -0.1881247706    1.5343751590    0.0896026305
 C    1.3256473380    1.5317186397   -0.2432855666
 N    1.4199493730    0.1867457120    0.3404302327
 C   -0.0418688398    0.0089394455    0.3278321005
 C    2.3019987331   -0.7771684741   -0.1389725730
 C    3.4920478416   -0.5527241945   -0.8058517305
 N    4.0624324640   -1.7853796471   -1.0570921602
 C    3.2578155436   -2.7778786033   -0.5764633893
 C    2.1549484255   -2.1910159119    0.0021114230
 H   -0.4282912924    2.0911811112    0.9969349956
 H   -0.8629224827    1.8397767645   -0.7101909441
 H    1.5308582224    1.5429458678   -1.3259707869
 H    1.9537965447    2.2886782149    0.2399183547
 H   -0.4628014828   -0.4005195185    1.2526786546
 H   -0.3965617722   -0.5969762526   -0.5197621769
 H    3.9793646365    0.3621442286   -1.0975557700
 H    4.9360616126   -1.9260695951   -1.5304998037
 H    3.5274728239   -3.8163224814   -0.6827260928
 H    1.3356501915   -2.7062687946    0.4787393122