23

 C    0.4268327531    1.4946616664   -0.6829680989
 O   -0.2310354352    0.2734976219   -0.4402260015
 C    0.4619747682   -0.8375904698   -0.9506065990
 C    1.6959172228   -1.3621255212   -0.1577595508
 C    1.1012519548   -2.7999692999   -0.2507573948
 C   -0.2573345653   -2.1763270676   -0.6997105208
 C    1.7843879275   -3.7127906770   -1.2657662227
 C    1.0867080891   -5.0666371811   -1.4049380082
 O    1.8165448624   -3.0195897463   -2.5141900779
 H    1.4162119826    1.5355909123   -0.2017840099
 H    0.5643649431    1.6755875393   -1.7611267113
 H   -0.1963771175    2.2912568310   -0.2683907405
 H    0.7037313698   -0.6908341257   -2.0114721135
 H    2.6826834757   -1.2091598474   -0.6003982445
 H    1.6892771205   -0.9813931218    0.8674192687
 H    1.0635409835   -3.3361518205    0.7015252907
 H   -0.9590389974   -2.0803693869    0.1323559410
 H   -0.7658087313   -2.6294905395   -1.5525702087
 H    2.8171066457   -3.8836441999   -0.9147103981
 H    0.0487816461   -4.9378039405   -1.7263370714
 H    1.5967133923   -5.6929610746   -2.1465098828
 H    1.0919713045   -5.6105341420   -0.4547108641
 H    2.2254889650   -3.5953543890   -3.1670742909