19

 O   -0.0939178000    1.3749913296    0.0644872020
 C    0.0330066592   -0.0082054544    0.0276397527
 C    0.9484699379   -0.7739108084   -0.9813924324
 C    0.7198027504   -1.9379267331    0.0290224137
 C    0.7198447717   -0.8538053320    1.1475609021
 C   -0.7756681364   -2.1752715323   -0.1381432912
 C   -1.3907361839   -3.3427201301   -0.7666698040
 O   -1.4158486473   -3.1651298321    0.6591407199
 C   -1.3138386097   -0.7335977464   -0.1496026259
 H    0.7804109173    1.7576700434    0.1909160128
 H    0.5996430732   -0.8966151805   -2.0106634358
 H    1.9809853106   -0.4135618596   -0.9674260370
 H    1.3659939662   -2.8125829458    0.0685623707
 H    1.7278418139   -0.4976514803    1.3785882890
 H    0.1621986463   -1.0568340122    2.0651360433
 H   -2.3554172744   -3.2473710571   -1.2641840605
 H   -0.7672215549   -4.1628245137   -1.1224606770
 H   -1.9978954305   -0.5526231975    0.6834644324
 H   -1.8103453796   -0.4550012077   -1.0832396948