18

 C   -0.1088324332    1.5595289440   -0.0355099628
 C    0.0546104465    0.0608907718    0.0579949614
 C    1.3590620334   -0.6961544509   -0.1778709283
 C    2.6301415373    0.0708423043   -0.0514738920
 C    2.8175308624    0.5378765455    1.1950662512
 C    1.7054801960    0.1088210228    2.0533988157
 N    1.5108392236    0.2869472837    3.3070218639
 O    2.5490790050    1.0373919773    3.8852939456
 C    0.7364056079   -0.6602620153    1.2101705958
 H    0.7935980403    2.0929617248    0.2690842373
 H   -0.3479054406    1.8578252340   -1.0621262299
 H   -0.9287111594    1.8933709685    0.6093138659
 H   -0.8107337613   -0.4882779638   -0.3076832426
 H    1.3303162258   -1.5823576711   -0.8023865136
 H    3.2948405097    0.2471451713   -0.8895787831
 H    3.6287321662    1.1603415945    1.5431851435
 H    2.2776048159    1.0782271230    4.8081069539
 H    0.2370978146   -1.5150990445    1.6483024779