17

 C    0.1602040764    1.2701315152    0.2703804000
 O   -0.1987254293   -0.0366529400   -0.1523471838
 C    0.5793386083   -0.5269009739   -1.2016414523
 C    1.9310723421   -1.1454772038   -0.8442231950
 C    0.7676117593   -2.0286351006   -1.1869985665
 C    0.4486661815    0.1422671886   -2.4627256965
 C    0.3385801966    0.7148079469   -3.5238736087
 C    0.1888772693    1.4041186696   -4.7742221735
 O    0.7455799345    1.0919022938   -5.8036186311
 H    1.2013119244    1.3080430896    0.6195308607
 H    0.0313918135    2.0032457680   -0.5362912544
 H   -0.5070242102    1.5238368847    1.0961988367
 H    2.7424024321   -1.0460694895   -1.5549674307
 H    2.2093003826   -1.0632867198    0.2002594484
 H    0.2591194191   -2.5343510202   -0.3747028423
 H    0.7630523885   -2.5448082080   -2.1388904688
 H   -0.4977699590    2.2743000294   -4.7279906922