15

 C   -0.1394291294    1.4648687998    0.0009918553
 C    0.0319891633   -0.0210211137    0.0290374841
 C   -0.0523017569   -0.9445025424   -1.2052459334
 O    0.6827826544   -2.1378301090   -0.9339735003
 C    0.0801720451   -2.1493345711    0.3848345867
 C    0.6760956983   -0.8925572114    1.0668653536
 O    1.1923823698   -0.6813813700    2.1271331920
 C   -1.0510873554   -1.1414392289   -0.1192619415
 O   -2.3859685123   -0.9806680260    0.0778293450
 H    0.7798635357    1.9597596842   -0.3277578961
 H   -0.9437332576    1.7569356191   -0.6815800679
 H   -0.3881454576    1.8418103130    0.9974008808
 H   -0.1040221652   -0.5631449013   -2.2172443965
 H    0.0043733606   -3.1271395031    0.8525116015
 H   -2.8574395729   -1.6819142193   -0.3887948734