20

 C    0.0572435189    1.7848948679   -0.2134104186
 C    0.1048128401    0.2906663962    0.1330406918
 C   -1.2240483027   -0.4712853702   -0.0116195041
 C   -1.8265830691   -0.5624428369   -1.4611019491
 C   -2.0843056288   -2.0741188198   -1.2233448585
 C   -1.1583492162   -2.0235765937    0.0217398982
 C   -2.2791578316    0.0738517728    0.9269560444
 O   -2.8790393111   -0.5656743007    1.7549104136
 H    1.0650366552    2.2106405266   -0.1970058437
 H   -0.3537684761    1.9481293636   -1.2154086733
 H   -0.5489220015    2.3591211635    0.4930694551
 H    0.8301498588   -0.2021891255   -0.5260515081
 H    0.4847416747    0.1574390587    1.1545098492
 H   -2.6914025517    0.0689813821   -1.6868810831
 H   -1.0583411877   -0.3741225754   -2.2171116868
 H   -3.1231486453   -2.2781525592   -0.9533818052
 H   -1.7967513885   -2.7505338050   -2.0306982568
 H   -0.1494035558   -2.3897260566   -0.1858497504
 H   -1.5326516025   -2.4863380894    0.9356731053
 H   -2.5035452192    1.1555628708    0.7842718904