18

 O    0.1873857880    1.3288337220    0.1465791508
 C    0.0462617452   -0.0609442254   -0.1176089728
 C   -1.3855878040   -0.5044041194   -0.0995311578
 C   -2.0999642639   -0.9438236447    1.1435722965
 C   -1.9579417405   -1.9416809112    0.0072310765
 C   -2.9199910570   -1.5970449133   -1.0719405002
 C   -2.4279156816   -0.1576522121   -1.1872512512
 N   -3.7065542773   -2.3444380940   -1.7258095964
 O   -4.3766098750   -1.6087679094   -2.7255636797
 H   -0.2199495988    1.5020797136    1.0019547452
 H    0.4812390792   -0.2122287300   -1.1116087099
 H    0.6304399344   -0.6697803704    0.5917348993
 H   -1.4672177181   -1.1611696800    1.9998051751
 H   -3.0773972354   -0.5436011471    1.3993781869
 H   -1.4483257075   -2.8876910550    0.1391379081
 H   -3.1370385980    0.6426313585   -0.9582458442
 H   -1.9885242272    0.0323431738   -2.1710106702
 H   -4.9135126126   -2.2876693260   -3.1473979561