15

 C    0.0988362459   -1.1512929961    0.0474658966
 C    0.0234711080    0.0482323098   -0.0135448039
 C   -0.1210006509    1.4639881229   -0.0630977219
 C    0.2547768808    2.2913980245   -1.2399701853
 N    1.0729924485    2.4206438419   -0.0277340786
 C    0.3264119979    3.2114332707    1.0332088491
 C   -1.0608681318    3.6984415673    0.7178072118
 C   -0.8342513633    2.2530954246    1.0648339166
 H    0.1810269367   -2.2088172834    0.0967364409
 H    0.7874935904    1.7703619719   -2.0297895944
 H   -0.3715529725    3.1044228226   -1.5884648597
 H    0.9292888669    3.6166904359    1.8346692495
 H   -1.4945246450    4.2708184646    1.5329471633
 H   -1.3890123009    4.0368616070   -0.2580481121
 H   -1.2965115008    1.7526120559    1.9038960980