20

 C    0.1161320749    1.4920631173   -0.0393336118
 N    1.2807938858    0.5897888898    0.0430068144
 C   -0.0843511454    0.0231859708    0.0100715865
 C   -0.5279493652   -0.6797507471    1.2793905712
 C   -0.0985578996   -2.1527937414    1.2354742887
 C   -0.7519517500   -2.9179361249    0.0691066570
 C   -0.8071953887   -2.1192846552   -1.2230838655
 O   -1.8475321048   -1.1315495471   -1.3108857389
 C   -0.4940884201   -0.6778570373   -1.2489252113
 H   -0.0618733992    2.0881308418    0.8517742561
 H   -0.0812771837    2.0087038574   -0.9756649972
 H    1.7200569192    0.5094835462   -0.8723980508
 H   -0.0760074118   -0.1742680490    2.1372442229
 H   -1.6170515111   -0.6018409809    1.3745724609
 H    0.9924238534   -2.1852672132    1.1276614548
 H   -0.3365654250   -2.6503134765    2.1810709771
 H   -0.2112276521   -3.8533781722   -0.1121488468
 H   -1.7810078707   -3.1983080554    0.3255047371
 H   -0.6769979866   -2.6852769010   -2.1459044754
 H   -0.1231848895   -0.2289409921   -2.1741683891