20

 C   -0.0642805461    1.6321561659   -0.0678321581
 C   -0.0112217450    0.1051018902   -0.1575185021
 C   -1.3657743852   -0.5539544190    0.1487338506
 C   -1.3113997678   -2.0521010010    0.0737697501
 C   -1.5986481786   -2.8354675283   -1.1348177624
 N   -2.5985619540   -2.9006264524   -0.0161609085
 C   -2.0051273325   -3.7968968826    0.9618384709
 O   -2.4766052896   -4.7647522882    1.4694069459
 C   -0.7243813292   -2.9675478450    1.1553258887
 H    0.9110786961    2.0768364953   -0.2867571421
 H   -0.7873289545    2.0453698596   -0.7795560060
 H   -0.3633890182    1.9594743989    0.9339318894
 H    0.3177993084   -0.1974057418   -1.1595680286
 H    0.7447635007   -0.2784698194    0.5398128262
 H   -1.7024240507   -0.2541573785    1.1499115328
 H   -2.1242243823   -0.1912519088   -0.5553701126
 H   -1.9999597794   -2.3193428305   -2.0012553456
 H   -1.0269564209   -3.7306942110   -1.3688543183
 H    0.2319417251   -3.4565866910    0.9534231958
 H   -0.6947232964   -2.5169450724    2.1514085937