18

 C   -0.0889077212    1.5085465622    0.0718756933
 C    0.0078466799    0.0122908243   -0.0017228882
 C    0.0518659024   -0.6504453811   -1.1638914596
 N    0.1090222397   -2.0463857675   -1.2492224702
 C    0.0019572855   -2.9158074717   -0.1809464908
 O   -0.1739909620   -4.1082582958   -0.3465144739
 C    0.0998224968   -2.2788051987    1.1642193492
 C    1.3488706746   -1.5277616009    1.5728581774
 C    0.0900169415   -0.7529589306    1.2681470609
 H    0.7714029800    1.9426749984    0.5976711532
 H   -0.1373256260    1.9572526693   -0.9242686511
 H   -0.9840120632    1.8229049424    0.6246318846
 H    0.0439791356   -0.1432619667   -2.1216947184
 H    0.0183853312   -2.4872485467   -2.1520098631
 H   -0.3929372445   -2.8620348633    1.9324438618
 H    1.6527697480   -1.6286340487    2.6082681172
 H    2.1636229794   -1.4618982282    0.8606076634
 H   -0.4333143076   -0.3249084769    2.1186168542