20

 C    0.4495370238   -0.8420005888    1.9971005295
 C    0.2918009678   -0.3649608919    0.5470353171
 C   -1.1249831943   -0.4573855241   -0.0032161267
 C   -2.1559024592    0.3917683744    0.7386657300
 O   -3.4632246450    0.3233354822    0.1934096639
 C   -1.2958569545   -0.6567533331   -1.4804099841
 C   -1.6325981666   -1.7984094142   -0.5282568478
 C   -0.8032115658   -2.9677018120   -0.4857504051
 N   -0.1315087286   -3.9096727477   -0.4432516687
 H    1.4997884815   -0.7930231934    2.2986438216
 H   -0.1203067054   -0.2264036066    2.6996220409
 H    0.1203121308   -1.8794014735    2.1071823803
 H    0.6268155134    0.6774048324    0.4604412430
 H    0.9567607650   -0.9531210911   -0.0937722955
 H   -2.2452983047    0.0382949434    1.7704637296
 H   -1.7952199784    1.4310032788    0.7807040707
 H   -3.5100476703    0.9202431203   -0.5588896383
 H   -2.1416540597   -0.2093453463   -1.9896809333
 H   -0.4022023568   -0.7584124660   -2.0853245332
 H   -2.6909412928   -1.9852039126   -0.3816098039