16

 O   -0.3104076060    1.4615835001   -0.1517366644
 C   -0.0806212499    0.0703798656   -0.1010390651
 C    1.1650608823   -0.4121177282   -0.9410985952
 N    1.9271307582   -0.4873022875    0.3619916896
 C    0.7148736249   -0.4837375204    1.0530813723
 N    0.1393446997   -1.0498605295    2.0296707137
 C   -1.3147718452   -0.8792854640    1.7104389579
 C   -1.4013770885   -0.6605589363    0.1539383520
 H    0.5126797925    1.9124226752    0.0693830916
 H    1.0363685455   -1.3874208135   -1.4217533018
 H    1.5707159365    0.3162278073   -1.6472319948
 H    2.6148467353   -1.2116892836    0.5349384902
 H   -1.8490093741   -1.7791035764    2.0263076289
 H   -1.7404512698   -0.0320741384    2.2618625621
 H   -2.2675059855   -0.0766202490   -0.1639761620
 H   -1.4235590959   -1.6318871813   -0.3488542852