22

 C    0.7766149581    0.1139186723   -0.8855269554
 C   -0.1400217413    0.1762742749    0.3463004104
 C   -0.1822353519    1.5984915596    0.9279689486
 C   -1.5358520449   -0.2958566581   -0.0260471585
 C   -1.9430241120   -1.7544456588   -0.0984697197
 C   -1.0175601015   -2.9046727059    0.2271595111
 N   -2.4476719233   -0.8827652393    0.9388944247
 C   -2.3524012955   -1.0312374648    2.3002562519
 O   -2.5039842194   -2.0728056290    2.8979501451
 H    1.7821367806    0.4685991599   -0.6388875499
 H    0.8614905780   -0.9057599482   -1.2722629053
 H    0.3912836130    0.7478317299   -1.6927333858
 H    0.2629999163   -0.4939261628    1.1147729377
 H   -0.8012504762    1.6508102997    1.8285910379
 H    0.8239228962    1.9396059299    1.1912231072
 H   -0.5938189545    2.3062771316    0.1990671143
 H   -2.0319848457    0.3704075285   -0.7349820642
 H   -2.6916951969   -1.9965495020   -0.8530517204
 H   -0.2229592291   -2.6190481585    0.9188134414
 H   -1.5800836751   -3.7158603085    0.6962640887
 H   -0.5594899874   -3.2856272522   -0.6913310152
 H   -2.2020579775   -0.0608351381    2.8128336353