17

 O   -0.0125793939    1.4183035838    0.0102500854
 C   -0.0039855034    0.0164128074    0.0030334520
 C   -1.4575108406   -0.4683051970    0.0114743869
 O   -2.4089133615    0.2786405863    0.0224785670
 N   -1.6243816730   -1.8387910954    0.0056415049
 C   -2.9560852780   -2.4660602730    0.0129477816
 C   -2.5837297576   -3.9753383975    0.0032251070
 N   -1.1091621151   -4.0544843622   -0.0081011324
 C   -0.6750661082   -2.8598437962   -0.0059888118
 H    0.9010467148    1.7184750600    0.0028904961
 H    0.4959304166   -0.3965469455   -0.8893584580
 H    0.5092262137   -0.4055407825    0.8836153743
 H   -3.5117245205   -2.1556003427    0.9011862582
 H   -3.5252225001   -2.1476029453   -0.8638376316
 H   -2.9648493393   -4.5023233254    0.8834631516
 H   -2.9778949509   -4.4941695846   -0.8761130674
 H    0.3799128470   -2.6103324703   -0.0127837740