19

 O    0.0979535649    1.4198955906   -0.2149423689
 C    0.0418017729    0.0329481727    0.0162239802
 C    0.2911497352   -0.5259990465    1.4646235510
 C   -1.0944126242   -1.2313844211    1.4249817449
 C   -2.3247994708   -0.4803154555    1.9904672863
 C   -2.2294222245    1.0104527202    1.8127863829
 C   -2.5801167545    0.1710933427    0.6228112068
 C   -1.3839321026   -0.5927527604    0.0230764515
 O   -1.8054204662   -1.3088551054   -1.0993724542
 H    1.0216819802    1.6904151421   -0.2208166441
 H    0.6629397440   -0.5102688857   -0.7158594848
 H    1.1430441771   -1.2072588158    1.5320461453
 H    0.4018826859    0.2458859970    2.2290166789
 H   -1.1174358774   -2.3134537879    1.5515146652
 H   -3.0401445166   -0.9193537753    2.6757362101
 H   -3.0684297018    1.5611781093    2.2281749347
 H   -1.2909840122    1.5495811357    1.8581353873
 H   -3.5038863349    0.2884020479    0.0701931252
 H   -1.0951575643   -1.9006503046   -1.3691945081