21

 C    0.5404183689    1.6209673486    0.1802280088
 C   -0.1416872265    0.2561782438   -0.0435964793
 O    0.1714278019   -0.2424247695   -1.3187735885
 C    0.3284474517   -0.7430292775    1.0225045117
 O    1.1521640753   -1.5777984063    0.6880651964
 C   -0.1799213559   -0.6581530313    2.4265997965
 C   -1.4072845730    0.1818874446    2.7292773273
 C    0.0407599552   -1.9192090507    3.2525954797
 C    0.9216695417   -0.7411126021    3.4893155654
 H    1.6268085213    1.5017095070    0.1270705211
 H    0.2312747134    2.3026452058   -0.6158687880
 H    0.2843647691    2.0697232695    1.1440918570
 H   -1.2304215725    0.3810330206    0.0275997101
 H    0.8262214989   -0.9412615238   -1.1568888735
 H   -2.2839510402   -0.1725204131    2.1764772703
 H   -1.6475582823    0.1198975020    3.7946504358
 H   -1.2642554376    1.2397480877    2.4905135360
 H   -0.7241191565   -2.1531417829    3.9845463170
 H    0.4669741234   -2.7644408604    2.7265529130
 H    1.9419397123   -0.7952440462    3.1281897487
 H    0.7751355513   -0.1427592958    4.3820371246