20

 C    0.1068484536    1.4865203502    0.2809494733
 C    0.0405431396    0.0105795079   -0.1379838145
 C   -1.3596905406   -0.5274247439   -0.1634113442
 N   -2.0998386106   -0.8732694800    1.0682610425
 C   -1.9091908808   -1.9100213327    0.0216004837
 C   -2.9731580109   -1.6567225265   -1.0761152589
 O   -4.2638286578   -1.1909705379   -0.6514457898
 C   -3.8502108479    0.1958596368   -0.7789764467
 C   -2.4357561577   -0.2207154325   -1.2454889392
 H    1.1388623229    1.8494842121    0.2764123270
 H   -0.4722457605    2.1151855537   -0.4034035966
 H   -0.3005852173    1.6296825970    1.2865053239
 H    0.4897560827   -0.1090613545   -1.1324284062
 H    0.6440593511   -0.5999705789    0.5468738511
 H   -1.4068796123   -1.0644676599    1.7921977444
 H   -1.4098383551   -2.8417790756    0.2634553767
 H   -3.0139634300   -2.3998172348   -1.8769265581
 H   -4.4430535387    0.7108694711   -1.5444207366
 H   -3.9091453988    0.7286542558    0.1734992791
 H   -2.0626054609    0.1545499725   -2.1972676508