18

 C   -0.0845207585    1.5734470817   -0.0881582819
 C    1.4732703222    1.5501506019    0.0322085559
 C    2.1117744193    1.9734843852    1.3247099422
 C    2.3851039025    0.9158741299    2.0843777817
 C    1.8958355366   -0.3701496555    1.4367447684
 C    0.6169045619   -0.8999431277    2.0662901850
 C   -0.4399856370   -0.6470275591    1.2985923239
 C   -0.0209477502    0.0156726281    0.0169153827
 N    1.4757798115    0.0524909514    0.0717039665
 H   -0.6039290309    2.0710448870    0.7327304659
 H   -0.4646319236    1.9530622019   -1.0388644750
 H    1.9893595935    1.9631019105   -0.8433603567
 H    2.3268330755    3.0071500135    1.5700188391
 H    2.8594693586    0.9332113704    3.0587857604
 H    2.6838315690   -1.1372370324    1.4126990514
 H    0.6024980061   -1.3845400056    3.0356983418
 H   -1.4699508788   -0.8919306038    1.5311562665
 H   -0.4112637276   -0.5022104075   -0.8679280880