22

 C   -0.0949650066    1.5691451107   -0.0017813520
 C   -0.0329603253    0.0396929292    0.0019345013
 C    0.6930774388   -0.5328984076   -1.2122084781
 C    0.7707408385   -2.0643854735   -1.2633895621
 C    0.7823967012   -2.3559437164   -2.7720200541
 C    0.3721767342   -3.7707558395   -3.1713833727
 C   -0.1592291396   -1.2542169290   -3.2794909012
 O    0.0124968709   -0.1373583828   -2.4155223837
 H    0.9101707122    2.0053337515    0.0213182583
 H   -0.5944971110    1.9277205411   -0.9054746287
 H   -0.6420561018    1.9460795142    0.8677490902
 H    0.4766076378   -0.3156604506    0.9073798926
 H   -1.0480077185   -0.3767969110    0.0245034227
 H    1.7112235804   -0.1096167988   -1.2474434813
 H    1.6445650805   -2.4580895503   -0.7373566589
 H   -0.1243289561   -2.5041311349   -0.8038336718
 H    1.7900416602   -2.1511355591   -3.1570916972
 H   -0.6277010949   -4.0105300342   -2.7916694552
 H    0.3531019198   -3.8886590737   -4.2602417357
 H    1.0689010285   -4.5142862757   -2.7712803013
 H    0.0586192620   -0.9432135003   -4.3078880586
 H   -1.2057211813   -1.6006519694   -3.2487361326