18

 C   -0.1716589867    1.4615790509    0.0284911620
 C    1.3277293038    1.4865273405   -0.3722862831
 C    1.5463243771    0.2309360859    0.5186242726
 C    0.0047116863   -0.0234050131    0.4404824337
 C    2.4923864964   -0.8368681427    0.0883083006
 C    3.2394883530   -0.9369999768   -1.0446040942
 O    3.9570555694   -2.0723010036   -1.0537730664
 N    3.6936170366   -2.7782038669    0.1139417128
 C    2.8360495685   -2.0423977184    0.7740948161
 H   -0.3685261339    2.1012961075    0.8934868929
 H   -0.9068695718    1.6888616525   -0.7459028226
 H    1.4537236996    1.2484386492   -1.4330636914
 H    1.9138299487    2.3790322030   -0.1421563014
 H    1.7953520743    0.5509429760    1.5371625376
 H   -0.4977942547   -0.3744144142    1.3448096424
 H   -0.2341817258   -0.7025946145   -0.3828054835
 H    3.3692659583   -0.2972353773   -1.9032287742
 H    2.4777082310   -2.3914875979    1.7330907361