18

 C    0.2495636954    1.6141463056    0.1735929430
 C    0.0437123425    0.1084073642    0.1418163109
 O    0.5676950602   -0.3948325490   -1.0976928584
 C    1.1040733833   -1.6972766290   -0.9334115527
 C    2.3395283816   -1.8269935494   -1.8151454269
 O    2.7476146854   -2.8793443877   -2.2309995271
 C    1.4371894130   -1.8185256260    0.5482139390
 N    2.2342549239   -0.6686035576    1.0288247140
 C    0.7708189146   -0.6818898816    1.2162540043
 H    1.3180451224    1.8411817003    0.1851292564
 H   -0.2020466855    2.0761539155   -0.7081697719
 H   -0.2181034601    2.0453114550    1.0645625918
 H   -1.0304256031   -0.1298719499    0.2097127058
 H    0.3868866510   -2.4835730443   -1.2130192342
 H    2.8435293532   -0.8592180015   -2.0174706367
 H    1.5545780895   -2.7980841170    0.9962439423
 H    2.6905317706   -0.9224354633    1.9014696819
 H    0.3474460320   -0.7611372444    2.2118187685