23

 C    0.0307333260    1.5624662907    0.0653998480
 C   -0.1355751868    0.0764329293   -0.2500903773
 C   -1.5579753391   -0.4206745662   -0.0832423238
 O   -2.4961632958    0.3364073178    0.0674785599
 C   -1.8229301272   -1.9304628594   -0.0829499010
 O   -3.1863507956   -2.1645272666    0.1556665258
 C   -1.3645958389   -2.6261268237   -1.3908409785
 C   -1.5573389179   -4.1430206240   -1.2641799787
 C   -2.1135072608   -2.0706730769   -2.6095911907
 H    1.0638544683    1.8774944950   -0.1038304014
 H   -0.6262923462    2.1681128460   -0.5627011458
 H   -0.2274368393    1.7734587163    1.1066860520
 H    0.1632023266   -0.1334932553   -1.2864867600
 H    0.5252766289   -0.5445117196    0.3679632841
 H   -1.2239944766   -2.3504373013    0.7454504634
 H   -3.5833945084   -1.2806142267    0.2285311938
 H   -0.2907865968   -2.4271227213   -1.5064601021
 H   -2.6114442824   -4.3800389866   -1.0958728851
 H   -1.2306139672   -4.6532531794   -2.1758313162
 H   -0.9820829108   -4.5492536429   -0.4252786766
 H   -1.8102855387   -2.5924462335   -3.5221673125
 H   -3.1909417002   -2.2046072802   -2.4798421220
 H   -1.9255135211   -1.0017741517   -2.7598026353