21

 N    0.0081702755    1.4055000236   -0.1640554840
 C    0.0636057468    0.0162691453   -0.0118071237
 O    1.1346583032   -0.5654020737    0.0568209643
 N   -1.1488217796   -0.6252134010    0.1025632387
 C   -2.4468896817    0.0261527070    0.2138160886
 C   -3.2076626237   -0.4596879796    1.4583586618
 C   -3.2896355608   -1.9907692693    1.5040087112
 C   -1.8879375805   -2.6048158637    1.3876437162
 C   -1.1704003980   -2.0847897815    0.1382050962
 H    0.9263468865    1.7608676207   -0.3887771177
 H   -0.7108608021    1.7773611013   -0.7667241791
 H   -2.3106887094    1.1055376043    0.2781276772
 H   -3.0478858137   -0.1835861756   -0.6864089622
 H   -2.6853758831   -0.0928037048    2.3506341234
 H   -4.2088724137   -0.0142126050    1.4620484367
 H   -3.7825157831   -2.3185105776    2.4254555290
 H   -3.9126813248   -2.3468691751    0.6711439569
 H   -1.2943075551   -2.3461362897    2.2731761109
 H   -1.9453081692   -3.6980623939    1.3439336831
 H   -1.6901336797   -2.4566733216   -0.7597084454
 H   -0.1354395540   -2.4213110201    0.0974973377