19

 O   -0.0746860727    1.4143529058    0.0978888422
 C   -0.0638699258    0.0228789566    0.0438734609
 C   -0.4404935733   -0.7757610097    1.2643627640
 C   -1.1363963793   -0.0054898001    2.3925524029
 C   -2.6120230035    0.1416127864    1.9445333161
 C   -2.5821054279    0.0219673894    0.4253562598
 C   -3.7599445826    0.1368147718   -0.4380259346
 O   -2.8460242906    1.2320557497   -0.3358052647
 C   -1.3543495572   -0.7643274279    0.0426679937
 H   -0.8488594913    1.7202310872   -0.3915015824
 H    0.7388053115   -0.3837431804   -0.5703534303
 H    0.1497626983   -1.6517857178    1.5076271336
 H   -1.0544952155   -0.5381536728    3.3425366484
 H   -0.6704363188    0.9761257927    2.5153318240
 H   -3.2033867822   -0.6892067174    2.3477734332
 H   -3.0842105704    1.0751757185    2.2612915533
 H   -3.7777059414   -0.3729003473   -1.4010427261
 H   -4.7395367185    0.3140145874    0.0051383985
 H   -1.4580183386   -1.6112959222   -0.6260529622