14

 C   -0.0748590837    1.4823952317    0.0235669145
 N    0.0103534226    0.0391118156   -0.0268691283
 C    0.0228402108   -0.7639660444   -1.1815795648
 C    0.1149089285   -2.0402549217   -0.7092934128
 O    0.1612537855   -3.1816535339   -1.4314959361
 N    0.1601679351   -2.0746253207    0.6651672519
 C    0.0946877069   -0.8105295016    1.0165253155
 O    0.1057953221   -0.3388065411    2.2772156839
 H    0.7748258174    1.9401044770   -0.4936756642
 H   -1.0009825885    1.8331523763   -0.4435530367
 H   -0.0643793341    1.7974230841    1.0670494424
 H   -0.0334923209   -0.3470671072   -2.1705338246
 H    0.2249030484   -3.9011085173   -0.7925059439
 H    0.1702022998   -1.1106215269    2.8524922132