16

 C    0.2327779083    1.7219933517    0.0662621946
 C    0.0731507288    0.1900120474   -0.0141529940
 N    0.6770695696   -0.3649742380   -1.2244642759
 C   -0.0673747483   -0.6369008574   -2.3305118725
 O   -1.2557261380   -0.4168503730   -2.4312623551
 C    0.6177718462   -0.4661010423    1.1705771786
 C    1.1062931677   -0.9934903288    2.1414462504
 C    1.6579972971   -1.6161475797    3.3182852332
 O    2.6116957498   -2.3597652231    3.3117601243
 H    1.2892144584    2.0010228540    0.1050824686
 H   -0.2236382240    2.1727766567   -0.8178301268
 H   -0.2628150950    2.1105035755    0.9597280275
 H   -0.9961903183   -0.0384113420   -0.0950589341
 H    1.6560008437   -0.6043544596   -1.2110009850
 H    0.5406862767   -1.0839343759   -3.1399008248
 H    1.1304735475   -1.3562734255    4.2580731411