21

 C   -0.4222664994    1.4606390772   -0.0132613947
 C    0.0728690894    0.0189726110   -0.0016064752
 O   -1.0375090689   -0.8688698397   -0.2220327942
 C    1.1111953069   -0.2992705466   -1.1028002342
 O    2.2341366145   -0.9185928727   -0.4806151423
 C    1.7733771529   -1.4957667969    0.7272944741
 C    0.8058062026   -0.4491522979    1.3171160725
 C    1.5762476210    0.6533411233    2.0345268983
 O   -0.1053183299   -0.9939050777    2.2506418993
 H    0.4018212654    2.1740341291    0.0601091032
 H   -0.9665763008    1.6592002929   -0.9419165676
 H   -1.1002212014    1.6453045831    0.8290098690
 H   -1.7818552878   -0.5246405853    0.2843893039
 H    0.6461395934   -0.9706517197   -1.8369449976
 H    1.4691157553    0.5950018997   -1.6208686950
 H    1.2348328335   -2.4412888095    0.5462005129
 H    2.6390427700   -1.6994643667    1.3622000831
 H    2.3470445064    1.0714635099    1.3817872523
 H    0.9123331147    1.4556610695    2.3651263317
 H    2.0625022645    0.2337836091    2.9199392717
 H   -0.6250576422   -1.6422659623    1.7579830187