22

 C    0.0483954387    1.5469426049    0.0220619497
 C   -0.0226841952    0.0173485750   -0.0178349368
 O   -1.3954361118   -0.4003898605   -0.0099793221
 C    0.6855822363   -0.5531843427   -1.2582221061
 C    0.5436878058   -2.0785155215   -1.3061077081
 C    0.9445024498   -2.7407208167   -0.0008539850
 C    2.2159644667   -2.3871170564    0.6842190955
 N    0.9322098154   -1.9979745092    1.2647949125
 C    0.5847319483   -0.5697501315    1.2719778194
 H    1.0834704121    1.9027679607    0.0016136791
 H   -0.4690618678    1.9772461133   -0.8440330797
 H   -0.4338664269    1.9284058744    0.9271926778
 H   -1.8145257356   -0.0455498588   -0.8019092074
 H    0.2522558586   -0.1086330425   -2.1637924762
 H    1.7399764053   -0.2520185645   -1.2476163440
 H   -0.5047513002   -2.3213667451   -1.5049586733
 H    1.1316246678   -2.4977194218   -2.1312128547
 H    0.5832039820   -3.7629715970    0.1040482120
 H    2.7768129502   -3.1353716151    1.2398441484
 H    2.8347023862   -1.6110368885    0.2344760886
 H    1.4789246315    0.0056706435    1.5376595880
 H   -0.1522973973   -0.4093059298    2.0664388923