13

 N   -0.0001486030    1.3305757465    0.0794246427
 C   -0.0440335058   -0.0133870988    0.0282891646
 C   -1.2263002514   -0.7388826069   -0.0056627239
 O   -2.4291278469   -0.0539882627   -0.0738121256
 C   -1.0976553914   -2.1234860481   -0.0812557166
 N    0.0387872187   -2.7961997564   -0.0691246688
 C    1.2086042689   -2.1267454263    0.0007860461
 O    2.3285960122   -2.5285819615    0.0439483596
 O    1.1172176329   -0.6290923181    0.0177482250
 H    0.8809575202    1.7930200482   -0.0703791504
 H   -0.8577567170    1.8296946058   -0.0895669671
 H   -2.9105487763   -0.1729610315    0.7523274449
 H   -2.0090560812   -2.7186080102   -0.1542144406