17

 C    0.0921720181   -1.1215120443   -0.0191347483
 C    0.0335628710    0.0806765952   -0.0207042763
 C   -0.0468752458    1.5066192321   -0.0311335834
 C   -1.1139684670    2.2436990293   -0.8312171498
 C   -0.7320783577    3.6660928557   -0.4835001744
 C   -0.1629442569    3.7456346682    0.9207716220
 C    0.7661953392    3.7894412021   -0.2780916976
 C    1.2345988812    2.3495190558    0.0391282121
 C    0.3124564821    2.3061643280    1.2295156000
 H    0.1443609113   -2.1816748116   -0.0172179378
 H   -1.0340179159    2.0334319666   -1.9028463980
 H   -2.1233935730    1.9822230828   -0.4970265238
 H   -1.2796179786    4.5143146510   -0.8769205845
 H   -0.4054273783    4.5137826170    1.6416405594
 H    1.3758928806    4.5977673392   -0.6567444288
 H    2.2210785308    1.9286025279   -0.0929958660
 H    0.4466447888    1.8451791951    2.1976349953