15

 O   -0.0764430034    0.1226941582    0.7433087951
 C   -0.0662658784    1.1615773986    0.1462150985
 C   -1.3524119741    1.9406351539   -0.1190024609
 O   -1.2529849229    3.0386732508   -1.0016178882
 C   -0.0781379731    3.7765181104   -0.7660871265
 C    1.1400371681    2.9010302012   -1.0616603770
 O    1.1138336544    1.7065628278   -0.2390876777
 C    1.2375269048    2.5367705705   -2.4721264569
 C    1.3265010665    2.2532328911   -3.6353356891
 H   -2.0828192708    1.2443751969   -0.5356564711
 H   -1.7222302000    2.2600396724    0.8694529684
 H   -0.0921941886    4.6398251882   -1.4346320451
 H   -0.0256952408    4.1307903010    0.2762828119
 H    2.0519618826    3.4238205195   -0.7524697611
 H    1.4034107257    1.9967334394   -4.6635102304