19

 C    0.9473959324    0.4520118219   -1.3287561565
 N    0.1891822125   -0.2856335267   -0.3203907382
 C    0.2455791944    0.3102730171    1.0030830810
 C    1.6170285852    0.2945011633    1.5342672949
 N    2.6894840561    0.3019984812    1.9634749089
 C   -1.0965867411   -0.7039979044   -0.8144764976
 C   -2.3523484458   -0.8115182058    0.0161038659
 C   -2.2515624626    0.2415016512   -1.0672038452
 O   -2.0342588912    1.5680235159   -0.6750673897
 H    1.9789314261    0.5829648379   -0.9904616356
 H    0.9692759001   -0.1318478298   -2.2537742546
 H    0.5142232079    1.4393506890   -1.5511287774
 H   -0.1263527760    1.3478732369    1.0423636848
 H   -0.3689596037   -0.2792940774    1.6885264020
 H   -0.9850309416   -1.4823024815   -1.5669832656
 H   -2.9858380336   -1.6787841685   -0.1346669473
 H   -2.3497071923   -0.4378981871    1.0335997683
 H   -2.8383059369    0.1181076426   -1.9768922556
 H   -2.8624346099    1.9245717641   -0.3359919126