19

 C   -0.0713288197    1.5437780123   -0.0687279071
 C   -0.0158804513    0.0097559102    0.0003480151
 O    0.7265192090   -0.4421199334    1.1329900275
 C    2.1252268207   -0.4640777001    0.9424705301
 C    2.7576685539   -0.9966205428    2.2285749269
 C    4.2279692613   -1.3008657435    2.0526694060
 O    5.1126207021   -0.8450343460    2.7290602951
 C   -1.3580111933   -0.5658048118    0.0861200759
 C   -2.4719541687   -1.0118647985    0.1355097955
 H    0.9338912617    1.9637827538   -0.1629888727
 H   -0.6588684847    1.8626840030   -0.9338357742
 H   -0.5371208729    1.9381102042    0.8374136195
 H    0.4639520795   -0.3719747851   -0.9163940999
 H    2.3851753494   -1.1155523779    0.0900907039
 H    2.5199156093    0.5385617111    0.7182871436
 H    2.6275431863   -0.2940600922    3.0545440519
 H    2.2463299012   -1.9349731487    2.4841278991
 H    4.4528814187   -2.0112565009    1.2218702441
 H   -3.4526596326   -1.4168322737    0.1831106999