17

 O    0.0530572558    1.2508693769   -0.1841766369
 C   -0.0468457022   -0.1348884262   -0.0621345315
 C   -0.4949557377   -0.6923863103    1.2828226050
 O   -0.8209078019    0.2522796009    2.2713699547
 C   -1.4208392962   -0.7526633818    0.1127601332
 C   -2.6951389323    0.0810756712   -0.0361478974
 O   -3.5903615623   -0.8077210719   -0.7036738540
 C   -2.7834433816   -1.7844492006   -1.3092396543
 O   -1.7105443039   -2.0221640644   -0.4187216401
 H   -0.1834724985    1.6164957424    0.6800410692
 H    0.7019838843   -0.6769443653   -0.6321933888
 H   -0.0747647442   -1.6324880225    1.6341777705
 H   -0.0452735139    0.3775819081    2.8295574539
 H   -3.1407224940    0.3666710875    0.9195871183
 H   -2.5010411420    0.9828761283   -0.6310047480
 H   -3.3568105893   -2.7065418805   -1.4321674499
 H   -2.3997825806   -1.4323340716   -2.2840987638