14

 O    0.0554311129    1.3002514259    0.0613987245
 C    0.1088401503   -0.0649259152    0.0604672212
 C   -1.0512463018   -1.0234274624    0.1381091727
 C   -0.2537861035   -0.9785046172   -1.1402343280
 N    0.5340869103   -2.2266484974   -0.8836195433
 C   -0.0063727580   -2.0848061308    0.5592790480
 C    1.1205094572   -1.0127435508    0.7828883992
 C    1.8335561497   -1.6850303378   -0.3897111136
 O    2.9385661634   -1.8412026982   -0.7937723236
 H    0.7000641951    1.6443630136   -0.5687044618
 H   -2.1041666207   -0.8881353195    0.3362824951
 H   -0.5074063180   -0.6195110458   -2.1287635336
 H   -0.1411188192   -2.9848636107    1.1518498649
 H    1.5720930124   -0.7177442237    1.7263211084