18

 O    0.0540286059   -0.0046947198    0.1391051174
 C    0.0397658696    1.2041069475    0.0386544496
 N   -1.0803542337    1.9998466107   -0.0488348502
 C   -0.8043653940    3.4073170619   -0.0150296514
 C   -0.1418787903    3.9604278163    1.2246310214
 C    0.7012660094    3.5344228971    0.0363120737
 C    1.2341575358    2.1306450447    0.0130433633
 C    2.4906580434    1.6622530018    0.7118809254
 C    2.4446220315    1.6981484875   -0.7854877025
 H   -1.9882270322    1.6099586838    0.1501929000
 H   -1.4198854480    4.0364092549   -0.6478748391
 H   -0.2287467854    5.0264635304    1.4064952742
 H   -0.1347713466    3.3408256818    2.1155312157
 H    1.2051197580    4.3006490869   -0.5406273739
 H    3.0774924304    2.4115617443    1.2315082831
 H    2.4320987106    0.6917831719    1.1924601394
 H    2.3658062905    0.7538129866   -1.3124308772
 H    2.9988007051    2.4743207214   -1.3028439988