22

 C   -0.4723698052    1.3196415251   -0.0152226342
 N    0.0244874660   -0.0467755089    0.0361428573
 C    1.4086420196   -0.2808808303   -0.3544943080
 C    0.9836098564   -0.4461830516    1.0677565991
 C    1.4947405726    0.4708757551    2.1560222995
 C    0.5761403220    0.5707647243    3.3997016650
 C    1.5665220237    0.6868777220    4.5868740365
 O    2.8821325305    0.6515597200    4.0381548767
 C    2.8084269822   -0.0143484110    2.7920855304
 H    0.2825886626    2.0950174262    0.1897578030
 H   -0.8742532915    1.5048358866   -1.0165970165
 H   -1.2904112387    1.4371683842    0.7030016262
 H    1.5922969035   -1.1422038657   -0.9919851302
 H    2.0253389956    0.5894258902   -0.5821673953
 H    0.8052789804   -1.4630639628    1.4219076196
 H    1.6731815183    1.4732884900    1.7563649899
 H   -0.1045289131    1.4228307278    3.3392203216
 H   -0.0381201436   -0.3305272535    3.4915887178
 H    1.4670568963    1.6240574169    5.1427962926
 H    1.4269661773   -0.1425117682    5.2958665603
 H    2.7897786430   -1.1111133861    2.9239672086
 H    3.6997670722    0.2460841295    2.2153630700