19

 C   -0.1134042078    1.5134806986    0.2155945415
 C    0.1102060405    0.0020830312    0.1140075198
 C    0.6671321276   -0.4707141709   -1.2298596441
 C    0.8973124243   -1.9920745778   -1.4018567325
 N   -0.4237263223   -2.6348085948   -1.2801743168
 C   -0.0045551544   -2.0503065181   -2.5966757866
 C   -0.2241194962   -0.5811317971   -2.4911195783
 N   -0.7610002619    0.1914013188   -3.3382999446
 O   -0.6503988198    1.5442365498   -2.9616289142
 H    0.8207645074    2.0642720200    0.0568972060
 H   -0.8272474315    1.8599380586   -0.5344518648
 H   -0.4917200187    1.7795201323    1.2077600292
 H    0.8210432592   -0.3132137840    0.8902414358
 H   -0.8201310518   -0.5376904453    0.3128149050
 H    1.5694770434    0.0934575649   -1.4972430438
 H    1.8140623369   -2.5372095477   -1.2163723793
 H   -0.2785833678   -3.6417652931   -1.3624034722
 H    0.0362949224   -2.6581947442   -3.4903272771
 H   -1.0966197096    1.9919434988   -3.6882881932