19

 C   -0.2915273090    1.6936835357   -0.1507282361
 C   -0.0073193009    0.3328660923    0.4559710744
 O    0.4858661784    0.1704607628    1.5505420677
 N   -0.3655069440   -0.7332006713   -0.3578435738
 C   -0.2090978314   -2.0619294532    0.0013239809
 N   -0.5626753064   -2.9917191235   -0.7846565118
 C   -0.3604865099   -4.3604105941   -0.3407239657
 C    0.5059967823   -5.1072462987   -1.3586359080
 O    1.7937756998   -4.5350753496   -1.4841079666
 H    0.2299421431    1.8114115322   -1.1064154487
 H   -1.3633230808    1.8171334405   -0.3392294121
 H    0.0438484937    2.4634854281    0.5428639063
 H   -0.7822517911   -0.5634761763   -1.2619562524
 H    0.2261363908   -2.1863489816    0.9964945517
 H    0.1129106983   -4.4149256440    0.6527393360
 H   -1.3367389800   -4.8600896267   -0.2807562810
 H    0.6543399826   -6.1399153334   -1.0270811272
 H   -0.0191521104   -5.1327250903   -2.3258553492
 H    1.6601701747   -3.6182939391   -1.7492753245