15

 C   -0.1144836445    1.6085334875   -0.0382656790
 C   -0.0121009660    0.0752862227   -0.0238696435
 C    0.7419814907   -0.4425127606    1.2286976851
 C    2.1998571297   -0.0344668958    1.1944033562
 O    2.7390255863    0.6638667323    2.0120752985
 C   -1.3996024620   -0.5424835255   -0.0344695361
 O   -1.7777266274   -1.3768731234   -0.8134879985
 H    0.8744370781    2.0704749410    0.0279403843
 H   -0.5940517108    1.9613384190   -0.9557682789
 H   -0.7023950159    1.9689090153    0.8133837033
 H    0.4991400423   -0.2848113875   -0.9236883455
 H    0.2912261729   -0.0631954742    2.1508535299
 H    0.7036714632   -1.5402951175    1.2424304706
 H    2.7617238686   -0.4335682590    0.3178254196
 H   -2.0701297951   -0.1593352643    0.7717396541