19

 C    0.1629193907    1.1363703929   -0.0581322922
 C    0.4674744647   -0.3206480584   -0.3707743926
 O    1.1498895292   -0.9650650621    0.7285491192
 C    0.3759603113   -1.4777765959    1.6982528308
 O   -0.8252708613   -1.4064046131    1.7317530057
 C    1.2414189425   -2.1716578881    2.7629390456
 C    0.4504815962   -2.3709719108    4.0660897045
 C    1.7452118524   -3.4349524316    2.2260920396
 C    2.1365819673   -4.4879135888    1.7997462529
 H    1.0760371082    1.6761100366    0.2089765848
 H   -0.2766425847    1.6186417595   -0.9370334803
 H   -0.5491364265    1.2116319442    0.7668712770
 H   -0.4472896271   -0.8760852382   -0.5895390861
 H    1.1588476261   -0.4136700801   -1.2113180199
 H    2.0995097419   -1.5122440226    2.9438951505
 H    1.0739405955   -2.8740219759    4.8084167496
 H    0.1297007530   -1.4056236006    4.4658209297
 H   -0.4387544752   -2.9750418521    3.8793652478
 H    2.4914852759   -5.4135638850    1.4193134133