19

 C   -0.3770002650    1.5027487697   -0.2008882078
 C   -0.1539586177   -0.0058220546   -0.0777133047
 C    0.7139185570   -0.3859231592    1.1222299473
 C    0.8772760810   -1.9190877421    1.2334083418
 C    1.5530300985   -2.3251488646    2.4625699568
 N    2.0756734720   -2.6173873769    3.4509190343
 O    1.9935606228    0.2151902914    0.9440741059
 C    2.6421126666    0.6930910643    2.0337166911
 N    3.7895971072    1.1946853438    1.9003435290
 H    0.5747548467    2.0277353954   -0.3114526251
 H   -0.9963787241    1.7309755264   -1.0725756084
 H   -0.8858873613    1.9025082619    0.6832982086
 H   -1.1153512637   -0.5243639300    0.0177447746
 H    0.3263350748   -0.3901994859   -0.9856544563
 H    0.2547104489   -0.0071398700    2.0459581376
 H   -0.1074014475   -2.3976695850    1.2009285495
 H    1.4490844314   -2.2774359180    0.3709983775
 H    2.0678614284    0.5946882502    2.9633519294
 H    4.1365165638    1.5131722633    2.8025874789