20

 C   -0.0088843751    1.5438051029   -0.0614039070
 C    0.0241987253    0.0180986054   -0.0275949701
 O    0.6719619381   -0.5234951770   -1.1735894645
 C    0.6428797370   -0.5210969481    1.2812098632
 O   -0.0887785140   -0.0261130971    2.4049440560
 C    0.7490001739   -2.0294490267    1.2894652626
 C    2.0396730088   -2.7193592205    0.9351171053
 C    1.5606707603   -2.7116359154    2.3632468172
 H    1.0117429138    1.9491487008   -0.0518878363
 H   -0.5058837179    1.8952081037   -0.9695544446
 H   -0.5305615474    1.9367440451    0.8139108137
 H   -1.0038791788   -0.3666251677   -0.0857618060
 H    1.5577962655   -0.1465644272   -1.2142267515
 H    1.6494979937   -0.0913283900    1.3944500348
 H   -0.8645676478   -0.5861677089    2.5147533916
 H   -0.1602745365   -2.5372287346    0.9717962756
 H    1.9859098523   -3.6431320143    0.3705092978
 H    2.8925271213   -2.0979662439    0.6827902866
 H    2.0782394698   -2.0770704634    3.0746186247
 H    1.1819508980   -3.6354314732    2.7862893409