15

 C   -0.3945750197    1.4445748092    0.1248174913
 C   -0.0164029365   -0.0000839206   -0.0808280756
 N   -0.3385639783   -0.5849409274   -1.1746493550
 C   -0.0141950073   -1.9096257405   -1.5007666307
 O    0.5003650114   -2.1931167244   -2.5575567989
 C   -0.4666290097   -2.9198899480   -0.5188409819
 C   -0.1685859396   -2.8333239595    0.7938484415
 N    0.5877086456   -1.8654238595    1.4275770605
 C    0.6996117749   -0.6471585190    1.0362734530
 H   -1.0204914886    1.5619075917    1.0166665134
 H    0.5034915927    2.0532841965    0.2843947894
 H   -0.9298008082    1.8168116268   -0.7485229393
 H   -0.9389281817   -3.8150837062   -0.9123759272
 H   -0.4404661435   -3.6536484008    1.4539071757
 H    1.3278515985    0.0032187118    1.6500005739