16

 N    0.0905904248   -1.0893558562   -0.0349974619
 C    0.0611111732    0.0676817502   -0.0008325191
 C   -0.0061042807    1.4947714459    0.0405330421
 N    0.3213717767    2.3021916985   -1.1690680622
 C    1.1886775926    2.3900201072    0.0177167310
 C    0.7450176265    3.4196885834    1.0923743196
 C   -0.7294127236    3.7180527833    0.7189515201
 C   -0.8547654490    2.2305348631    1.1282169832
 N    0.1700711033    2.5493112324    2.1826623612
 H    0.7572503500    1.6951898696   -1.8638094919
 H    2.2045040988    2.0135387837   -0.0211761925
 H    1.4614946296    4.1878317696    1.3806270546
 H   -1.1955774670    4.3598824916    1.4636017149
 H   -0.9688258334    4.0075854772   -0.2994309295
 H   -1.7844905914    1.7569833935    1.4390090901
 H    0.7651008397    1.7500914069    2.4128375203