18

 C   -0.1664996722    1.5719934637   -0.0391672983
 C   -0.0054623706    0.0599808601   -0.0149299086
 C    0.7294732793   -0.6222553551   -1.1723025375
 N    2.1306366224   -0.1586649816   -1.1222064223
 C    1.6999867232   -1.2931229011   -0.2442760436
 C    2.3148053699   -2.5704605805   -0.3039285804
 C    2.8325090775   -3.6572360199   -0.3254820555
 C    1.0716939739   -0.5696462435    0.9705073654
 O    1.9147045965    0.2925305565    1.6713117683
 H    0.7745159323    2.0638969856   -0.2975962915
 H   -0.9183294205    1.8731814931   -0.7764000143
 H   -0.4846177819    1.9424070327    0.9399776527
 H   -0.9686046618   -0.4311546618    0.1559768046
 H    0.3133466386   -1.0164000140   -2.0917111300
 H    2.6315949045   -0.5636248744   -1.9114304449
 H    3.2874104036   -4.6164702695   -0.3447971030
 H    0.6257720410   -1.2551107444    1.6930052765
 H    2.4408394943    0.7479617841    0.9996688424