17

 C   -0.0611223637    1.4571626015    0.0387491592
 N    0.0151582796    0.0093960698   -0.0518692164
 C   -1.2388800360   -0.7287027496    0.0266394942
 C   -1.0481049653   -2.1706933077   -0.4210662398
 O    0.0223252169   -2.7577094077    0.2871447705
 C    1.2441971659   -2.1316412093   -0.0481098071
 C    1.2386492394   -0.6015430296   -0.0445141968
 O    2.2980473701    0.0016182191   -0.0691756058
 H    0.9522130406    1.8533719255   -0.0081126859
 H   -0.6541832135    1.8629196122   -0.7893743927
 H   -0.5305318904    1.7656799645    0.9818939234
 H   -1.6303654484   -0.7061952683    1.0546957280
 H   -1.9803984507   -0.2359647721   -0.6159723406
 H   -1.9442329633   -2.7572172788   -0.2021508084
 H   -0.8640820827   -2.2100786698   -1.5076620686
 H    1.9906631594   -2.4554017483    0.6798987205
 H    1.5911483020   -2.4490776014   -1.0457368134