23

 C   -0.0587064813    1.5047401406   -0.2001813563
 C   -0.0030859664   -0.0052906554   -0.0387800557
 O   -1.3315131708   -0.5026912253   -0.0382891282
 C   -1.4240600692   -1.8880415809    0.1041002350
 C   -1.0046650050   -2.7673508269   -1.1112098911
 C   -2.4057527379   -3.4550529241   -1.0825012421
 C   -2.8314707881   -2.5730693518    0.1212761118
 C   -2.5070827236   -3.1817889408    1.5114057376
 C   -1.1068995338   -2.4916858625    1.5044783353
 H    0.9508794271    1.9267168368   -0.2051646547
 H   -0.5522240141    1.7718477463   -1.1390298931
 H   -0.6211193623    1.9574754416    0.6214423804
 H    0.5745813022   -0.4589913287   -0.8598014125
 H    0.5057166085   -0.2733379226    0.9008430451
 H   -0.8479717732   -2.1658042086   -2.0100072314
 H   -0.1366687503   -3.4168788197   -0.9670742616
 H   -2.9906986938   -3.2792429853   -1.9880796926
 H   -2.4011318698   -4.5305981843   -0.8847400599
 H   -3.7558388211   -2.0035705114    0.0251767749
 H   -3.1587717943   -2.8262569217    2.3126800702
 H   -2.4958578055   -4.2748693020    1.5426812890
 H   -0.2356214958   -3.1498245132    1.5661801210
 H   -1.0152802415   -1.7149738502    2.2677432788