22

 C    0.1957510522    1.5973587776    0.0369709016
 C    0.0181230385    0.0745513826    0.0088627586
 C    0.5545709009   -0.5282355510   -1.3086220739
 C    0.6797368776   -2.0291753235   -1.2806427323
 C    0.9531410622   -2.7185107114   -0.1693132246
 C    1.1128431123   -4.2133337967   -0.1363270309
 C    1.1155737205   -1.9894915631    1.1212033986
 N    2.0958054909   -0.8636056800    1.1458142743
 C    0.6554440547   -0.5797395013    1.2197940000
 H    1.2599602909    1.8560016126    0.0291579835
 H   -0.2741064429    2.0676963959   -0.8332445017
 H   -0.2514000148    2.0361759535    0.9357100472
 H   -1.0557486323   -0.1548129813    0.0685912947
 H   -0.0978644373   -0.2185935909   -2.1333787635
 H    1.5385688449   -0.0878784592   -1.5186945887
 H    0.5782522782   -2.5573560118   -2.2260500519
 H    0.9520728261   -4.6557945533   -1.1229833398
 H    2.1171688621   -4.4972330854    0.2042669333
 H    0.4044369417   -4.6771877558    0.5627599890
 H    1.0583071101   -2.5996860361    2.0199399717
 H    2.5107853163   -0.7973671307    2.0721022385
 H    0.2553035371   -0.2559363807    2.1800146264