15

 O    0.0750652389    1.3396419139   -0.1411624413
 C   -0.0241661680   -0.0318861975   -0.0326940709
 C   -0.4466927537   -0.6394458190    1.2654319409
 O   -0.8074502081    0.3244738816    2.2258335431
 C   -2.1974775974    0.3935597053    2.3933172213
 O   -2.8575687990    0.8246735527    1.2100431878
 C   -2.6370518320    0.0815443193    0.0773646366
 O   -3.4034646257    0.1502752063   -0.8388622805
 C   -1.3927275569   -0.7403496696    0.0793603415
 H   -0.1523919737    1.7080188373    0.7243554247
 H    0.7117525445   -0.5525978195   -0.6363991637
 H    0.0299015085   -1.5239985799    1.6784953778
 H   -2.5980729490   -0.5818423000    2.7010777734
 H   -2.3996883252    1.1503932031    3.1514439642
 H   -1.4854482233   -1.6812575738   -0.4483007648