15

 C   -0.0635701344    1.5180708174   -0.0343198135
 N    1.1926572771    0.7389366606    0.0569581762
 C   -0.0825776189    0.0399311356   -0.0045596825
 C   -0.5034280636   -0.9934819543    1.0448334233
 N   -0.8555459094   -1.9948398231   -0.0330003118
 C   -1.9150026336   -1.3600829546   -0.8356903279
 C   -0.5178610958   -0.9364334121   -1.0714808296
 H   -0.3076673245    2.0884244444    0.8580139598
 H   -0.3093047764    2.0131410459   -0.9709651726
 H    1.6574752834    0.7135866447   -0.8482132354
 H    0.3404483477   -1.3533845186    1.6365828623
 H   -1.3424020676   -0.7461491046    1.7039018495
 H   -2.3669477483   -2.0383497497   -1.5534816994
 H   -2.6104463683   -0.6759967010   -0.3528949290
 H    0.0323424927   -1.1743088305   -1.9778750095