18

 C    0.0501479052    1.5046589060   -0.1502580052
 C    1.2869689577    0.6953747098   -0.0051939051
 C    1.8162134569    0.4703024084    1.4165500273
 O    1.0140960166    1.2605109259    2.3229620100
 C   -0.0215113324    0.3122677808    2.6471807423
 C    0.8025048044   -0.8524008863    3.2404625548
 C    1.2836168192   -0.9561430278    1.7731788834
 C   -0.1512690810   -0.5432150441    1.3273385492
 N   -0.0485356947    0.0397322611   -0.0174300671
 H   -0.2384498709    2.1369449446    0.6796354038
 H   -0.2314530607    1.8667916960   -1.1358055060
 H    1.9444152335    0.5067140444   -0.8515209908
 H    2.8752387494    0.6806440458    1.5700350815
 H   -0.8454007265    0.8121022123    3.1541519593
 H    1.5196450836   -0.5827669529    4.0174713019
 H    0.2039133639   -1.7156011722    3.5383719702
 H    1.8057579106   -1.8137908768    1.3519404437
 H   -0.9183370648   -1.3156237851    1.3767080367