19

 O   -0.0832747396    1.4471745641    0.0358514315
 C    0.0013452239    0.0232421584    0.0419448810
 C    0.8174865386   -0.5384182031    1.2115123642
 C    0.5718229120   -2.0443119295    1.3236748905
 O   -0.7773924744   -2.3233429983    1.6651944548
 C   -1.7359383603   -1.7331507297    0.8347075017
 C   -2.3073032024   -0.3923774628    1.2457764369
 C   -1.4125061020   -0.5087784471    0.0295408350
 O   -2.0348325864   -0.4402712462   -1.2244949897
 H    0.7978479200    1.7987281393   -0.1283114559
 H    0.4572800483   -0.3276007981   -0.8977416827
 H    1.8846041736   -0.3401130451    1.0536987632
 H    0.5247363563   -0.0451829179    2.1448153031
 H    0.8434341248   -2.5409342051    0.3774975562
 H    1.1753221117   -2.4871270016    2.1205729964
 H   -2.4073386595   -2.4528434981    0.3736458047
 H   -3.3580561433   -0.2080746847    1.0536227781
 H   -1.9075382727    0.0564459844    2.1478986370
 H   -2.1445858386    0.4977354712   -1.4227061262