18

 C    0.1734532008    1.4933156978    0.1436571110
 C   -0.0668380216   -0.0146077197    0.0101351114
 O   -1.4581346527   -0.2811865058   -0.1311713146
 C    0.6339893055   -0.6040595327   -1.2372928331
 C    2.0778666021   -0.8914316293   -0.8040928892
 C    2.0046062016   -1.1174999466    0.7128855634
 O    2.9135676387   -1.4777329164    1.4139571349
 C    0.5814554201   -0.7969537649    1.1736216641
 H    1.2407564054    1.7319469603    0.1998756811
 H   -0.2549996512    2.0211927004   -0.7129900217
 H   -0.2926911469    1.8801738664    1.0579937272
 H   -1.9238325775    0.1635169958    0.5850558493
 H    0.1159047364   -1.5335983042   -1.4932875660
 H    0.5581334523    0.0622862061   -2.1000249460
 H    2.5385278373   -1.7506075182   -1.2982933365
 H    2.7441257378   -0.0378711489   -0.9801874732
 H    0.5791854402   -0.2886171260    2.1415586304
 H    0.0469231014   -1.7483007240    1.2929386874