16

 O   -0.0445998240    1.4755183390   -0.0448552176
 C   -0.0411929151    0.0717077692   -0.0047232955
 C   -1.4024559761   -0.5879156859   -0.0280059206
 C   -2.1557436502   -0.5598906453   -1.3321145893
 C   -1.3375641793   -1.7771336538   -0.9802470308
 C    0.0554478747   -1.8621129012   -1.5872856003
 C    0.6691877958   -0.5114956855   -1.2391802403
 O    1.5127431628    0.0999687436   -1.8462779472
 H    0.7051815674    1.7203615318   -0.6079421842
 H    0.5094467139   -0.2915059330    0.8843189445
 H   -1.9608931740   -0.6517165041    0.8977085726
 H   -3.2346333464   -0.6505865133   -1.2818396671
 H   -1.8062851681    0.1035420539   -2.1182831240
 H   -1.8535412568   -2.6984525068   -0.7385280669
 H    0.6483377613   -2.6559683528   -1.1133983038
 H    0.0842663642   -2.0314517458   -2.6673540294