20

 C   -0.0883604619    1.5157596541    0.0509334962
 C   -0.0563991080   -0.0098220328   -0.0660772065
 C    0.7996978874   -0.4820752272   -1.2397626993
 N    0.8028329639   -1.9346604844   -1.3231197279
 C    1.4047218601   -2.5788386567   -2.3735290805
 N    1.8558041961   -1.9599191018   -3.3921418311
 C    2.4055862019   -2.6798172644   -4.5190941058
 C    1.4370078634   -4.0310038160   -2.2093719592
 N    1.4836812754   -5.1799911395   -2.0877241579
 H    0.9177599933    1.9245930743    0.1924636252
 H   -0.5089490122    1.9729041362   -0.8509156426
 H   -0.6994471878    1.8314998619    0.9011024192
 H    0.3353819179   -0.4399053799    0.8662063198
 H   -1.0740014424   -0.4002568910   -0.1860704537
 H    0.4104831839   -0.0931024260   -2.1860184760
 H    1.8260518047   -0.0948122999   -1.1496638005
 H    0.7320720731   -2.4489023082   -0.4591472171
 H    2.4387002901   -3.7713447719   -4.3956024245
 H    1.8174074618   -2.4528119769   -5.4163921160
 H    3.4234490691   -2.3217343397   -4.7118655219