15

 N    0.0982303769   -1.0667279614    0.0232040178
 C    0.0339605951    0.0901103680   -0.0014625448
 C   -0.0599540407    1.5027757111   -0.0353011661
 C    0.1382212731    2.5236605046    1.0921426898
 C    1.1614990894    2.4687975777    0.0104581898
 N    0.6727800100    3.6624261092   -0.7258313265
 C   -0.1276124070    3.1084532200   -1.8834321322
 C   -1.0230850252    2.4140225407   -0.8425642800
 C   -0.5802971770    3.5281753387    0.1646830793
 H    0.1983061342    2.3819807777    2.1617882821
 H    2.1856166221    2.1210631673    0.0024430197
 H   -0.6283314359    3.9322200443   -2.3995382712
 H    0.4366899783    2.5002179743   -2.5950903199
 H   -2.0443455197    2.0769653184   -1.0090166404
 H   -1.1383590136    4.4220122793    0.4304909126