18

 C    0.0295331234   -1.2236213389   -0.4232088645
 C   -0.0321592374   -0.0760737097   -0.0720875067
 C   -0.0865296511    1.3220451471    0.3432511009
 C    1.2925327539    1.9980298367    0.2290030467
 C    1.6819274460    3.3814734330   -0.1337347705
 C    0.8959864629    4.5643527166    0.4581093906
 C   -0.2668189218    4.1613786962    1.3202925190
 C    1.1414835536    3.9428214176    1.8114990029
 N    1.9905976615    2.8201775278    1.2442939182
 H    0.0744599454   -2.2398652384   -0.7275350941
 H   -0.8286793762    1.8424726583   -0.2719756748
 H   -0.4399769909    1.3725573692    1.3786597169
 H    2.0261817532    1.2882723014   -0.1489718812
 H    2.4918779207    3.5621132066   -0.8355445032
 H    1.0642734622    5.5811269247    0.1301956541
 H   -0.7343470689    5.0091851863    1.8148530052
 H   -0.9702709463    3.3854607234    1.0627996923
 H    1.5047684199    4.3804966122    2.7320566184