14

 N    0.0064545641    1.2988854978   -0.0592560930
 C    0.0615947084   -0.0503247247   -0.0291998264
 N    1.1860871824   -0.6723854208    0.0126715095
 C    1.1994752144   -2.0348198841    0.0035282350
 N    2.2657605578   -2.7878086430    0.0706598855
 C    1.7819783344   -4.0749868471    0.0304838116
 O    2.6130664135   -5.1336495057    0.0800706765
 C    0.4298822498   -4.0731166977   -0.0608893812
 O    0.0415822985   -2.7444108838   -0.0798422034
 H    0.8619809297    1.8208805652    0.0445456805
 H   -0.8679194498    1.7807405664    0.0422258529
 H   -0.9120967255   -0.5460755523   -0.0623817228
 H    3.5054786459   -4.7716487614    0.1408640163
 H   -0.3413184937   -4.8177524287   -0.1202838411