16

 C    0.0330338864    1.5141321906   -0.0989049101
 C    1.2874365580    0.7257622733   -0.0041798451
 C    2.0344363581    0.6373327935    1.3170296668
 O    1.2562207459    1.1858877918    2.3694074303
 C    0.2940772041    0.1810159422    2.6315191531
 C    0.8992866861   -1.0990999805    2.1226496233
 O    2.1699432459   -0.7507538959    1.6201106466
 C   -0.2776785964   -0.4789900237    1.3820269425
 N   -0.0219639716    0.0499823514    0.0601554935
 H   -0.2350458238    2.1380158704    0.7467409666
 H   -0.2999111370    1.8652034591   -1.0707922373
 H    1.8832231845    0.5121883514   -0.8891084711
 H    3.0217511652    1.1014120899    1.3121892125
 H   -0.2432585460    0.3290504175    3.5588953994
 H    0.8760490204   -2.0698144078    2.5980604099
 H   -1.2366754697   -0.9783347933    1.4819139193