18

 C   -0.1481800406    1.5146426825    0.1305471617
 C    1.3773950509    1.2801851001    0.0587208750
 C    1.1899983579    0.0677795055    1.0391613387
 C    0.1003432711   -0.0208395574   -0.0625640375
 C   -0.8555834492   -0.9437057514   -0.7840262316
 O   -1.8003032776   -0.1934279836   -1.5602109905
 C   -0.6122838405   -0.6559507134   -2.2160070277
 C    0.5173802119    0.3899420630   -2.3507120882
 N    1.2103829227    0.2428377723   -1.0512690444
 H   -0.5624165677    1.8376432630    1.0894291812
 H   -0.6149756279    2.0455022920   -0.6961704495
 H    2.1875889192    2.0097970562    0.0608713756
 H    1.9669186378   -0.6951575720    0.9938263040
 H    0.8658761645    0.3068055336    2.0531059198
 H   -1.1934120498   -1.9016279189   -0.4009139538
 H   -0.7785699838   -1.3864466357   -3.0038791923
 H    1.2036870035    0.1327887015   -3.1628118073
 H    0.0840176678    1.3751966827   -2.5710118931