19

 O   -0.1975563851    1.4435345729    0.1698742571
 C   -0.0025301640    0.0436308679    0.0543900341
 C   -1.3821174867   -0.6056734368    0.0571884275
 C   -1.3426734110   -2.1410581638   -0.1148646285
 C   -0.6679947620   -2.7697557176    1.0935524944
 O    0.4231579526   -3.2811940009    1.0755770805
 C   -2.7513906083   -2.6753728195   -0.3202020249
 C   -3.1996354717   -3.9944891597    0.1408488749
 O   -3.5796173102   -2.8031316866    0.8377257375
 H    0.6654839223    1.8656076497    0.2098733754
 H    0.5248674461   -0.2137666803   -0.8788645941
 H    0.6056639811   -0.3465206047    0.8848348252
 H   -1.9007000474   -0.3499598665    0.9885023371
 H   -1.9721266526   -0.1699100182   -0.7573305729
 H   -0.7407218895   -2.3985970555   -0.9950095090
 H   -1.2590686708   -2.6972722628    2.0319859300
 H   -3.2637703054   -2.2403616760   -1.1807786836
 H   -4.0056898783   -4.5052566593   -0.3829091861
 H   -2.5081372191   -4.6471032224    0.6727394552