18

 C   -0.0462933749    1.5168410840    0.0024591286
 C    0.0016603220    0.0023600916    0.0036822816
 N   -0.7748872205   -0.7235319583    1.0423758700
 C    0.6917250029   -0.7217190919    1.1212040990
 C    1.4067097449   -2.0138491583    0.8375264316
 O    0.6263085403   -3.1530279297    0.5163656253
 C    1.3969427454   -2.5465433274   -0.5426014604
 C    0.6710183250   -1.7904044937   -1.5877811440
 C    0.0380214448   -0.6396673015   -1.3358343981
 H    0.7927015040    1.9421411186   -0.5582227431
 H   -0.9723926537    1.8753734316   -0.4621533597
 H   -0.0051638727    1.9127336380    1.0224732990
 H   -1.1437734427   -0.0469724653    1.7083950086
 H    1.1633386607   -0.1040160984    1.8823759304
 H    2.2743163220   -2.2147864038    1.4661571969
 H    2.2268887038   -3.1663691842   -0.8787813305
 H    0.6833997532   -2.1940311297   -2.5960552837
 H   -0.4597833845   -0.1102344818   -2.1449936814