21

 C    0.0417580168    1.6095698963    0.0923227043
 C   -0.0415162887    0.0840624739   -0.0067793808
 C    0.6952525752   -0.5033694162   -1.2351626702
 C    2.0995633172   -0.0731722109   -1.2162761225
 N    3.2059888065    0.2608295050   -1.1781557782
 C    0.6144569533   -2.0545678395   -1.3508178246
 C   -0.8396642049   -2.5444544626   -1.3986615734
 C    1.3854004114   -2.5600805925   -2.5786346579
 H    1.0772770801    1.9488519857    0.1856244955
 H   -0.3892575981    2.0879211178   -0.7941549032
 H   -0.5112403596    1.9679025270    0.9654060675
 H    0.3695894097   -0.3743264278    0.9006093366
 H   -1.0908602334   -0.2176659179   -0.0667539593
 H    0.2452688239   -0.0741446962   -2.1425866196
 H    1.0903311145   -2.4683688810   -0.4517817230
 H   -1.3831501805   -2.0839947832   -2.2326061937
 H   -0.8631804645   -3.6278451703   -1.5504540176
 H   -1.3880942061   -2.3319326615   -0.4779406688
 H    2.4322852303   -2.2465097086   -2.5591629179
 H    1.3603277427   -3.6530928455   -2.6218290323
 H    0.9360895643   -2.1816571820   -3.5047470408