16

 C    0.0174889557    1.4723227035   -0.0912315074
 C   -0.0301216819    0.0208177423   -0.0211101174
 C   -0.0755713558   -1.1830848516    0.0207471491
 C   -0.0875442167   -2.5969000283    0.1242077962
 O   -0.3397413016   -3.4226999414   -1.0263452273
 C   -1.1622872531   -3.6087605467    0.1156163399
 C   -0.3894202304   -4.4621238862    1.1830103352
 N    0.9361974468   -4.7992240379    0.6101835773
 C    0.6978471546   -3.4625030465    1.1919408064
 H    0.9200182387    1.8624993155    0.3917892556
 H    0.0245348721    1.8136046482   -1.1322240417
 H   -0.8489090738    1.9264129980    0.4024884960
 H   -2.2347946336   -3.5028743622    0.0048771778
 H   -0.8337720112   -5.0202866192    1.9954248487
 H    1.4309918982   -5.3398746452    1.3208963199
 H    1.2803585622   -3.0592955323    2.0089005419