16

 O    0.0528055546    0.0124023222   -0.0786372622
 C    0.0154084003    1.2093723963   -0.0465350869
 N   -1.1830413041    1.9887170596   -0.1062827763
 C   -1.4375970768    2.7106971864    1.1726690802
 C   -0.7940924024    3.4133876441    0.0428834512
 C    0.7243954690    3.5680612893    0.0212540376
 C    1.2235793560    2.1340884230    0.0700508247
 C    2.4318925331    1.6445513863    0.7570153461
 O    2.3882174031    1.7610722084   -0.6596975420
 H   -2.4891535739    2.8640465072    1.3919630016
 H   -0.8282639659    2.4403700897    2.0323181177
 H   -1.3859070699    4.1059440988   -0.5467266093
 H    1.0450290584    4.0307695806   -0.9167824842
 H    1.0972257159    4.1856641229    0.8430940465
 H    3.0684497554    2.3642214149    1.2707156498
 H    2.4418311372    0.6251729204    1.1378444554