19

 C   -0.0103413875    1.5272204587    0.0757091659
 C    0.0228275327    0.0102909008   -0.0049107935
 C    0.7075931013   -0.5149670558   -1.2732815644
 N    0.8854224620   -1.9716653154   -1.2813591313
 C    1.5042872063   -2.4275162677   -0.0304523569
 C    0.7874199061   -1.8656597082    1.2202046012
 O    0.7286604473   -0.4600275380    1.1461375174
 C    1.5495280190   -3.8909991690    0.0142048353
 N    1.5543139586   -5.0439290168    0.0874271090
 H    1.0052313681    1.9334626324    0.0425455663
 H   -0.5802479549    1.9448086762   -0.7597258520
 H   -0.4766341840    1.8482936932    1.0105080380
 H   -1.0068487186   -0.3902137863    0.0279975846
 H    0.1362507668   -0.2337538863   -2.1635078890
 H    1.6990944281   -0.0502325970   -1.3554354589
 H   -0.0165624606   -2.4287407634   -1.3892239061
 H    2.5362300467   -2.0514545337   -0.0179512062
 H   -0.2224516525   -2.3044203830    1.2828330814
 H    1.3338013052   -2.1173364908    2.1335448392