14

 O   -0.1947412710    1.3591026475    0.5587433027
 N    0.0172976343   -0.0272656065    0.4193599087
 C   -0.9801101197   -0.5825272935   -0.1272727643
 C   -2.3602305324   -0.1506386840   -0.5774272419
 C   -2.7569041135   -1.6511564771   -0.5663415350
 O   -3.4248911951   -2.0455204744   -1.7383559865
 C   -1.2444073982   -2.0439805331   -0.4144689832
 H    0.6151067609    1.6434448869    0.9955981372
 H   -2.9048213389    0.5356443736    0.0737192494
 H   -2.3649428586    0.2447912003   -1.5987853647
 H   -3.3283890455   -1.9119837400    0.3341515314
 H   -3.6300889394   -2.9836033772   -1.6717791976
 H   -0.8330432111   -2.3619930778   -1.3789528227
 H   -0.9693678520   -2.7685817647    0.3555918165