23

 C   -0.0684851950    1.5460164888    0.2471521581
 C    0.0145284267    0.0303811645    0.0441896838
 C    0.7232020684   -0.6284844450    1.2362647074
 O   -1.3487165643   -0.4127336559   -0.0076594685
 C    0.7423235062   -0.3436852735   -1.2673123648
 C    0.0883626833    0.1893263643   -2.5453165653
 C    0.7285608960   -0.4070832873   -3.8157852463
 C    0.1328973696    0.0985064441   -5.0467266529
 C   -0.3746929796    0.5311360051   -6.0468717453
 H    0.9298084005    1.9937940997    0.2474488660
 H   -0.6611466803    2.0137627959   -0.5423190809
 H   -0.5495421561    1.7696049562    1.2034180679
 H    0.1806081223   -0.4160608377    2.1617675798
 H    0.7700651395   -1.7168990511    1.1085622147
 H    1.7500542767   -0.2643055067    1.3439493802
 H   -1.3438535970   -1.3756085696   -0.0417805882
 H    1.7847035113   -0.0036264834   -1.2069214809
 H    0.7880240914   -1.4421644656   -1.3208917227
 H   -0.9798868331   -0.0458349211   -2.5302343245
 H    0.1690374025    1.2800013541   -2.5937181404
 H    1.8062510226   -0.1947106584   -3.8197363033
 H    0.6387274916   -1.5014637543   -3.7906884856
 H   -0.8167345132    0.9069033767   -6.9358840785