18

 C    0.0308838316    1.4139777097    0.0645330066
 C   -0.0002766067   -0.0683725278   -0.0613482223
 N    0.0498366574   -0.7485967588   -1.1440394525
 C    0.0577781812   -2.1344928529   -0.7475170414
 C    1.2438710935   -2.5503123751    0.1078449006
 O    2.3740737783   -1.7472480208    0.2060581042
 C   -0.0408824504   -2.1357060528    0.7839748797
 C   -0.8555879029   -3.0090301891    1.6881623401
 O   -0.1017621930   -0.7530998096    1.1103633123
 H    0.9428089169    1.7312556171    0.5803724977
 H   -0.0001267899    1.8655504229   -0.9266053262
 H   -0.8189758740    1.7626286041    0.6589835728
 H   -0.4180654937   -2.8446174574   -1.4145562008
 H    1.4440572568   -3.6209628569    0.1299449338
 H    2.5076540433   -1.3219691444   -0.6492208374
 H   -0.7738966679   -4.0531295090    1.3735156675
 H   -0.5013708499   -2.9390307735    2.7219443224
 H   -1.9123816905   -2.7247261659    1.6649495330