20

 C   -0.0703952294    1.5556588507    0.0287778404
 C    0.0282604964    0.0406621706    0.0139092921
 C    1.0868837052   -0.6490988332   -0.8988593663
 C    1.1409485063   -1.7730489299    0.1756851403
 C    0.7062340482   -0.6945695446    1.2094848762
 C   -0.0207715862   -2.7282040179   -0.0545535134
 O    0.0721124979   -3.9396923399   -0.0639621911
 N   -1.2046731163   -2.0659512803   -0.2542695097
 C   -1.3362431741   -0.6152274024   -0.2466240333
 H    0.9097052993    2.0053950171    0.2154316888
 H   -0.4387799414    1.9415163958   -0.9290118046
 H   -0.7532197111    1.9039456823    0.8126160275
 H    0.7955700746   -0.9221031704   -1.9170732899
 H    2.0190672906   -0.0781020829   -0.9256658105
 H    2.0580594752   -2.3386305076    0.3290653647
 H    1.5659221089   -0.1322458432    1.5842511518
 H    0.0794606604   -1.0076476627    2.0493027009
 H   -2.0157728021   -2.6441960295   -0.4130524468
 H   -2.0475664396   -0.3023639448    0.5314675839
 H   -1.7330784328   -0.2646769071   -1.2104317311