21

 O   -0.1980663408    1.4813112419    0.2677670389
 C    0.0143259944    0.0942373427    0.0184485216
 C    0.8822846976   -0.4975135815    1.1432216142
 O    1.3870108867   -1.7985232478    0.9050268951
 C    0.4620785481   -2.8397650298    0.6378923344
 C   -0.2226223449   -2.7552953211   -0.7584304156
 C   -1.4371753122   -2.0589666201   -0.0706803667
 C   -0.9489920850   -2.6882969855    1.2682027135
 C   -1.3843693376   -0.5264350351   -0.0945875541
 H    0.6492836338    1.9319906907    0.1933026933
 H    0.5549784582   -0.0444716736   -0.9303839920
 H    1.7752089281    0.1284099538    1.2581884928
 H    0.3270972063   -0.4390180835    2.0910391294
 H    1.0084003384   -3.7600639952    0.8579547378
 H    0.3172829998   -2.2208352439   -1.5433882692
 H   -0.4831875536   -3.7520907892   -1.1259571145
 H   -2.4257487760   -2.3849652548   -0.4046720148
 H   -1.3925299354   -3.6744065436    1.4303259352
 H   -1.0527492501   -2.1100193692    2.1892795467
 H   -1.9867022871   -0.1285938968    0.7323612458
 H   -1.8403800489   -0.1520137584   -1.0179696119