19

 O   -0.0169393564   -0.0378040717    0.2419996850
 C    0.0055376034    1.1415467048    0.0063205029
 C    1.2739006990    1.9628172785   -0.1252312331
 C    1.2218756645    2.8876378009   -1.3262393364
 O    2.1252508240    3.0372866629   -2.1062574091
 C    1.4251204429    2.8297410306    1.1490114237
 C    1.6942338437    2.1087671056    2.5009036576
 C    2.7023939784    3.2373701313    2.8498556273
 C    2.7491040342    3.6222846878    1.3460092950
 H   -0.9385870446    1.7264388470   -0.0945750983
 H    2.1309034281    1.2915372685   -0.2225029188
 H    0.2753457162    3.4693170386   -1.4232472042
 H    0.5623164150    3.5003397358    1.2397618079
 H    0.8433771289    1.9534827059    3.1676804512
 H    2.1915049170    1.1472692669    2.3451806300
 H    2.2421267504    4.0215002965    3.4570610607
 H    3.6419846428    2.9415926339    3.3204454712
 H    3.5807668071    3.1405416569    0.8242118278
 H    2.7455888156    4.6827483891    1.0851091395