20

 C   -0.2401761216    1.3519478608    0.0375784966
 O   -0.1438373866   -0.0505443887   -0.0537317465
 C    0.7399167847   -0.4803467294   -1.0678199422
 C    0.7207434389   -1.9976343624   -1.0617355854
 N   -0.5387158219   -2.5910494831   -1.5184806932
 C   -0.0080786113   -3.2733103173   -2.5846378540
 O   -0.4889180711   -3.9701164703   -3.4381668767
 C    1.4196533014   -2.7700873766   -2.2350630728
 C    2.1639292392   -2.0203186107   -3.3326101601
 H    0.7320901482    1.8126474542    0.2728782794
 H   -0.6134317333    1.7974367802   -0.8978087970
 H   -0.9427292588    1.5794063711    0.8427839399
 H    0.4194911441   -0.0906507112   -2.0469787166
 H    1.7631476708   -0.1130410015   -0.8773747961
 H    1.0179587001   -2.3459342933   -0.0658028705
 H   -1.4802096906   -2.5025372797   -1.1664207089
 H    2.0355994186   -3.5903717002   -1.8545095447
 H    1.5674541072   -1.2057444726   -3.7531346517
 H    3.1072644510   -1.6025117149   -2.9669725138
 H    2.3953551910   -2.7101422344   -4.1494199558