17

 C   -0.0195241513    1.5220326681   -0.0495828578
 C    1.4055911830    2.1032163989    0.0290155281
 C    2.1101474814    1.7640064705    1.3619615988
 C    1.8663615956    0.3241763132    1.6717067121
 C    0.9235862139   -0.4521363835    1.0714894924
 C   -0.0313013184   -0.0226230832    0.0139355062
 O    0.9816193720   -1.6782904218    1.5752878826
 N    2.0471861606   -1.6450143771    2.5655477683
 N    2.5154316200   -0.4802211672    2.5788041302
 H   -0.6161940611    1.9163377946    0.7822798821
 H   -0.5092231153    1.8504185541   -0.9712957982
 H    2.0014549222    1.7046469224   -0.8019606106
 H    1.3700249757    3.1889364682   -0.1024689744
 H    3.1829079470    1.9720774857    1.2945405326
 H    1.7221104617    2.3999688513    2.1686583877
 H   -1.0372643830   -0.4025454772    0.2209763018
 H    0.2701396559   -0.4528646571   -0.9503045217