22

 C    0.0920855881    1.5296823458   -0.5298503431
 C    0.2623819745    0.0230939648   -0.3210411182
 C    0.5023314881   -0.3440782758    1.1443925873
 N    0.6193266778   -1.7915845299    1.2906993810
 C    1.9527151813   -2.3836735050    1.2792015167
 C    1.1324931224   -2.3760985155    2.5237249895
 C    1.5652562482   -1.5462020548    3.7291737659
 C    0.4405648782   -1.1141740773    4.5542568103
 C   -0.4977363989   -0.7737333129    5.2238220411
 H    0.9817679851    2.0818046205   -0.2062998107
 H   -0.0793163170    1.7666568420   -1.5841446783
 H   -0.7602898390    1.9159575007    0.0401922847
 H   -0.6251232653   -0.5144203072   -0.6727811062
 H    1.1036048554   -0.3446232486   -0.9223668121
 H    1.3917066843    0.1996247370    1.5088729632
 H   -0.3452457807   -0.0135560761    1.7565600566
 H    2.0779104122   -3.2912060846    0.6941265096
 H    2.8081403924   -1.7068858596    1.2517940287
 H    0.6135243871   -3.2901407583    2.8083356827
 H    2.2473083354   -2.1560991341    4.3362337725
 H    2.1461846017   -0.6744494824    3.4098259734
 H   -1.3222577415   -0.4670875686    5.8183158652