16

 O    0.0496127985   -0.0324864848   -0.4272828997
 C   -0.0235233478    1.1167445969   -0.1260843827
 C   -1.1318249110    2.0804998535    0.3248363808
 N   -0.1341232686    3.1768205676    0.5067483568
 C    0.4903045493    3.1568134027    1.8731783869
 C    1.7182275187    2.3568635692    1.3736511083
 C    1.0078172263    2.2844989094   -0.0100315348
 C    1.7326625518    2.6365492422   -1.2002840653
 C    2.3397846167    2.9063439624   -2.2028624311
 H   -1.8427698154    2.3047645018   -0.4786842116
 H   -1.6951857307    1.7912855290    1.2186221179
 H    0.7104485677    4.1653029026    2.2308839001
 H   -0.1223565852    2.6494334965    2.6261831965
 H    2.6441870454    2.9309256866    1.3315993005
 H    1.9173370318    1.3935939795    1.8465571146
 H    2.8739142824    3.1488742449   -3.0883650972