17

 O   -0.1302864768    1.5245562610   -0.2607665824
 C    0.0059857828    0.1232166605   -0.2459024495
 C   -1.3224217853   -0.5813574489    0.0655847690
 C   -1.3054349546   -2.1276880929    0.0419735189
 C   -2.4885897276   -2.5705038321    0.9314224864
 C   -2.6006728593   -1.4920931892    1.9977535124
 O   -3.1435820896   -1.5425727744    3.0666579614
 C   -1.8417502099   -0.2432731873    1.4520041361
 O   -1.6803062817    0.7808387917    2.0692415950
 H   -0.4750107275    1.7751470534    0.6071374858
 H    0.3591993570   -0.1758882483   -1.2386847039
 H    0.7640145989   -0.2097903033    0.4833232191
 H   -2.0752198730   -0.2111369480   -0.6472103827
 H   -1.3693490218   -2.5264356442   -0.9721702184
 H   -0.3637218229   -2.4879736031    0.4730892234
 H   -3.4261199535   -2.5684113715    0.3585292404
 H   -2.3844394852   -3.5627357135    1.3750853191