16

 C   -0.0354917413    1.7076571010   -0.1222786589
 C   -0.0341441852    0.1855655547   -0.0334717018
 C    1.1924004975   -0.5515881023   -0.6507192354
 O    1.4642592637   -1.2256830883    0.5933296719
 C    0.4232590384   -0.5070952463    1.2839231948
 C    0.9445002647    0.3688199290    2.3346873990
 N    1.3459638149    1.0737825490    3.1577202863
 C   -1.3410708998   -0.3830241283   -0.5529840644
 O   -2.0376331666   -1.1680339508    0.0343099727
 H    0.9272470138    2.1173808297    0.1924040042
 H   -0.2233732474    2.0280597085   -1.1527512209
 H   -0.8116004149    2.1427259326    0.5149329007
 H    0.9866245329   -1.2582597508   -1.4626522941
 H    2.0095711638    0.1172793987   -0.9462000426
 H   -0.3321200668   -1.1806871492    1.7014680446
 H   -1.6150832676   -0.0132282173   -1.5671817560