21

 C    0.0857353665    1.5308263018    0.1736237851
 C   -0.1006053622    0.0394426729   -0.1378356605
 C    0.6625218157   -0.4649321869   -1.3746607357
 C    0.1751364773    0.2264244854   -2.6436823827
 C    2.2147697157   -0.6717641077   -1.1117850831
 O    1.8620048502   -1.8386303031   -0.3014487297
 C    0.8603420952   -2.0397389749   -1.3502397428
 C    1.7604515360   -2.2912909419   -2.5693984914
 C    2.6917598283   -1.3482885274   -2.4068661057
 H    1.1434262686    1.7829630011    0.3080900745
 H   -0.3124502010    2.1752865612   -0.6157547523
 H   -0.4323545116    1.7929007977    1.1012946451
 H    0.2122463144   -0.5495019004    0.7265104042
 H   -1.1698040990   -0.1611611687   -0.2914860271
 H    0.3783986345    1.3013117867   -2.6059660734
 H    0.6483406305   -0.1704898754   -3.5420747813
 H   -0.9097389326    0.1067928210   -2.7462519667
 H    2.8480303727    0.0579254683   -0.6071073493
 H    0.0661264471   -2.7411074615   -1.0926080523
 H    1.6264798750   -3.0318937429   -3.3438390526
 H    3.5500603788   -1.0858559755   -3.0074317822