21

 C   -0.1876194885    1.4729293694    0.0783694395
 C   -0.0782406117   -0.0492682080   -0.0195514646
 C   -1.4233907657   -0.6915932152   -0.3367561353
 C    1.1328492167   -0.4929904593   -0.9190160798
 C    1.9533900409   -0.6686171326    0.3536999589
 C    3.3131604644   -1.1039443290    0.6525578582
 O    2.9553007705    0.2918111684    0.7108664932
 C    0.6915839362   -0.6630999819    1.2188844119
 O    0.7725693443    0.0332854009    2.4274729108
 H    0.7875959614    1.9396162754    0.2478255660
 H   -0.5977547703    1.8874079527   -0.8490897403
 H   -0.8438859192    1.7617494704    0.9047802182
 H   -1.8120144805   -0.3452016453   -1.3014328330
 H   -1.3429787307   -1.7834688823   -0.3827437644
 H   -2.1663552055   -0.4422919414    0.4293539261
 H    0.9557415958   -1.4398182297   -1.4383697636
 H    1.5158102940    0.2426760065   -1.6301472895
 H    3.5332362816   -1.5647642622    1.6144892729
 H    3.9925142848   -1.3663058944   -0.1569664142
 H    0.3251583474   -1.6753763261    1.4291492531
 H    1.5350733542    0.6229321438    2.3420942958