18

 C    0.0415221680    1.2393945311   -0.2457212207
 O   -0.0403609439   -0.1539924397    0.0131589836
 C    0.6734995579   -0.5802961008    1.1523796126
 C    0.2486988241   -1.9735929612    1.5635483070
 C    0.4353809225   -3.0628878405    0.5201600210
 C    1.4943624829   -2.8073198009    1.5463913765
 O    2.5930822779   -2.0109326487    1.1335742149
 C    2.1838877447   -0.7292862719    0.8885142803
 N    2.9411890902    0.1964128281    0.4857601281
 H    1.0683743922    1.5532749103   -0.4560818854
 H   -0.5923753826    1.4293498385   -1.1150245156
 H   -0.3408163518    1.8209415993    0.6079106682
 H    0.5274620056    0.1328070848    1.9780379901
 H   -0.5100576776   -2.0892045011    2.3260703675
 H   -0.1680458136   -3.9567605845    0.6311919362
 H    0.6285934434   -2.7607548472   -0.5028051111
 H    1.7694566754   -3.5276259361    2.3059339646
 H    3.8914469849   -0.1495335595    0.3394243321