20

 C   -0.8392097773   -0.4066378928   -1.1216718928
 C   -1.0379997668    0.9484962903   -0.5380310330
 N   -0.0880466092    0.0067663341    0.0550014812
 C   -0.4105153327   -0.5591396778    1.3327585768
 C   -0.4226262739   -2.0393601650    1.5645746830
 C   -1.6968125602   -1.2444172791    1.7756125554
 C   -1.9477563034   -0.7583439746    3.1886023740
 O   -0.6969256137   -0.2468745262    3.6477584180
 C    0.0116621717    0.2775633131    2.5328133638
 H   -1.6506087765   -1.1213644734   -1.0002456855
 H   -0.2522633844   -0.5396410119   -2.0259198483
 H   -0.6026169976    1.8243626937   -1.0096624165
 H   -1.9740697529    1.1239410276   -0.0115285736
 H   -0.3868125244   -2.6685783198    0.6814143199
 H    0.0942574325   -2.4394023066    2.4319387432
 H   -2.5405961553   -1.3981804597    1.1131110992
 H   -2.7249097530    0.0240315398    3.1900847791
 H   -2.2490933291   -1.5422549870    3.8922633515
 H    1.0802814434    0.2148525955    2.7603842325
 H   -0.2440594973    1.3341151497    2.3472584020