19

 O    0.0243448491    1.4419468423    0.0126225038
 C    0.0423874266    0.0277476045    0.0004413625
 C    0.8449424798   -0.5446005070    1.1791336197
 C    0.8516815727   -2.0851759068    1.1765539877
 C   -0.5584089095   -2.6521721635    1.1010131472
 O   -0.9688543008   -3.5108836845    1.8440428157
 C   -1.4171884654   -2.0582558965   -0.0129274707
 C   -1.3916855279   -0.5231567730   -0.0029582336
 O   -1.9889385148    0.0027331961    1.1839186215
 H   -0.6064484873    1.6903757657    0.7004117100
 H    0.5217812569   -0.2620182836   -0.9433831395
 H    1.8663642406   -0.1563186543    1.1370444104
 H    0.3966708316   -0.1824925317    2.1104571882
 H    1.3970845724   -2.4441582110    0.2911216051
 H    1.3482250170   -2.4949077380    2.0587880524
 H   -1.0185589416   -2.4093253099   -0.9753020096
 H   -2.4371420977   -2.4435160981    0.0799019617
 H   -1.9120055654   -0.1334596586   -0.8892984871
 H   -2.9211984962   -0.2333357320    1.1972734845