22

 C   -0.0020829428    1.2873789314    0.2485447442
 O    0.4342742515   -0.0388665293    0.0805055507
 C    0.7300600166   -0.5063074695   -1.2191349692
 C    0.3213849471    0.2621081582   -2.4486260866
 C    1.7829246287    0.1951814440   -2.0345938991
 C    0.6100958408   -2.0299269243   -1.1707737399
 C   -0.8615721486   -2.4353802934   -0.9901004909
 C    1.2416541790   -2.7679293541   -2.3563112322
 H    0.7147752990    2.0283333009   -0.1358854772
 H   -0.9786020103    1.4701789439   -0.2215846463
 H   -0.1021535857    1.4418906053    1.3260134247
 H    0.0045249069   -0.3017957691   -3.3193589924
 H   -0.1857886919    1.2129462166   -2.3394431203
 H    2.2175829096    1.0975995101   -1.6176209868
 H    2.4704611870   -0.3870655650   -2.6355813383
 H    1.1528273389   -2.3287002637   -0.2640311555
 H   -0.9520431909   -3.5119592727   -0.8125590201
 H   -1.3044389279   -1.9088512143   -0.1416716076
 H   -1.4467270043   -2.1941646740   -1.8852060310
 H    2.3183251432   -2.5917054520   -2.4273076409
 H    1.0932112861   -3.8460305702   -2.2398950058
 H    0.7840918781   -2.4822329787   -3.3103674295