19

 O   -0.0336263140    1.3134585729   -0.0035439232
 C    0.0017807306   -0.0901997213    0.0242185676
 C    1.0948007674   -0.6575096428   -0.8690407589
 O    1.0860036771   -2.0686109528   -0.9822216775
 C   -0.2050961392   -2.6157603870   -1.2125675245
 C   -1.1644662753   -2.2270331672   -0.0926597847
 C   -0.5002126941   -2.2280380035    1.3292109495
 C   -0.5200746133   -0.6982717086    1.3136791259
 C   -1.3585126450   -0.6985064869    0.0243053875
 H    0.6971483147    1.6386068933    0.5341225484
 H    0.9779081101   -0.1831887841   -1.8585673052
 H    2.0890774912   -0.3929062744   -0.4883640454
 H   -0.6015068458   -2.2884566483   -2.1889011987
 H   -0.0556509212   -3.6995735914   -1.2509044961
 H   -2.0932744861   -2.7972266496   -0.1541787790
 H   -1.1859133295   -2.6213581180    2.0839872182
 H    0.4672207649   -2.7265521699    1.4234121185
 H   -0.6381080338   -0.0551145786    2.1786053443
 H   -2.2419017787   -0.1268336318   -0.2308515067