14

 O    1.8283462148    0.3745623090   -1.3462252699
 C    0.9230083616    0.8136589083   -0.6928884766
 C    1.0293132518    2.0538915717    0.2093911995
 O    0.5274244647    1.9654964669    1.3073759652
 C    1.7336079748    3.2987946986   -0.2240762720
 N    2.4060035593    3.3439069908   -1.5180055887
 C    1.1634635573    4.1073894087   -1.3752511595
 C    0.0153839875    3.6627238105   -2.1173963968
 C   -0.9645188241    3.3062226033   -2.7153394044
 H   -0.0485575934    0.2908514376   -0.5619118993
 H    2.1101816638    3.8834866486    0.6126595245
 H    3.2140283619    3.9591452235   -1.4779123574
 H    1.2345441570    5.1851028623   -1.2432983907
 H   -1.8216669571    2.9892750401   -3.2570959139