19

 C    0.5627151896    0.7743522347    1.0363177997
 N   -0.1464011308    0.2787155560   -0.1322770504
 C    0.7617449679   -0.2874129936   -1.1302814832
 C   -1.2578537607   -0.5268501991    0.1712303912
 C   -1.6123838902   -1.2730707921    1.2669801920
 C   -2.9053593738   -1.8467154404    1.0122781443
 C   -3.2762598192   -1.4294955844   -0.2383846136
 O   -4.3747866612   -1.6391199639   -1.0122638311
 N   -2.2876127486   -0.6372044883   -0.7549865432
 H    1.2954771717    1.5249407655    0.7221157260
 H   -0.1465136834    1.2405222918    1.7239268997
 H    1.1073626309   -0.0166004687    1.5827473023
 H    1.3431774614   -1.1407573223   -0.7393712166
 H    0.1944933920   -0.6348981343   -1.9968593964
 H    1.4627710296    0.4839604980   -1.4661390294
 H   -1.0170027567   -1.4157607070    2.1548035710
 H   -3.4723369539   -2.4909447587    1.6664557760
 H   -4.9724298233   -2.2177851919   -0.5297134118
 H   -2.3689911713   -0.0930432911   -1.5964309567