19

 O    0.2712632365    0.1163254051   -0.5881612564
 C    0.1393818236    1.2406008614   -0.1860509623
 C   -1.1740095093    1.9040904908    0.2392294018
 O   -0.8279475470    3.1866429993    0.7223707981
 C    0.4045850917    3.5966022387    0.1259735807
 C    0.3106433022    4.4552653761   -1.1745073637
 C    1.3771382826    5.4048924481   -0.5639223649
 C    1.0664181850    4.7958391455    0.8317130316
 C    1.2192545880    2.3058026616   -0.0015783483
 H   -1.8489413096    1.9509855649   -0.6306473286
 H   -1.6761024249    1.3332546289    1.0268650965
 H    0.5337265223    3.9724125637   -2.1296688644
 H   -0.6710918443    4.9322648680   -1.2325586314
 H    2.3880132545    5.1646675237   -0.9032864871
 H    1.2166125642    6.4771183893   -0.6861139897
 H    0.3070023809    5.3719461859    1.3668300255
 H    1.8987216194    4.5854910398    1.5080522138
 H    1.7485762894    2.0881010810    0.9351490608
 H    1.9464393347    2.2857565583   -0.8150578718