16

 N   -0.2112384751    0.3331445456   -1.0703051821
 C   -0.3536848447   -0.3734705484    0.0984634080
 C    0.9029938549   -1.0924050631    0.5894995600
 C    1.6456981278   -1.7673833036   -0.4720569592
 N    2.2223626427   -2.2657863277   -1.3409544200
 N   -1.3697800511   -0.4261161520    0.8695665421
 C   -2.5564806503    0.3563735585    0.5180628410
 C   -3.1760483033    0.0162289085   -0.7677541265
 C   -3.6534223932   -0.2643257493   -1.8360523783
 H    0.5535938855    0.0704294203   -1.6746550712
 H   -1.0624227788    0.5631416637   -1.5647915057
 H    1.5702001243   -0.3626455087    1.0647422539
 H    0.5963421231   -1.8053682676    1.3564999962
 H   -3.2958700120    0.2066612263    1.3118540742
 H   -2.3177437493    1.4323281648    0.5172042850
 H   -4.0995091806   -0.5257277772   -2.7640570074