15

 C    0.0027232458    1.5152184859   -0.0283256670
 C    0.0192647538   -0.0023572343   -0.0285901471
 O    0.6872028591   -0.4395145803   -1.2036226709
 C    0.7529684714   -1.8421586605   -1.2927018392
 C    1.4468009552   -2.2272392611   -2.5143744064
 C    2.0180916884   -2.5744182792   -3.5191778065
 C    2.6648980864   -2.9639397085   -4.6569222279
 N    3.2146102438   -3.2974459201   -5.6242370893
 H    1.0222722057    1.9097132922   -0.0380534978
 H   -0.5213973773    1.8929239385   -0.9102823088
 H   -0.5064781116    1.8866843806    0.8656932769
 H    0.5384366781   -0.3889516195    0.8640880482
 H   -1.0068190005   -0.4056017202   -0.0080869551
 H    1.2851539276   -2.2741339415   -0.4266687030
 H   -0.2560962259   -2.2911494417   -1.2967056161