19

 C    0.2360193239    1.4778311406   -0.0834046747
 C   -0.0395145458   -0.0146183247    0.0822513697
 O    0.4159501092   -0.7140572605   -1.1052400230
 C    1.2499149696   -1.7683454051   -0.7110902427
 C    2.8364650430   -1.7310387228   -0.7843306164
 O    3.2765515155   -0.4096349586   -0.9591017528
 C    2.8441255290   -2.2156138621    0.7274748541
 C    1.4356531495   -1.6643443394    0.7645744653
 C    0.7545514764   -0.6256272464    1.2307753758
 H    1.3116552305    1.6426629295   -0.1873565755
 H   -0.2637339892    1.8511294272   -0.9818683284
 H   -0.1367447334    2.0407185686    0.7789914858
 H   -1.1252009432   -0.1788030705    0.1705848448
 H    0.8868078324   -2.7253906256   -1.1101172874
 H    3.3000734437   -2.4198513464   -1.5034070473
 H    4.2225017989   -0.3834449610   -0.7842204835
 H    2.9116826328   -3.3056040488    0.7966592913
 H    3.5829898343   -1.7578085324    1.3890593828
 H    0.8575368428   -0.1279270314    2.1871864321