22

 C   -0.3671262211    1.4527697800   -0.0206291448
 N   -0.0071152196    0.0414429332    0.0358485213
 C    1.3329891714   -0.4269317071   -0.3328650245
 C    2.4694585059    0.5279801250   -0.6886260185
 C    3.2023464199    1.0211790820    0.5610584184
 O    2.2870329456    1.4745929315    1.5434722905
 C    1.5299874475    0.4140542741    2.1003172785
 C    0.8474680757   -0.5002219330    1.0867040583
 C    0.3776676344   -1.8123068217    1.6836242313
 H    0.4031279565    2.1495485876    0.3300857217
 H   -0.6281912914    1.7047348124   -1.0541908883
 H   -1.2657896409    1.6011773789    0.5874603766
 H    1.3069202012   -1.3401060509   -0.9263278445
 H    3.1791839756    0.0140015954   -1.3454519997
 H    2.0857683620    1.3853091203   -1.2537636229
 H    3.8287253425    0.2135748782    0.9759488282
 H    3.8536081949    1.8703243198    0.3341675169
 H    2.1787785568   -0.2106624177    2.7382066677
 H    0.7864593936    0.8859507349    2.7531071766
 H   -0.3223603146   -1.6405550688    2.5105735523
 H   -0.1411646717   -2.4030620835    0.9256842274
 H    1.2181103358   -2.3979049006    2.0729161473