20

 C   -0.3547796335    1.2827010668    0.2497289080
 C    0.1259522738   -0.1629275886    0.4442913296
 N    0.3600100381   -0.8417242840   -0.8175781333
 C    1.5202580985   -0.7716996083   -1.3476569608
 N    2.6557306296   -0.1590002542   -0.8948077906
 N    1.6711577959   -1.4845749077   -2.5604923215
 C    2.7164383922   -1.4874250116   -3.4462824841
 C    2.4650440350   -2.3133605629   -4.6954062328
 O    3.7606797770   -0.8760619937   -3.2717900449
 H    0.4063477890    1.8962210423   -0.2450669482
 H   -1.2508677299    1.3011910665   -0.3772003532
 H   -0.5939496773    1.7484288061    1.2115517741
 H    1.0119990286   -0.1748152473    1.1019220082
 H   -0.6514236140   -0.7201970414    0.9797535228
 H    2.5442413414    0.5731852185   -0.2161672015
 H    3.4193399009   -0.0901645800   -1.5583529688
 H    0.8277134073   -1.9866934928   -2.7948908931
 H    2.0171613910   -3.2826191107   -4.4577579008
 H    1.7796486492   -1.7803314403   -5.3632890202
 H    3.4127768173   -2.4619857465   -5.2117268588