23

 C    0.0725728509    1.5541539485   -0.0849910619
 C    0.0508737117    0.0346845882    0.0043865417
 O   -1.2940423649   -0.4355949392   -0.0916556980
 C    0.9854348740   -0.7912252601   -0.9368802028
 C    1.4011631681   -1.7021327304    0.2540859202
 C    2.7698628381   -1.3517368940    0.8715029048
 C    2.1038377279   -0.1764830366    1.6457363300
 C    0.6837262900   -0.6931372869    1.2319917991
 C   -0.2202078404   -1.1041167512    2.3745904803
 H    1.0844157675    1.9620541300   -0.0170750468
 H   -0.3444471146    1.8825776328   -1.0458784343
 H   -0.5360848602    1.9932809851    0.7118363703
 H   -1.6347759527   -0.1630549044   -0.9506040855
 H    0.4444835324   -1.2912300489   -1.7441545754
 H    1.8160508782   -0.2245928019   -1.3701637322
 H    1.1164012113   -2.7520926185    0.1738519294
 H    3.1371348129   -2.1312439851    1.5448360424
 H    3.5734528898   -1.0987667501    0.1728262809
 H    2.2729125736   -0.1820516943    2.7253793778
 H    2.3629408457    0.8184175009    1.2763045008
 H   -0.5255992786   -0.2322912342    2.9669229576
 H   -1.1241194767   -1.5955098281    2.0102092485
 H    0.3032324959   -1.7905624716    3.0502732432