15

 O   -0.0684024500    0.0544657234   -0.0776210275
 C    0.0145826740    1.2611137773   -0.0262468190
 N   -0.9286743996    2.2304860509   -0.2848692590
 N   -0.4827157415    3.5279348983   -0.0896014581
 C    0.7553326955    3.3758608612    0.2710650824
 N    1.1237343842    2.0530361991    0.3131755274
 N    1.6402765100    4.3776176703    0.6455931014
 C    2.4904833220    4.9841556527   -0.4001010812
 C    1.3476966640    5.7327619439    0.1862858418
 H   -1.8949092620    2.0579531978   -0.4972825736
 H    2.0019917201    1.6817276607    0.6308850754
 H    3.5080940544    5.1976830095   -0.0899914083
 H    2.3764645810    4.6095802093   -1.4136188328
 H    0.4620844249    5.8625213214   -0.4269167277
 H    1.5281302531    6.5066982343    0.9249397788