18

 C   -0.1064600831    1.6024013293    0.1383513557
 C   -0.0021092897    0.0865731426    0.0766116892
 C   -1.3413103902   -0.5923992364   -0.2682926353
 C   -1.9218583206   -0.1270037805   -1.5259176764
 N   -2.3844275916    0.2469690228   -2.5164057841
 O    1.0338662964   -0.3446795370   -0.8438412134
 C    1.8865096528   -0.7870142212    0.2323101854
 C    0.7523975855   -0.5789080548    1.2602439540
 O    0.9745026360    0.2765196973    2.3497966068
 H    0.8568413888    2.0401346082    0.4043247916
 H   -0.4158364862    1.9895885156   -0.8361029541
 H   -0.8378352874    1.9125144207    0.8906743588
 H   -1.1889752962   -1.6745109763   -0.3359473562
 H   -2.0585736209   -0.4082149688    0.5405124112
 H    2.2496621877   -1.8088412288    0.0770955286
 H    2.7364749852   -0.1121393526    0.3947792715
 H    0.2859229918   -1.5208351889    1.5778410175
 H    1.3849118517   -0.2253692014    3.0604201091