20

 O   -0.5193162784    0.8713595607   -1.1724932108
 C   -0.1929667641   -0.1319299393   -0.2219712734
 C   -1.3688269060   -1.0959513012   -0.1682214329
 C   -1.1809205740   -2.2187644179    0.8359403248
 O   -0.1871197057   -2.3050248245    1.5223015844
 C   -2.2987620906   -3.2591067871    0.9350422612
 C   -2.3307701624   -4.1801371613   -0.2722335641
 C   -3.5789836359   -4.8810596878   -0.6580789751
 N   -3.0379261755   -3.8033488178   -1.5084107423
 H    0.2220552121    1.4810372074   -1.2280809925
 H    0.7182541743   -0.6792026861   -0.5017782324
 H   -0.0180720871    0.2928977909    0.7765894765
 H   -2.2875474510   -0.5470726033    0.0807126525
 H   -1.5460578326   -1.5290504685   -1.1611035903
 H   -2.1163970199   -3.8402142156    1.8442385977
 H   -3.2701453667   -2.7567851915    1.0323476849
 H   -1.3874818012   -4.6882313044   -0.4646117160
 H   -3.5357114563   -5.8752214739   -1.0931203289
 H   -4.4730049567   -4.6818091931   -0.0723004022
 H   -3.5748007422   -2.9524003756   -1.3554902710