22

 C   -0.0898006590    1.5088960159    0.2075576920
 C   -0.0242308195    0.0016973333   -0.0516483913
 C   -1.4002071319   -0.6670033400   -0.0726183761
 O   -2.2575628965   -0.1013691833   -1.0720083244
 C   -1.3088718639   -2.1845990310   -0.2582709020
 N   -2.6317884924   -2.7698043796   -0.3180803519
 C   -2.9821332501   -3.8812284704    0.3912959123
 C   -4.4424615446   -4.2906500769    0.2692729300
 O   -2.1893504571   -4.5089093792    1.0720804260
 H    0.9053474658    1.9607566904    0.1645657361
 H   -0.7251601482    2.0033269446   -0.5321637621
 H   -0.5106057990    1.7182115659    1.1968668287
 H    0.4762390661   -0.1941338384   -1.0117827615
 H    0.5900540691   -0.4882789405    0.7137637507
 H   -1.9209423566   -0.4636876585    0.8713287662
 H   -1.7871398032   -0.1414359722   -1.9134010870
 H   -0.7426935912   -2.4034279889   -1.1779875750
 H   -0.7786154769   -2.6589988729    0.5711005091
 H   -3.3289912730   -2.2384423586   -0.8147162764
 H   -5.0262601180   -3.6482318258   -0.3949487169
 H   -4.4892682944   -5.3194992178   -0.0968997204
 H   -4.8945348154   -4.2790021061    1.2647632039