22

 C   -0.0968330747    1.6599223311   -0.1323568646
 C    0.0028352015    0.1334301007   -0.0680742615
 C   -1.3553876613   -0.5904254577    0.0384012406
 C   -2.2484395479   -0.3444320033   -1.1718607506
 C   -3.7271995773   -0.4502307990   -1.0730318539
 N   -3.0843490921    0.8597724877   -1.2804781726
 C   -1.1324740166   -2.1071328721    0.1369864340
 C   -1.8680567797   -2.8445740130    1.2381175734
 O   -0.4113148781   -2.6770590746   -0.6499329024
 H    0.9011114062    2.1070307367   -0.1749825145
 H   -0.6507966828    1.9935710846   -1.0141723701
 H   -0.5991321254    2.0658766051    0.7539572861
 H    0.5209750965   -0.2544048096   -0.9509804805
 H    0.6182850034   -0.1557244888    0.7931675444
 H   -1.8894386303   -0.2459562190    0.9351434708
 H   -1.7829542137   -0.6335282365   -2.1117273738
 H   -4.3085116105   -0.8163201512   -1.9141283377
 H   -4.1621720807   -0.6627731095   -0.0988460093
 H   -3.0668295741    1.3739418320   -0.4028335858
 H   -1.5397616041   -2.4758020484    2.2173628736
 H   -2.9441991410   -2.6491850745    1.1721962565
 H   -1.6790073073   -3.9163508105    1.1666825181