18

 O   -0.6458204416    0.8152294959    0.5796268919
 C    0.1981315955    0.9626427326   -0.2707865570
 C    1.3390678161    1.9344327309   -0.2096541502
 C    1.1089136740    3.4130281457   -0.6445701523
 C    0.3258479102    3.7136014408    0.6708932283
 C    0.6591720664    5.1427728997    1.0768042187
 C    2.1570737352    5.1357583474    0.6659701065
 N    2.3761179538    3.7697982186    0.1303099147
 C    1.5629975764    2.8272946066    1.0246629607
 H    0.1770917074    0.3479119465   -1.2003892171
 H    2.2465264330    1.5072099229   -0.6468650410
 H    0.9313620434    3.7926989785   -1.6532722004
 H   -0.6831706805    3.3358372419    0.8253263666
 H    0.0657716021    5.8820019010    0.5298958444
 H    0.5058149569    5.3170057045    2.1460982823
 H    2.3960374249    5.8680812384   -0.1105313371
 H    2.8371151399    5.3018514513    1.5063180755
 H    1.9210901570    2.5275719769    2.0111302053