19

 C    0.1157246116    1.5649759437    0.0510690567
 C    0.0713120204    0.0230451679    0.0344212042
 C    0.6936175184   -0.5222323850   -1.1716853327
 C    1.2040708271   -0.9613187186   -2.1670015478
 C    0.7077758964   -0.5541413915    1.2839111179
 C    0.3327083414   -0.3199977789    2.7749038515
 C    1.6795507117   -1.0725714872    2.6937684175
 C    1.0923147800   -2.0180532624    1.6225515605
 O    2.1024435469   -0.1506496223    1.6134211718
 H    1.1504062365    1.9094872749    0.1066159042
 H   -0.3422784813    1.9688187708   -0.8545547268
 H   -0.4263212149    1.9510822678    0.9188943795
 H   -0.9804041400   -0.2979601764    0.0515822269
 H    1.6576879090   -1.3499470911   -3.0448719446
 H    0.4010757726    0.7127784394    3.1181181821
 H   -0.5344936090   -0.8510412067    3.1765109909
 H    2.4018285771   -1.2804840715    3.4820464318
 H    0.2944323506   -2.7040750343    1.9187773152
 H    1.8197315954   -2.4659020985    0.9461006315