20

 C    0.1536727957    1.5226771718   -0.0360044001
 C    0.0000798287    0.0125057422    0.0199603026
 O    0.4684260484   -0.5146582042   -1.2234234360
 C    0.6294024734   -1.9117526260   -1.2774365566
 C   -0.6707163019   -2.6928505026   -1.1340089616
 C    1.5232426047   -2.2917726654   -2.4995479219
 N    2.4977034149   -2.8252178902   -1.5421084056
 C    1.8227256705   -2.4510175657   -0.4105001896
 O    2.0830548704   -2.5101245854    0.7637507527
 H    1.2046568790    1.7989153203   -0.1586880611
 H   -0.4103444743    1.9363049388   -0.8772321731
 H   -0.2196466512    1.9750727320    0.8876313826
 H    0.5789681280   -0.4125842604    0.8485932262
 H   -1.0555366187   -0.2558641790    0.1734489419
 H   -1.4119768613   -2.3261992892   -1.8513120555
 H   -0.5003199060   -3.7578120460   -1.3173726215
 H   -1.0801165959   -2.5928152824   -0.1253289880
 H    1.1065667223   -3.0387282005   -3.1817459690
 H    1.8664790803   -1.4143714277   -3.0534991468
 H    3.4318956728   -3.1858523804   -1.6686865295