19

 O   -0.0909808284    1.4284338966    0.0198546718
 C    0.0299032697    0.0086026859   -0.0082896552
 C   -1.3991999901   -0.5422759938    0.0035133744
 O   -1.3978010059   -1.9390155930   -0.2433056338
 C   -0.9239042358   -2.2668814028   -1.5222608073
 C   -1.1020726322   -3.7147370690   -1.8824723657
 C   -1.9681747211   -2.6758452587   -2.5524812703
 C    0.2730860525   -1.5144425492   -1.9519459484
 C    0.7361451306   -0.4818633229   -1.2486664367
 H    0.7933128545    1.8032243599    0.0768979473
 H    0.5581584419   -0.3443938478    0.8927437265
 H   -1.8687998628   -0.3970083395    0.9787452689
 H   -1.9846735957    0.0003363638   -0.7528774525
 H   -0.3226032001   -4.2008721223   -2.4586731411
 H   -1.5614814495   -4.3324468687   -1.1193165829
 H   -3.0007277599   -2.6043814403   -2.2309312252
 H   -1.7915480668   -2.4389807534   -3.5958807835
 H    0.7545076732   -1.8392561541   -2.8702470630
 H    1.6275341059    0.0554602893   -1.5643106833