16

 N   -0.0993643361    1.2510367627    0.0297190852
 C   -0.1518247946    0.0102344841   -0.1874936889
 O   -1.0785326114   -0.7382331783    0.4600504328
 C   -1.0691271252   -2.1234314305    0.1690224013
 C   -2.2461517652   -2.9035751588    0.7377406977
 C   -3.5095058174   -2.4256840398    0.1223339245
 C   -2.6486894417   -3.3899371337   -0.6899351677
 C   -1.4964664615   -2.6258186744   -1.2523132263
 O   -0.9712337249   -2.5380859196   -2.3258043392
 H    0.6424521262    1.6681779544   -0.5288889775
 H    0.4800694291   -0.5676956584   -0.8719167471
 H   -0.1003381734   -2.5717576015    0.4278791121
 H   -2.2112633209   -3.5048545952    1.6355172945
 H   -4.4224151905   -2.8732784163    0.4998866818
 H   -3.6085682372   -1.3899613008   -0.1830859314
 H   -3.0252704852   -4.3488218438   -1.0207969217