23

 C   -0.3638880871    1.6682971074    0.1833283798
 C    0.0738894240    0.2115467722    0.0625765830
 C   -1.1476128274   -0.6857937866   -0.2066275477
 O    0.9987592998    0.1385157605   -1.0393072003
 C    1.7428913692   -1.0689539994   -0.9131418741
 C    1.9149231371   -1.3311408018    0.5927067210
 C    3.0779316333   -0.5784840082    1.2936173371
 C    2.0834911005    0.5125743227    1.7740475282
 C    0.8913137997   -0.3401529295    1.2458587338
 H    0.4941027620    2.3334723204    0.2980150668
 H   -0.9071295010    1.9728241143   -0.7161378740
 H   -1.0270760117    1.8007080947    1.0438023484
 H   -1.6034902680   -0.4183004243   -1.1644148363
 H   -0.8755712648   -1.7451336036   -0.2418775611
 H   -1.8985186692   -0.5632105731    0.5804172780
 H    1.2134795926   -1.9055610873   -1.3936866606
 H    2.6915949912   -0.9265750313   -1.4410486802
 H    1.8283972413   -2.3928810144    0.8319688136
 H    3.5191194638   -1.1513610922    2.1130999266
 H    3.8868755219   -0.2402003994    0.6394111104
 H    2.0766471625    0.7094038223    2.8485373566
 H    2.2042353792    1.4643411525    1.2534330525
 H    0.2559197811   -0.7522219059    2.0322738886