17

 O    0.0996986749    1.4723197570   -0.0526873648
 C    0.0964197352    0.0699463381    0.0980539301
 C   -1.3231671649   -0.5117710056   -0.0410343845
 C   -2.0224365826   -0.4783627979   -1.4390601591
 C   -2.1131562591   -1.9981284008   -1.3238418679
 C   -0.7836096635   -2.5963029211   -1.1347815055
 N   -1.4562057876   -2.0210283832    0.0537920821
 C   -2.1549598333    0.0995148944    0.9998303104
 N   -2.7680429188    0.6425491521    1.8158523253
 H   -0.3721534742    1.8572983356    0.6953228376
 H    0.7347945645   -0.3194049987   -0.6976248663
 H    0.5178747609   -0.2560032469    1.0600834373
 H   -2.9851545533    0.0307924434   -1.4199631197
 H   -1.4230032643   -0.0823446169   -2.2623719062
 H   -2.9997768631   -2.5875387907   -1.5276534788
 H   -0.7206430175   -3.6772695702   -1.0638195190
 H    0.0961032166   -2.1233616585   -1.5605674208