18

 C   -0.0134096158    1.4706567351    0.1041767873
 C    1.3605106836    0.8332863716    0.0118321271
 C    1.9536093564    0.5226077981    1.3551809403
 C    1.2728896802   -0.4737288110    1.9252112093
 C    0.6499466783   -0.8966738250    3.2375623068
 C   -0.7103425187   -0.8716870299    2.4451895453
 C    0.1070212212   -0.9574793708    1.0979451602
 C    0.0806901507   -0.0194868147   -0.0946097652
 H   -0.3236521407    1.8675665444    1.0654871860
 H   -0.3580372669    2.0456328307   -0.7495265724
 H    1.9805509797    1.0530803529   -0.8512013148
 H    2.6944065977    1.1581304912    1.8277792435
 H    0.9117868157   -1.9170336725    3.5376438897
 H    0.7603536097   -0.2331412959    4.0981076019
 H   -1.4113963171   -1.6851147099    2.6455842474
 H   -1.2195248274    0.0882577148    2.5546517147
 H    0.1852138724   -2.0052107160    0.7835551492
 H   -0.2238309691   -0.4062737429   -1.0598856164