19

 C   -0.1822050995    1.3177699886    0.0981389920
 O   -0.1434369493   -0.0858409448    0.2013190621
 C    0.8660271458   -0.5420520547    1.0746306363
 C    0.8070909336   -2.0511824630    1.0939410194
 C    1.4019443673   -2.9366312924    2.1300763705
 C    1.3146404267   -2.3156695059    3.5333257590
 C   -0.2278971088   -2.2924621938    3.3462606602
 O   -1.1331971788   -2.0815139026    4.1022295304
 C   -0.1473304058   -2.8659778275    1.9625679288
 H    0.7658588333    1.7261291649   -0.2873791296
 H   -0.9851500864    1.5717710250   -0.5977238951
 H   -0.3900588802    1.7931823399    1.0696971077
 H    1.8586379542   -0.2122902614    0.7190880441
 H    0.7259793332   -0.1149363753    2.0796367856
 H    0.8588773533   -2.4651391556    0.0890168484
 H    2.0329389144   -3.7780576931    1.8751100495
 H    1.5672805169   -3.0207586557    4.3310369450
 H    1.8376059354   -1.3737128558    3.7169857896
 H   -0.8473372653   -3.5613160168    1.5164777759