23

 C   -0.1422366133    1.5982840647   -0.0419740903
 C   -0.0760949940    0.0659705332   -0.0012264626
 C   -1.4846491559   -0.5411771404    0.0287060990
 C    0.7359650607   -0.5186772155   -1.1777167495
 C    2.1887410681   -0.1311538426   -1.1922257769
 C    2.7780175101    1.0610801693   -1.9314835892
 C    3.2828153752   -0.3169435153   -2.2221626118
 O    4.2529529194   -0.7146677889   -1.2497542016
 C    3.2450315145   -0.6374477331   -0.2063066634
 H    0.8536746525    2.0484741633   -0.0197982800
 H   -0.6435827212    1.9424192353   -0.9550212500
 H   -0.7075860217    1.9877804895    0.8111590386
 H    0.4343027065   -0.2252318231    0.9286844685
 H   -2.0384930239   -0.2860854752   -0.8829578672
 H   -1.4497707344   -1.6334046881    0.1015407403
 H   -2.0600539475   -0.1655316827    0.8811266389
 H    0.6609447121   -1.6143949238   -1.1402150187
 H    0.2674401340   -0.2128934421   -2.1233391208
 H    2.1205492587    1.4891158087   -2.6826347176
 H    3.4308363812    1.7718316344   -1.4306058571
 H    3.3094169336   -0.7962371399   -3.1946339735
 H    3.5443135348    0.0244692715    0.6155549208
 H    3.0245499202   -1.6375646193    0.1874010541