14

 C   -0.0774465532    1.4451561575    0.2148228653
 C    1.2933783198    0.8623283708    0.0042264700
 C    2.2214779541    0.6205599664    1.1711490470
 O    1.5748142511    0.0061322357    2.3005136110
 C    0.5623346093   -0.8608184650    2.0457294048
 N   -0.1535237139   -0.9634208496    1.0078270589
 C    0.0851941203   -0.0390491633   -0.0602008224
 H   -0.3726394863    1.7245367449    1.2208101654
 H   -0.4938020718    2.0677101717   -0.5694261832
 H    1.8069431736    1.1006168760   -0.9227730791
 H    3.0425515372   -0.0363216807    0.8543701301
 H    2.6579442952    1.5466848551    1.5579323437
 H    0.3912025062   -1.5011376925    2.9085404323
 H   -0.2489024016   -0.4052356071   -1.0245016838