23

 C    0.9266621869    1.5633717793   -0.2329004972
 C    0.0704332525    0.2949988308   -0.0604578893
 C    0.2431818042   -0.6401381919   -1.2365655582
 C    0.9711568623   -1.7108084210   -0.9287849477
 C    1.4227007766   -1.6907137499    0.5197760191
 C    1.3514123269   -3.0538442196    1.2103572506
 O    2.7673038529   -1.1782076014    0.6197463301
 C    0.4721851134   -0.6246591829    1.1358346102
 C    1.0045576903    0.0733990802    2.3854884410
 H    1.9861398322    1.3019118861   -0.2962805711
 H    0.6486615079    2.0941277602   -1.1499414541
 H    0.7881602388    2.2543590201    0.6043980490
 H   -0.9771663034    0.6060737003    0.0464018582
 H   -0.1454829334   -0.4084165375   -2.2235345995
 H    1.2657936635   -2.5002245909   -1.6142402390
 H    2.0328090135   -3.7660428282    0.7291766873
 H    1.6449239140   -2.9699705915    2.2609924804
 H    0.3417349753   -3.4734466737    1.1588019954
 H    3.3355731142   -1.7404725083    0.0828302283
 H   -0.4377648381   -1.1716280440    1.4117875065
 H    1.9411121079    0.5968505899    2.1868780575
 H    0.2747482362    0.7975477576    2.7635935680
 H    1.1937702757   -0.6495850437    3.1856636644