21

 C   -0.1505787760    1.5596374110    0.0117997709
 C    0.0273580889    0.0484270272    0.0020275167
 O   -1.2620113290   -0.5318016229    0.0112086679
 C   -1.3721912342   -1.9631356808    0.0046072968
 C   -0.7304852326   -2.5754613767    1.2608666403
 C   -2.8856576626   -2.2026882389    0.0178453925
 C   -0.7547685571   -2.5618999152   -1.2702201755
 H    0.8228062706    2.0598653913    0.0052073434
 H   -0.7154937929    1.8841424610   -0.8667441279
 H   -0.6986317551    1.8746711084    0.9043600467
 H    0.5955326717   -0.2547513556   -0.8904443256
 H    0.6123981458   -0.2642141757    0.8802229625
 H   -1.1270243038   -2.0964007494    2.1611701520
 H   -0.9506657498   -3.6461091528    1.3158021209
 H    0.3577628926   -2.4648264159    1.2615295988
 H   -3.3477891321   -1.7436568082   -0.8606119865
 H   -3.1131507035   -3.2727504803    0.0142643318
 H   -3.3307998909   -1.7531951281    0.9099031949
 H    0.3332702866   -2.4510821319   -1.2906017839
 H   -0.9760039489   -3.6319365687   -1.3323590221
 H   -1.1685069576   -2.0733082677   -2.1575683745