16

 C    0.0101905504    1.4149939204   -0.0232980006
 N    0.0061808211   -0.0336039867    0.0309622049
 N   -0.0274585231   -0.7436246117   -1.1255747697
 C   -0.0209522813   -2.0104417103   -0.7492103006
 C    0.0165820808   -2.1290289002    0.6629087624
 C    0.0339848912   -3.3020605802    1.4507031896
 N    0.0486350550   -4.2579180416    2.1060902127
 C    0.0336377431   -0.8164426044    1.1333725951
 C    0.0732582010   -0.2884448890    2.5267434974
 H    0.9176935920    1.8201947888    0.4344728884
 H   -0.0225269107    1.6962000628   -1.0746410185
 H   -0.8628380586    1.8269445924    0.4917964726
 H   -0.0432957690   -2.8022429626   -1.4820949945
 H    0.9643917489    0.3250204285    2.7013377206
 H   -0.8025509915    0.3316091659    2.7490820685
 H    0.0892685107   -1.1193682420    3.2342306718