23

 C   -0.0077086528    1.2660386704    0.4618745563
 O   -0.0832348369   -0.1352822299    0.3713044926
 C   -1.3373614937   -0.5899599626   -0.0902480578
 C   -1.2912958090   -2.1115114401   -0.1642197086
 C   -2.6325164333   -2.7682112966   -0.5363288059
 C   -3.1207242702   -2.4043187173   -1.9473620524
 C   -2.5125164690   -4.2731517432   -0.4084767550
 C   -2.8922200349   -4.9967625711    0.8100443401
 O   -3.7336399817   -5.0130139698   -0.3464369935
 H    0.9922512683    1.5184049519    0.8234041556
 H   -0.1640706692    1.7498250259   -0.5158499729
 H   -0.7522126995    1.6726683841    1.1653448053
 H   -2.1400028908   -0.2640039577    0.5956863989
 H   -1.5598732145   -0.1489004437   -1.0758785851
 H   -0.5181763929   -2.4041988427   -0.8861888891
 H   -0.9609732433   -2.4817917082    0.8134921808
 H   -3.3953091449   -2.4465948955    0.1859974785
 H   -4.0396976333   -2.9495672777   -2.1803321591
 H   -3.3300628244   -1.3353670076   -2.0434805734
 H   -2.3697236964   -2.6673429285   -2.7019141372
 H   -1.7559391697   -4.7302318981   -1.0517188788
 H   -2.4150621073   -5.9445748094    1.0554950550
 H   -3.2828515706   -4.4412861127    1.6622253759