17

 C   -0.0097188341    1.5119142680    0.0729545809
 C    0.0113483681    0.0225570240   -0.0094725523
 C   -0.0026325502   -0.7354149429   -1.1083860925
 N    0.0185004608   -2.1085123653   -0.8177255703
 C    0.1211798727   -2.3063396335    0.6395465420
 C    0.0256113073   -0.8685337817    1.2198568148
 C   -0.0218680809   -3.1011280090   -1.7477223519
 O   -0.0872018411   -2.9286850343   -2.9484736581
 H    0.8725143383    1.8978106678    0.6006727667
 H   -0.0335660654    1.9675955814   -0.9205057691
 H   -0.8857836975    1.8700019202    0.6300614839
 H   -0.0317074905   -0.4461719446   -2.1482870722
 H   -0.6814641517   -2.9573150474    0.9967596551
 H    1.0759447063   -2.7799564119    0.8905851273
 H    0.8697461777   -0.6439149145    1.8823231217
 H   -0.8822873880   -0.7306429425    1.8213429124
 H    0.0103818380   -4.1042220337   -1.2782937783