22

 C   -0.1429468308    1.5514494225   -0.0265285601
 C    0.0776676397    0.0349250140   -0.0555504261
 C    0.7332886732   -0.5139366354    1.2095773166
 O    2.0340655761    0.0379987168    1.4046159293
 C   -0.0914568982   -0.5133467303    2.5351641979
 C    0.4667707883   -1.9322965189    2.8449190703
 C   -0.4716705107   -2.9720577859    3.4353488675
 C    0.8723598114   -2.0510223233    1.3480112808
 H    0.8076111993    2.0919676487    0.0418654403
 H   -0.6425908346    1.8953399373   -0.9367724090
 H   -0.7649009808    1.8494813537    0.8252434825
 H   -0.8833701706   -0.4733013910   -0.2003956949
 H    0.7100899618   -0.2311320932   -0.9117748579
 H    1.9287422658    0.9694378529    1.6247829709
 H    0.1250800830    0.2874169038    3.2485842651
 H   -1.1702375153   -0.5346537038    2.3452311972
 H    1.3667724742   -1.8454821683    3.4604355629
 H   -1.3799882749   -3.0735593983    2.8293753256
 H    0.0055190884   -3.9574766662    3.4847673681
 H   -0.7795312328   -2.7015002332    4.4518912944
 H    0.1147798623   -2.5802382935    0.7607070015
 H    1.8596439152   -2.4538902982    1.1127131269