15

 C   -0.0082216220    1.4193219032    0.0207572908
 N   -0.0172433923   -0.0381761419    0.0280672649
 N   -0.0673711577   -0.6240514373   -1.2098123279
 N   -0.0672275647   -1.8951361749   -1.2757573139
 C   -0.0231821930   -2.6649731617   -0.1501633213
 C    0.0165249098   -2.1416984394    1.1161213071
 N    0.0226555662   -2.8140280872    2.2907424553
 C    0.0321840812   -0.6874633308    1.2440601463
 O    0.0895302358   -0.0953631565    2.3167486334
 H    0.9022058195    1.7900181053    0.4979062677
 H   -0.0544625258    1.7366747094   -1.0194762974
 H   -0.8656416345    1.8009853269    0.5802067236
 H   -0.0277017859   -3.7350039842   -0.3300914927
 H    0.2140291925   -3.7995937765    2.3249429906
 H    0.1930439109   -2.2531894245    3.1123098734