22

 O   -0.4755184115    1.7482956062   -0.0022523672
 C   -0.1522219843    0.3728402816   -0.1084563976
 C   -1.3801344904   -0.5496106045   -0.0720883450
 C   -0.9482564432   -1.9981720635   -0.1638127880
 C   -1.8163226944   -3.0435575025   -0.8188481194
 C   -0.5452933220   -2.5910244275   -1.4911414063
 N   -2.0970979408   -0.3202317019    1.1864521333
 C   -3.1367622741    0.7120325223    1.1820690300
 C   -3.4964668179   -0.7286213489    1.2369565395
 H   -0.8114995464    1.8883606386    0.8884053458
 H    0.3598489900    0.2496354515   -1.0674329697
 H    0.5442978714    0.0645660616    0.6861748255
 H   -2.0190727092   -0.3082862685   -0.9430528927
 H   -0.3801270378   -2.3297723986    0.7012207428
 H   -1.8467214886   -4.0342129107   -0.3791502586
 H   -2.7547357632   -2.7262041822   -1.2610772286
 H   -0.6401366441   -1.9689670297   -2.3755844770
 H    0.3001967736   -3.2691265812   -1.5175371234
 H   -3.1968077666    1.3273118648    2.0763688924
 H   -3.3237098503    1.2416209698    0.2506445353
 H   -3.9353235712   -1.1629172618    0.3414755431
 H   -3.8227740889   -1.1840874650    2.1674972957