19

 O    0.3680243476   -0.0522059979    1.5386254797
 C   -0.0670325828   -1.0137834569    0.5839260883
 C   -1.4389046049   -0.6946427318    0.0021392494
 C   -1.5540056046   -0.2596133439   -1.4412117326
 C   -1.9656739427   -1.6507522143   -1.0416909157
 C   -2.4171282555   -0.0677637784    0.9866879579
 O   -2.3217837145   -0.5917558565    2.3074357178
 C   -2.2719006292    1.4501994778    1.1474293172
 O   -1.3114591742    2.1077690389    0.8227867144
 H    0.2353136168    0.8247308903    1.1475326380
 H    0.6641166679   -1.1310399255   -0.2298678671
 H   -0.1062801273   -1.9640244614    1.1268042255
 H   -2.3325875092    0.4501387444   -1.7022088298
 H   -0.6370556367   -0.1316388681   -2.0067553312
 H   -1.3244391987   -2.4768907527   -1.3327170874
 H   -3.0222627577   -1.8966384144   -1.0258337832
 H   -3.4477249755   -0.2598932673    0.6618020900
 H   -1.4020001803   -0.4314837198    2.5758646980
 H   -3.1262195085    1.9191725175    1.6806360508