17

 C    0.2276058960    1.5750229942   -0.1360484524
 O    1.5577224358    1.4104437037    0.4283221626
 C    1.3197422407    0.0173617980    0.7106014586
 C   -0.0343635654    0.0690700430   -0.0606597447
 C    0.6244050703   -0.7598327985   -1.2170342081
 O    1.0659052418   -0.0585811107   -2.3620798282
 C    2.4387247889    0.2859722164   -2.1900459188
 O    2.9746228634   -0.5322892645   -1.1685139979
 C    1.9047292960   -0.9525199347   -0.3653317254
 H   -0.4065708065    2.1761907167    0.5263575646
 H    0.2494556258    2.0197520609   -1.1352720970
 H    1.4536985824   -0.2286926115    1.7675571786
 H   -0.9872926172   -0.2921543236    0.3213212791
 H    0.0642195531   -1.6422817257   -1.5344754524
 H    2.9730705310    0.0766921677   -3.1236319293
 H    2.5304503137    1.3439626336   -1.9178730701
 H    2.1104569900   -1.9553147151    0.0179673208