15

 N   -0.0394511443   -1.1459732425    0.1539082334
 C   -0.0427832924    0.0107547653    0.1185917464
 C   -0.0647450781    1.4556003555    0.0464728153
 C    0.4772302266    2.1845123190    1.2403911952
 N    1.2315591760    2.1669864331   -0.0117650648
 C   -1.1683615612    2.0547441626   -0.7820219049
 C   -1.7391227972    1.3393564205   -1.9488596671
 N   -2.5344258497    1.5247754959   -0.7211727976
 H    0.0317978990    3.1416656331    1.4957760242
 H    0.8259152314    1.5937327567    2.0821431248
 H    2.0040904749    1.5073897212    0.0370511490
 H   -1.1052388050    3.1396186403   -0.8082988727
 H   -2.0819642182    1.9067041937   -2.8087645564
 H   -1.3592556994    0.3469106508   -2.1752067327
 H   -2.5545758024    0.6551612848   -0.1912526120