13

 O   -0.1053589231    1.4722948094    0.1317461341
 C   -0.0339625942    0.0726742917    0.0087832013
 C   -1.3747725674   -0.6582605239    0.0475566462
 C   -2.2014572921   -0.2470486552   -1.1145474473
 C   -1.1056909211   -1.2851906176   -1.3529104958
 C    0.2058738678   -0.5702185772   -1.3961615704
 O    1.1552532520   -0.5757849810   -2.1292514983
 H    0.7317681063    1.8342002985   -0.1797492970
 H    0.6871844774   -0.3678720433    0.7159845896
 H   -1.7777726569   -1.1678844299    0.9119806838
 H   -3.2050209634   -0.6561506745   -1.1608810687
 H   -2.1022903021    0.7534140786   -1.5207546857
 H   -1.3344209933   -2.2724025756   -1.7334179418