21

 O    0.2583795947    1.3350053821    0.3090850596
 C    0.0868102174   -0.0640213433    0.1063210900
 C   -1.3926891701   -0.5004126414   -0.0639666513
 C   -1.3779429378   -1.6285147009   -1.1199555358
 C   -0.0506234069   -1.4327262255   -1.8333713284
 C    0.7368714587   -0.5973845835   -1.1453877834
 C    0.3127085346   -2.1281541139   -3.0821410112
 C   -0.2235887360   -3.5106861971   -3.4110034435
 C   -0.6917072378   -2.3288704360   -4.2062509045
 H   -0.0068944536    1.7718667004   -0.5083251653
 H    0.5315833213   -0.5113391819    1.0053744560
 H   -1.8612333868   -0.7955953853    0.8778689318
 H   -1.9506379222    0.3625588756   -0.4447149747
 H   -1.4060679412   -2.6177003394   -0.6432286472
 H   -2.2417041373   -1.5907111097   -1.7937176183
 H    1.7547362235   -0.3329965174   -1.4130856113
 H    1.3307286325   -1.9375176438   -3.4084310741
 H    0.4582074787   -4.2147363773   -3.8745932515
 H   -0.9205388429   -3.9604862469   -2.7129416097
 H   -1.7060219328   -1.9789286778   -4.0520839067
 H   -0.3297854360   -2.2073712969   -5.2209964906