18

 O    0.2227319589    1.2674912948   -0.4485406015
 C    0.0910959818   -0.0983116769   -0.0646383561
 C   -1.3756817813   -0.5345833803   -0.1501268656
 O   -1.9019814167   -0.1976762355   -1.4180569841
 C   -1.5160720344   -2.0274810327    0.0358908957
 N   -1.6744053565   -2.5128501278    1.3997902309
 C   -2.7955074244   -2.6954418046    0.4504747221
 C   -4.0405268086   -1.9325231405    0.7486608440
 O   -5.1341600632   -2.2832754488    0.3848256881
 H   -0.1185840205    1.8134402507    0.2680995332
 H    0.6856441367   -0.6658052413   -0.7888887989
 H    0.4931589518   -0.2853209176    0.9397241188
 H   -1.9289184327   -0.0243788069    0.6564295781
 H   -1.4927635827    0.6467507853   -1.6519928935
 H   -0.9119380976   -2.6133817457   -0.6565690066
 H   -1.1918426415   -3.3955836628    1.5403800151
 H   -2.9796415349   -3.6818231104    0.0324005858
 H   -3.8881228643   -1.0132095490    1.3534206046