17

 C   -0.1596153666    1.5498526031   -0.1338035751
 C    0.0273428705    0.0267242644   -0.0133318436
 O    0.7460291263   -0.1713317180    1.2078851078
 C   -1.2815014205   -0.6521706062    0.0444898314
 C   -2.3424350909   -1.2111881381    0.1189359941
 C    0.7910887430   -0.4989527615   -1.1602710528
 C    1.4347889124   -0.9196107843   -2.0877497390
 C    2.1883000372   -1.4852874961   -3.2070349149
 O    1.4097981808   -2.3229299246   -4.0482590349
 H    0.8225260123    2.0265900370   -0.1597802114
 H   -0.7078093134    1.7948118962   -1.0448386107
 H   -0.7146100897    1.9104310191    0.7348068361
 H    0.8743171585   -1.1204073876    1.3181852943
 H   -3.2818347120   -1.7032108964    0.1811952619
 H    2.5644764191   -0.6824221674   -3.8506588290
 H    3.0710686403   -2.0151850562   -2.8140274849
 H    0.9628885328   -2.9639612934   -3.4855796694