14

 O   -0.6920569518    1.2336430328    0.4401189835
 C    0.4731415421    1.0277396043    0.6454885506
 C    1.5635744914    1.9534746543    0.0935115443
 O    2.5493030314    1.4304643990   -0.3785799694
 C    1.2798265261    3.4257679869   -0.0136751761
 C    2.4281815317    4.2795814750   -0.4903630772
 N    1.3065353383    4.0299299531   -1.3698807012
 C    0.3358551972    4.0439100474    0.9644264010
 O    0.1675990451    3.6032946924    2.0733231281
 H    0.8654605570    0.1038659074    1.1149173090
 H    2.5056914161    5.2951958912   -0.1130483992
 H    3.3621402890    3.7489631783   -0.6501667729
 H    1.5455082659    3.3085083081   -2.0482735035
 H   -0.1552677598    4.9697736998    0.5993278029