19

 C   -0.7443464366    1.5092732777    0.3849922607
 C   -0.1918674520    0.1220997454    0.1057113191
 C   -1.2709418194   -0.8815836319   -0.2737095008
 O    0.8401184365    0.1716156699   -0.9317339718
 C    1.8498719513   -0.3528147648   -0.0571851817
 C    3.0199845515    0.6018584768    0.1225981229
 O    4.1169683007    0.2492520917    0.4643522767
 C    0.8621718616   -0.4142926597    1.1326580736
 O    1.2513681873    0.4340121311    2.1836724714
 H    0.0440424361    2.1846338792    0.7218995430
 H   -1.1907622873    1.9150391192   -0.5280387246
 H   -1.5216361431    1.4736119566    1.1560781618
 H   -1.7961970204   -0.5528110212   -1.1757342907
 H   -0.8357724425   -1.8651524631   -0.4748677655
 H   -2.0060536350   -0.9856193752    0.5320175792
 H    2.2358951899   -1.3250405164   -0.3847842229
 H    2.7716821262    1.6614138949   -0.1050360955
 H    0.6523216294   -1.4291735026    1.4902373493
 H    0.6429454961    0.3209877024    2.9201591958