18

 C    0.0106178615    1.4799934320   -0.0584288307
 C   -0.0173632812   -0.0221647295    0.0471011686
 C   -0.8745287025   -0.6976692728    1.0836341802
 C    0.6456444516   -0.7306695442    1.2034987766
 C    1.4022245956   -2.0146660321    0.8830353939
 O    1.6879830570   -2.1395716317   -0.5084410685
 C    0.5467827279   -1.9196445831   -1.2788648055
 O    0.1112209757   -0.5799704442   -1.2405316733
 H    0.9552981317    1.8144629902   -0.4979973663
 H   -0.8058146683    1.8318345704   -0.6975755406
 H   -0.1001117885    1.9397295906    0.9273429549
 H   -1.4337899309   -0.0713609678    1.7701420150
 H   -1.3717661053   -1.6274479898    0.8252781251
 H    1.0925717820   -0.1072129973    1.9711353747
 H    2.3730423848   -2.0212228429    1.3839143512
 H    0.8422998953   -2.9008710439    1.2222611821
 H    0.8077281980   -2.1213169000   -2.3197041197
 H   -0.2666189146   -2.5996136839   -0.9617989076