19

 N    0.1075158730    1.3482943138   -0.2712571676
 C    0.0356922617    0.0895322791   -0.2128887573
 O    1.1089314170   -0.7550940961   -0.2306929920
 C    0.6799476748   -2.1233226410   -0.1189938387
 C   -0.7978490684   -2.1222119702   -0.5312534136
 C   -1.2548620350   -0.7117162786   -0.1073757954
 C   -1.8150968758   -0.6598279671    1.3034305849
 C   -2.7202431062    0.4369550729    1.7079231809
 N   -3.2401594143   -0.9369955968    1.5460674499
 H    1.0819967945    1.6518094404   -0.3172786213
 H    1.3194338323   -2.7281998062   -0.7655984086
 H    0.8196335970   -2.4548480384    0.9172409408
 H   -0.8839532484   -2.2397099371   -1.6153393089
 H   -1.3684017735   -2.9213474283   -0.0533089073
 H   -1.9936615345   -0.2865791417   -0.7920359679
 H   -1.1639536917   -1.0900724840    2.0634875876
 H   -2.7097726956    0.8045031543    2.7294985272
 H   -2.9656760389    1.1852733692    0.9597639887
 H   -3.7325059880   -1.0111049641    0.6580075287