19

 O   -0.1602966938    1.5634097028    0.1717951767
 C   -0.1197638201    0.1628910271   -0.0267599780
 C    0.4487289203   -0.6524213826    1.1874661799
 C   -0.8131431547   -1.4588536029    1.5484516532
 C   -1.2902207768   -1.9173394672    0.1411154014
 C   -1.5512184789   -0.3974008603   -0.0467866918
 C   -1.9138428000   -0.3357608134    1.4816055303
 C   -3.3053192817   -0.7537783449    1.8510633996
 O   -4.0040561634   -0.1361858694    2.6175031555
 H    0.7433206124    1.8841676347    0.2505031546
 H    0.4045012638   -0.0777893742   -0.9626060130
 H    1.2879934598   -1.2990444479    0.9139429299
 H    0.7684683735    0.0194215113    1.9891920770
 H   -0.7527600077   -2.1421181315    2.3959488506
 H   -0.5498723126   -2.3892959050   -0.5125554467
 H   -2.1989484714   -2.5183411365    0.1505400683
 H   -2.2183019559   -0.0013794627   -0.8117988446
 H   -1.6900645638    0.6041209766    1.9885071286
 H   -3.6857251289   -1.6878082041    1.3805410584