20

 C   -0.0662341921    1.5042040263    0.0000212075
 C   -0.1421816654   -0.0204511411   -0.0100791530
 N    0.5281145237   -0.5842963536   -1.1677716614
 C   -0.0926709510   -0.4140838414   -2.4998138897
 C    0.3829139066   -1.8395691541   -2.8455050619
 C    0.5260419405   -2.0526569362   -1.3252591816
 O   -0.5672272039   -2.6654264156   -3.4985982045
 C   -0.1932227568   -3.3260305738   -4.6127787765
 O   -0.9328702241   -4.0397225503   -5.2185543014
 H    0.9751993515    1.8381499830   -0.0109140724
 H   -0.5684951563    1.9314768863   -0.8744331375
 H   -0.5542019326    1.9078525713    0.8920324196
 H    0.3489578813   -0.4229291814    0.8844955677
 H   -1.2015653613   -0.3429140657    0.0365568460
 H   -1.1939473757   -0.3776729416   -2.4736862789
 H    0.2861529765    0.4208968941   -3.0966839393
 H    1.3381235209   -1.8607726288   -3.3784753206
 H    1.4161144419   -2.5667068915   -0.9485957561
 H   -0.3771210799   -2.5407374346   -0.9250325715
 H    0.8606814162   -3.1307805013   -4.8925701246