17

 O   -0.0708185672   -0.1394965373   -0.1089736111
 C   -0.0002650704    1.0609494067   -0.0832311816
 C    1.2884422132    1.8539870453   -0.1107795093
 C    1.3133420280    2.8568828540   -1.2752502915
 C    2.5728264109    3.7461686172   -1.2447404985
 C    2.6304538651    4.7019830937   -2.3396939972
 C    2.6708724857    5.4940017763   -3.2510716226
 C    2.6956222575    6.4236623095   -4.3509191975
 O    3.4963947146    7.3221571810   -4.4716958278
 H   -0.9213603264    1.6892344718   -0.0402036274
 H    1.3579281238    2.4030829284    0.8400977610
 H    2.1276837884    1.1538815961   -0.1609430589
 H    1.2755432388    2.3206395792   -2.2293817081
 H    0.4238207446    3.4962736416   -1.2390611956
 H    2.6220937643    4.2893763805   -0.2915185987
 H    3.4722442725    3.1169499934   -1.2769814819
 H    1.9014244366    6.2526920325   -5.1061284634