18

 C    0.0708662160    1.4892992629   -0.0586598777
 O    1.4670553080    1.4569564175    0.2997302781
 C    1.4614251941    0.0183789396    0.4099371065
 C   -0.0013191889   -0.0521055803   -0.0628313681
 C   -1.1685459764   -0.7361939678    0.6317830267
 C   -1.8826655863   -0.9300419647   -0.6552184850
 C   -0.4692091040   -0.7851642259   -1.3443783006
 C   -0.2806038597   -2.2609622406   -0.9627568606
 N   -1.3633279461   -2.1199442449    0.0709889805
 H   -0.5375848941    1.9843916584    0.7103430919
 H   -0.0999923004    1.9867300081   -1.0219697911
 H    2.2028974767   -0.4504731830   -0.2508201988
 H    1.6417943328   -0.3165274716    1.4401385672
 H   -1.5636908649   -0.5588152787    1.6240508360
 H   -2.9100993075   -0.7946319339   -0.9644918551
 H   -0.2321738685   -0.3843440362   -2.3287425853
 H   -0.6265410357   -2.9604055512   -1.7276331572
 H    0.6966425450   -2.5810145377   -0.5808885073