21

 C   -0.0115821156    1.5469385850    0.0139034450
 C    0.0316630247    0.0452550792    0.0033151720
 C   -0.8625190229   -0.8264734505    0.8333590225
 C    0.6271104785   -0.9590281971    1.0124437772
 C    1.3146163268   -1.7517702527   -0.1300713763
 C    2.8103978509   -1.9239785904   -0.0035320760
 C    0.4795465407   -2.8495823562   -0.8308389514
 O   -0.1633227938   -1.8689583077   -1.6874024258
 C    0.6472897711   -0.7989417958   -1.1420884681
 H    0.9460910027    1.9823880493   -0.2943211175
 H   -0.7825600935    1.9261885647   -0.6681096561
 H   -0.2414127182    1.9262656341    1.0151862767
 H   -1.3657328707   -0.3113769120    1.6463255393
 H   -1.4557370507   -1.6047459706    0.3657929881
 H    1.0999704860   -0.7604800458    1.9686252394
 H    3.0588576683   -2.6457097396    0.7841100987
 H    3.2508974443   -2.2836856676   -0.9394222132
 H    3.2947150173   -0.9762168502    0.2566270947
 H    1.0770958354   -3.5561422067   -1.4215735402
 H   -0.2400022838   -3.4076614062   -0.2204721494
 H    1.1947602124   -0.2445369932   -1.9107027396