17

 N   -0.0607856488    1.4999147375    0.1299308920
 C   -0.0007954849    0.0469175379   -0.0254104535
 C   -1.3402988154   -0.5386937208    0.0743028820
 C   -2.4461563427   -1.0015556840    0.1378428720
 C    0.6747592259   -0.4155830153   -1.3088694134
 N    1.0852634375    0.3460419601   -2.2359667145
 C    1.6968399381   -0.5296041423   -3.2492017937
 C    1.5131554702   -1.9652218008   -2.6894340869
 O    0.8656901240   -1.7546311881   -1.4122604060
 H    0.8628885341    1.8732911126   -0.0761686020
 H   -0.6617825868    1.8721856801   -0.6010140713
 H    0.6049440669   -0.3579034346    0.7989519761
 H   -3.4216251186   -1.4160344448    0.2047868238
 H    1.1988522616   -0.3888515502   -4.2137571799
 H    2.7500433007   -0.2621009459   -3.3851695656
 H    0.8613887931   -2.5935478134   -3.3026436775
 H    2.4529633750   -2.4947259080   -2.5125169717