17

 C    0.0667411868    1.3688532083   -0.1057183294
 N    0.0326121587   -0.0789319337   -0.1368252709
 C   -1.0990492701   -0.6573609867   -0.0025209957
 N   -2.3422107855   -0.0362769461    0.1013032826
 C   -1.1790949316   -2.1223058960   -0.0192639622
 C   -2.2242240563   -2.9866401466   -0.2007598625
 C   -1.6779933266   -4.3043114272   -0.1253986540
 C   -0.3460417218   -4.1385584737    0.0953184883
 O   -0.0291893998   -2.8246095658    0.1624590544
 H    1.1062408641    1.7064426373   -0.1071263419
 H   -0.4265120113    1.8155120446   -0.9831181286
 H   -0.4142304825    1.7967139546    0.7918561644
 H   -2.3189756989    0.9493944610    0.3122098757
 H   -3.0386709309   -0.5351963333    0.6340382847
 H   -3.2492808173   -2.7184139886   -0.4029932151
 H   -2.2031547163   -5.2406937425   -0.2279611498
 H    0.4760701293   -4.8230004553    0.2258960801