19

 O    0.2543292663    1.3611640949    0.1050434557
 C    0.0410949938   -0.0127791733    0.0251433901
 C   -0.4628556114   -0.8275553809    1.1895362936
 C   -1.3402873215   -0.6235905402   -0.0373443814
 C   -2.5857196785    0.2257588170    0.0268916579
 O   -2.3789200405    1.2676971420    0.9665482824
 C   -3.1546312701    0.6264399482   -1.3622289427
 O   -4.2183101318   -0.3372958267   -1.2373592190
 C   -3.9128457569   -0.5688756185    0.1511442141
 H   -0.5196125604    1.7436450522    0.5407851422
 H    0.8015239829   -0.4649881873   -0.6040732618
 H   -0.0463168521   -1.8117819331    1.3754090702
 H   -0.7441451175   -0.2752057720    2.0793855188
 H   -1.4655413591   -1.4731856469   -0.7032135298
 H   -3.1505137162    1.8439468582    0.9652569359
 H   -3.5307024622    1.6606361660   -1.3986141923
 H   -2.5215403127    0.4432265650   -2.2363362386
 H   -3.8423390150   -1.6342133150    0.3944402703
 H   -4.6404154370   -0.0901874796    0.8244194241