17

 C   -0.3900398055    1.3734124700   -0.6284978234
 O   -0.3369145925   -0.0452418282   -0.8535892100
 C    0.8787734575   -0.6016095691   -0.7611991636
 O    1.8912640169   -0.0066373924   -0.5142936735
 C    0.7839369649   -2.1261800861   -1.0131860795
 C    2.1511978376   -2.7779126937   -0.7764772860
 N   -0.1970358119   -2.6622653606   -0.0624692388
 C    0.3709569226   -2.3299001470   -2.4254486603
 N    0.0225246493   -2.5271399670   -3.5103228789
 H   -0.0496416200    1.6101498018    0.3821307811
 H    0.2422333210    1.8945759784   -1.3505497065
 H   -1.4346492867    1.6531067341   -0.7588871626
 H    2.4435715118   -2.6161094347    0.2620107162
 H    2.0901868240   -3.8517365227   -0.9725499894
 H    2.9060992156   -2.3414080158   -1.4313061967
 H   -1.1026862201   -2.2332547238   -0.2250873758
 H   -0.3021658746   -3.6617380632   -0.2113516522