22

 C   -0.2097738196    1.4941609638    0.0414075026
 C    0.1320714420    0.0070661781    0.0302256710
 C    0.9556151179   -0.4588926729   -1.1848663112
 C    1.5295188294   -1.8101239025   -0.7364805897
 N    1.6770559647   -1.6496846031    0.7119392335
 C    1.0025800604   -0.4495562953    1.2122122663
 C    2.3066359328   -2.5021457385    1.5707130202
 C    2.9385049576   -3.7382395975    0.9474626435
 O    2.3585336708   -2.2774146283    2.7702710801
 H    0.6996861336    2.1052147284    0.0146831208
 H   -0.8218657880    1.7654630130   -0.8247614980
 H   -0.7689972750    1.7675714302    0.9421069225
 H   -0.8000851029   -0.5735692971    0.0513302318
 H    0.3677730750   -0.5381326916   -2.1029233454
 H    1.7709465855    0.2508317349   -1.3706130132
 H    0.8375095451   -2.6302862042   -0.9774437029
 H    2.4860825337   -2.0373841027   -1.2176778884
 H    1.7371797678    0.3214221273    1.4854000494
 H    0.4334931370   -0.6841940783    2.1149708570
 H    2.2139324949   -4.3151284331    0.3634726920
 H    3.7582760545   -3.4658239033    0.2737769634
 H    3.3319310730   -4.3583343375    1.7522187645