14

 C    0.3082298945    1.6479798513    0.1342410999
 C    1.0949944023    0.4998930797   -0.3721799064
 N   -0.2804340396    0.3026616447    0.1496820034
 C   -0.3860260034   -0.3053771048    1.4016996715
 N    0.0330641569    0.1179050269    2.5824250394
 C   -0.3661376488   -0.8827599121    3.4176882793
 N   -0.9980170327   -1.8890367059    2.8396819819
 N   -1.0033798624   -1.4965453110    1.5395094749
 H    0.5915254064    2.0637791244    1.0952630339
 H   -0.1655563314    2.3311483220   -0.5634836436
 H    1.2010121593    0.3266677032   -1.4382143508
 H    1.9095436632    0.1409441034    0.2498320056
 H   -0.1864179465   -0.8654949595    4.4824022763
 H   -1.4460237380   -2.0561784223    0.8294851746