22

 C   -0.0212409618    1.5180862730    0.0607700782
 C    0.0190948361   -0.0165432907    0.0321142464
 C   -1.4208343078   -0.5349388305   -0.0918575963
 C    1.0043746382   -0.6086141195   -1.0400743745
 N    2.0166637463   -1.3600231950   -0.2256019380
 C    2.2580811758   -0.3586193772    0.8807511765
 C    0.7659796548   -0.6165677187    1.2533667538
 O    0.1675203479   -0.2984647659    2.4680036802
 C    1.1000220002   -2.0557764758    0.7546501764
 H    0.9734719208    1.9667625645    0.1273574248
 H   -0.4942433498    1.9044154810   -0.8485819293
 H   -0.6039137710    1.8695639054    0.9181316930
 H   -1.8902442246   -0.1438749189   -1.0010486696
 H   -1.4756158207   -1.6257940000   -0.1393010729
 H   -2.0203115530   -0.2076191897    0.7634789485
 H    0.5140101051   -1.2979475001   -1.7329131265
 H    1.5116027304    0.1644578367   -1.6238113452
 H    2.9661802993   -0.7674988286    1.6076541363
 H    2.5857240489    0.6307003614    0.5550938999
 H    0.6767052106   -0.6989747838    3.1798820623
 H    0.3249554808   -2.6824760206    0.3088985600
 H    1.6890583035   -2.6390793570    1.4686329260