17

 C   -0.0921732262    1.3542716836   -0.3042341097
 O   -0.1099851780    0.0407839870    0.2324164188
 C   -1.3895805184   -0.6081691606    0.1702000395
 C   -1.2395542441   -1.8617653767   -0.6928629439
 O   -0.6853050396   -1.5569465707   -1.9577460028
 C   -1.8317462622   -0.9144221761    1.6018522782
 O   -1.8121162774    0.2460634109    2.4099130314
 H    0.9290930466    1.7295748287   -0.1955030073
 H   -0.3642930018    1.3588932000   -1.3682004803
 H   -0.7781189994    2.0200925768    0.2363587114
 H   -2.1142445019    0.0705373919   -0.2970359765
 H   -0.6235279789   -2.6010366963   -0.1558555078
 H   -2.2208368790   -2.3132011899   -0.8725902476
 H    0.1606672023   -1.1337615496   -1.7704780144
 H   -2.8602107238   -1.2902755859    1.6046373360
 H   -1.1855093121   -1.7024935177    2.0210207993
 H   -0.9059990458    0.5728428244    2.3654216857