18

 O   -0.0074307231    2.4215021333   -0.0133373847
 C    0.3182335800    1.6411228386    0.8571344003
 N    1.4800465747    0.9330399779    0.8812140341
 C    2.5199358653    1.1426148376   -0.1053195936
 C    3.5886945890    2.1598218903    0.3464820400
 O    4.4341667918    2.4430817205   -0.7571944630
 C    4.1962675525    3.7939184692   -1.1615816217
 C    2.9444874080    4.1989625047   -0.3743232986
 O    3.0372633060    3.3725766822    0.7846192869
 H   -0.3282477993    1.4021101014    1.7240624458
 H    1.6703033410    0.3643761505    1.6906780401
 H    3.0123596227    0.1945157755   -0.3428930553
 H    2.0360982848    1.5119553418   -1.0111087863
 H    4.1853127092    1.7550393840    1.1759454506
 H    5.0621420722    4.4134758020   -0.8955566431
 H    4.0536264622    3.8287670740   -2.2458596544
 H    2.9482629299    5.2410300725   -0.0490520545
 H    2.0164135732    3.9918770040   -0.9204681927