10

 O   -0.0795236974    1.4306641970    0.0104297880
 C    0.0430891620    0.0223760031    0.0016466347
 C   -1.3891381420   -0.5276947647    0.0124152178
 C   -1.4204543733   -1.9862580193    0.0046644278
 N   -1.4253842524   -3.1415816619   -0.0016329723
 H    0.8026315794    1.8134323925    0.0049298030
 H    0.5681447054   -0.3412903062   -0.8934650028
 H    0.5852102579   -0.3509125828    0.8825060666
 H   -1.9107506213   -0.1558944198    0.9005338526
 H   -1.9277365483   -0.1461444079   -0.8613218354