14

 N   -0.0877053382    1.3623813833   -0.0501607470
 C    0.0167373371    0.0118099825   -0.0223434114
 N   -1.1529267605   -0.6557487730   -0.0218445580
 C   -1.0890746392   -1.9787597524   -0.0108965043
 N    0.0044813368   -2.7533972298    0.0047199383
 C    1.1540845338   -2.0833918323    0.0013033290
 C    1.2494314324   -0.6899808962   -0.0159663217
 C    2.5729314601   -0.0511707176   -0.0359388581
 O    3.6246264405   -0.6507681114   -0.0065654690
 H    0.6975467235    1.9636167078    0.1185617545
 H   -1.0141032652    1.7440442327    0.0490845684
 H   -2.0445344159   -2.4994532255   -0.0118320986
 H    2.0747483046   -2.6610476519    0.0099395941
 H    2.5751765503    1.0617345638   -0.0885760762