20

 C    0.2200859625    1.5872554549   -0.1699785931
 C    0.0029550691    0.0861109105    0.0217156215
 O   -1.3752465397   -0.2249667702    0.1746175893
 C    0.6860378983   -0.7230458868   -1.1009614144
 O    2.0550471872   -0.7572891194   -0.7350225139
 C    2.1182681357   -0.9387179865    0.6833028663
 C    0.7738727557   -0.4669618985    1.2351730776
 C    0.5271323035    0.0083835280    2.6128531182
 N    0.0944544464   -1.3382218262    2.1963406479
 H    1.2831193704    1.8018529613   -0.3083927030
 H   -0.3064086510    1.9411482746   -1.0659767634
 H   -0.1416972202    2.1531722488    0.6928460641
 H   -1.8899881577    0.3935266657   -0.3518043017
 H    0.2388615842   -1.7289105275   -1.1385566077
 H    0.6143192283   -0.2621127852   -2.0905518841
 H    2.2694423108   -1.9953080992    0.9420018343
 H    2.9712616292   -0.3596886736    1.0516727196
 H    1.3375556048    0.0310408366    3.3374078047
 H   -0.2336620206    0.7718358692    2.7610167594
 H   -0.9044918372   -1.3188239366    1.9972848484