18

 C   -0.5739960682    1.4098210236   -0.0139614961
 C   -0.0565915736   -0.0149833868   -0.0046451238
 O    1.1169923310   -0.1772996662   -0.8447781295
 C    1.9396830082   -0.6046531067    0.2444193541
 C    3.0909865869    0.3288590591    0.5559030983
 O    3.2297675911    1.4283756441    0.0905580663
 C    0.7457105310   -0.4950322251    1.2107991318
 C    0.6418843911   -0.1007208668    2.6303410288
 N    0.3869430244   -1.4911460784    2.1974056863
 H    0.2208143408    2.1050245457    0.2674104513
 H   -0.9249250897    1.6726273761   -1.0165111642
 H   -1.4152757749    1.5216979212    0.6792638653
 H   -0.8430957483   -0.7216519852   -0.3075091843
 H    2.3161023730   -1.6305445670    0.1238250525
 H    3.8085890006   -0.0892649219    1.3008447861
 H    1.5319002736    0.0317488273    3.2390011209
 H   -0.1987334074    0.5254799694    2.9188723775
 H   -0.6117195697   -1.6856692124    2.1659950088