15

 O   -0.0680609709    1.4034705160    0.1158048307
 C    0.0319270002    0.0363938431    0.0770867890
 C   -0.2646003845   -0.7653578432   -1.2125698832
 C    0.5226348357   -2.0156773227   -1.4766922798
 C    0.4977120698   -2.7878196492   -0.3887216001
 C   -0.2416043616   -2.0626306719    0.7193503106
 C   -1.1217636784   -0.9969287069   -0.0052927356
 C    0.6317959169   -0.8315681193    1.1420823666
 O    1.2948960330   -0.5995376613    2.1125794069
 H    0.6241876613    1.7840694158   -0.4355336162
 H   -0.6382883436   -0.1370070091   -2.0146262525
 H    1.0394866181   -2.2119691002   -2.4066477132
 H    1.0183126551   -3.7245268078   -0.2411457168
 H   -0.6518124839   -2.6503482383    1.5382687474
 H   -2.1802987671   -0.8092067449    0.1113466663