15

 O    0.4370586429    1.6248580706    0.3105662534
 C    0.2140751126    0.4381164376   -0.3975843942
 C    1.2635334845    0.3264675251   -1.5222073259
 O    1.0844375841   -0.8570948643   -2.3140505972
 C    0.1928218222   -0.7953065038   -3.3195668858
 N   -0.5232901854    0.2173870735   -3.5616607328
 C    0.2790187212   -0.7555797226    0.5326964952
 O    0.4759859280   -0.6172226974    1.7172304845
 H    0.5694648918    1.3537413849    1.2335455952
 H   -0.7810177921    0.4390116770   -0.8715721475
 H    1.1936508656    1.2168990524   -2.1493286094
 H    2.2651185047    0.2479751843   -1.0937705446
 H    0.2075474702   -1.7452251454   -3.8618506292
 H   -1.1155540055    0.0555966663   -4.3724349690
 H    0.1420307252   -1.7531229683    0.0745715072