20

 O    0.0662012617    1.2553597944   -0.6083477467
 C    0.0337300668    0.1551477866    0.2849034670
 C   -1.3402643336   -0.4691303319    0.3384011259
 N   -1.7266583611   -1.1514547348   -0.9275507832
 C   -1.5645647849   -1.9314619260    0.2982447547
 C   -0.5939068364   -3.1315225332    0.3725134146
 C   -1.7123016837   -3.9371100689    1.0557352747
 C   -2.1714362206   -3.2386013274    2.3028231224
 C   -2.6606053280   -2.7356940851    0.9683022100
 H   -0.2657156277    0.9152590660   -1.4481586976
 H    0.7717431138   -0.6105857578    0.0011788029
 H    0.3170770183    0.5442653068    1.2687540048
 H   -2.1051371333    0.1362750687    0.8225602319
 H   -2.7152001794   -1.0024040174   -1.1181719593
 H   -0.3486541507   -3.4899991477   -0.6295119373
 H    0.3295083289   -3.0050691432    0.9473162579
 H   -1.9308222723   -4.9809120180    0.8697702408
 H   -2.9098468438   -3.7717015761    2.8934687088
 H   -1.4759327467   -2.6427585942    2.8895485173
 H   -3.7133011172   -2.7021438608    0.7099845703