19

 C   -0.0757726673    1.5706872114    0.0014465038
 C   -0.1445045629    0.0468935171   -0.1159005500
 C    0.8179189740   -0.5097404631   -1.1831425463
 C    0.7760964533   -2.0130819339   -1.2537550200
 N    1.3212511480   -2.6841024154   -0.2270442492
 C    1.2628587017   -4.0131178887   -0.2791019923
 N    0.7230909263   -4.7654820898   -1.2402011030
 C    0.1843517609   -4.0876178668   -2.2569828362
 C    0.1833657951   -2.7003632552   -2.3138032333
 H    0.9316727042    1.9013071504    0.2769435219
 H   -0.3358421428    2.0562144341   -0.9458648796
 H   -0.7678603163    1.9390705484    0.7648613241
 H    0.1011694397   -0.4192045934    0.8443204411
 H   -1.1687828752   -0.2624404608   -0.3593124504
 H    0.5754794304   -0.0835488900   -2.1631364273
 H    1.8402747097   -0.2038646520   -0.9325618152
 H    1.7089821708   -4.5474879342    0.5570728014
 H   -0.2603714994   -4.6799092142   -3.0540295625
 H   -0.2583711501   -2.1720423538   -3.1511963570