18

 C    0.3361724173    1.2217454452   -0.8230204247
 C    0.0193590032    0.2591141741    0.3064682427
 O    0.8343190188   -0.0327082151    1.1520792481
 C   -1.3847298421   -0.2844778111    0.3101797091
 N   -1.6022100073   -1.6046875580    0.9350168497
 C   -2.1868733395   -0.4408950649    1.5754029586
 C   -1.6492052081   -0.0652796199    2.9485206082
 C   -2.3845952768   -0.7416658444    4.0113375242
 C   -3.0132449416   -1.3002739183    4.8699613897
 H   -0.3801339225    2.0516528381   -0.8325318761
 H    1.3491451640    1.6080982198   -0.7085108248
 H    0.2429409409    0.7124568109   -1.7896503571
 H   -1.9641111137   -0.0446502260   -0.5793628027
 H   -2.2969868675   -2.1259309079    0.4071834342
 H   -3.2578008383   -0.2800001555    1.4582376135
 H   -0.5869899755   -0.3209504700    2.9861712778
 H   -1.7256880848    1.0216657349    3.0837726652
 H   -3.5505525065   -1.7969370019    5.6391301844