20

 C    0.0079997750    1.5783964952    0.0646373345
 C    1.4875767817    1.8637042752   -0.0652361974
 C    2.4943833561    0.8805701853    0.4530544632
 C    2.0765286549   -0.4845809413    1.0486155981
 C    0.5825007720   -0.4441714172    1.3950026315
 C    0.0056338440    0.0455598503    0.0359189244
 C    1.1601288848   -0.3084980151   -0.9832426767
 C    2.0229063942   -1.3423042840   -0.2437129639
 N    2.0867088626    0.8766161973   -0.9866903421
 H   -0.4512387965    1.9834646919    0.9716444497
 H   -0.5126178847    2.0126293118   -0.7977579826
 H    1.8084013078    2.8919472032   -0.2170053129
 H    3.5018665800    1.2364934427    0.6514468229
 H    2.7382817976   -0.8312198945    1.8432268790
 H    0.2237126052   -1.4415684731    1.6690535122
 H    0.3383349782    0.2395926992    2.2132604479
 H   -0.9614364351   -0.3900178309   -0.2183740090
 H    0.8358418600   -0.5471410621   -1.9962703123
 H    2.9925074662   -1.4814854442   -0.7271818550
 H    1.5432202758   -2.3147573397   -0.0962081915