15

 O   -0.0549015897    1.4135845376    0.0070978670
 C    0.0111885106   -0.0017451883    0.0017501822
 C   -1.3871173572   -0.5334605287    0.0121063734
 C   -2.5251742655    0.2019723796    0.0236720771
 O   -3.6267011551   -0.6142112366    0.0307143109
 C   -3.1837466482   -1.8803977751    0.0235513530
 C   -1.8143989258   -1.9154628968    0.0118650611
 C   -0.9971508972   -3.1275789927    0.0016239726
 O   -1.4381748944   -4.2563935709    0.0022050790
 H    0.8427767099    1.7571739249    0.0007393366
 H    0.5449187266   -0.3746405482   -0.8881751919
 H    0.5603261153   -0.3806506653    0.8796731299
 H   -2.7177392374    1.2597122907    0.0282521628
 H   -3.9270572317   -2.6600977412    0.0276965841
 H    0.1016358798   -2.9490800691   -0.0071377778