17

 O    0.1256027596    1.2216275566    0.1547038615
 C    0.0512856708   -0.1775532915    0.1167543437
 C   -1.3577254338   -0.6421432001   -0.2152045811
 N   -2.1746541399    0.2372107698   -0.6340197356
 N   -1.7135880427   -2.0003581801    0.0279669211
 C   -3.0166952030   -2.2664717481    0.4769404509
 N   -3.4922981478   -3.4411959644    0.5283251654
 C   -0.8410966002   -3.0868076231   -0.1436154769
 N    0.3042184759   -2.9655139110   -0.6724931284
 H   -0.6963446651    1.5382284612   -0.2508498374
 H    0.7359521067   -0.6053501486   -0.6251344553
 H    0.3452029828   -0.5990762523    1.0884652268
 H   -3.0884405880   -0.1287932581   -0.8919557197
 H   -3.5280384110   -1.3555796489    0.7970228243
 H   -4.4207848636   -3.4309142864    0.9444783677
 H   -1.3005040363   -4.0072714518    0.2165926945
 H    0.7770344358   -3.8671019131   -0.6876724116