16

 C   -0.0563066127   -1.2103365926   -0.0839151244
 C   -0.0158380410   -0.0108256824   -0.0180548234
 C   -0.0202499507    1.4344704410    0.0057020641
 C   -0.0509849370    2.0909363336    1.4254950562
 N    1.4167374890    1.7535245509    1.5035008009
 C    1.3865657443    2.1181155566    0.0405256499
 C    1.0211375819    3.6294901653    0.0758540862
 O   -0.3350345287    3.9585407558   -0.2715182313
 C   -0.0317912152    3.6095811591    1.0902509820
 H   -0.0794095425   -2.2706873317   -0.1292163629
 H   -0.7228755277    1.8476771475   -0.7154924690
 H   -0.6989581928    1.7334383663    2.2240685226
 H    1.9413036367    2.4318872710    2.0612969737
 H    2.2154586487    1.7885426221   -0.5837442370
 H    1.7592705643    4.4112823595   -0.0695702833
 H   -0.2197818763    4.3738618680    1.8370588859