17

 C    0.7020175055    1.4277953171   -0.1203917550
 C    0.0069218691    0.0616242458    0.0453669605
 N    0.2246658441   -0.8561077789   -1.0694218880
 C    1.4190170902   -1.5344982399   -1.2440768097
 O    1.8218612263   -1.9184676497   -2.3243344602
 N    2.1060090235   -1.7365876589   -0.0577571429
 C    1.3951141530   -1.7841123828    1.2092729135
 C    0.4607706900   -0.5883098353    1.3544422430
 O    0.0999186892   -0.1779616440    2.4280388688
 H    1.7847541041    1.3035889306   -0.2136207042
 H    0.3342356065    1.9299554860   -1.0199622460
 H    0.4913110692    2.0605878994    0.7456999125
 H   -1.0712669307    0.2257568194    0.1439165083
 H   -0.1919471829   -0.5977541487   -1.9523358025
 H    2.8817468563   -2.3718119383   -0.1722232880
 H    0.7753609662   -2.6907003930    1.3187542929
 H    2.1028094107   -1.7707115588    2.0412619172