16

 C   -0.3462289492    1.3921226710    0.1442732105
 C    0.1691401252   -0.0156019339   -0.1568868788
 O    1.1335351386   -0.0210085540   -1.2028780624
 C    0.8791435983   -0.6079892656    1.0393190122
 N    0.0366773587   -1.1161573657    2.1162078011
 C    0.8558168752   -2.0731916332    1.3407140632
 C    0.1388419995   -3.0125099404    0.5116669831
 N   -0.4141466694   -3.7746771213   -0.1589221204
 H    0.4832991831    2.0590301890    0.4010547826
 H   -0.8596653575    1.8079648609   -0.7294524306
 H   -1.0575698633    1.3701400588    0.9750756002
 H   -0.6820945904   -0.6663277410   -0.4045088110
 H    0.7113949179    0.3138836393   -1.9999182633
 H    1.8067767441   -0.0990739740    1.2981519342
 H    0.4619169747   -0.9640582500    3.0265945600
 H    1.7418655146   -2.4935216299    1.8082362593