14

 N    0.0373861771    1.3090468363    0.0667814136
 C    0.0248826111    0.0504524432    0.0072762582
 O   -1.1193756210   -0.6241579090    0.2491388099
 C   -1.1012276620   -2.0322271054    0.1750082029
 C   -1.7485003844   -2.7729384218    1.3610086372
 O   -2.6099251545   -3.5057877132    0.4653339486
 C   -2.2330565052   -2.6732345657   -0.6509926159
 H    0.9703995087    1.6584806717   -0.1404544772
 H    0.8744438523   -0.6055330541   -0.2297989582
 H   -0.1011494890   -2.3943051140   -0.0837941658
 H   -1.1096434826   -3.4333307357    1.9569293553
 H   -2.3056460463   -2.0970272605    2.0220477259
 H   -3.0143011286   -1.9512339703   -0.9204516602
 H   -1.9495943656   -3.2604997013   -1.5308493543