20

 C   -0.1143516291    1.5297897329    0.1339606517
 C   -0.0588799101   -0.0017924563    0.0052948517
 C    0.8728065796   -0.6275544764    1.0509927075
 C   -1.4435313527   -0.5764349264    0.0734906243
 C   -2.2817146198   -0.9737911131    1.2359045513
 C   -2.0240786941   -1.9779982722    0.1001154674
 C   -2.8045390565   -1.5297949981   -1.0862453136
 N   -3.5598709478   -2.0835336376   -1.9189189878
 O   -2.3483944151   -0.2124991043   -1.0219349157
 H    0.8810525073    1.9623530313   -0.0058602354
 H   -0.7842502413    1.9605968646   -0.6147408681
 H   -0.4762039208    1.8253469590    1.1248246216
 H    0.3287592851   -0.2458148360   -0.9927756061
 H    0.9137800869   -1.7172372518    0.9561993349
 H    1.8888151778   -0.2421507239    0.9265669423
 H    0.5507760421   -0.3835977110    2.0690234891
 H   -1.7537106075   -1.2128461043    2.1535637243
 H   -3.2689877314   -0.5423912436    1.3672212715
 H   -1.5755103317   -2.9473472078    0.2589919295
 H   -3.8729570809   -1.4188110150   -2.6283772504