23

 C    0.1842065959    1.6678571974    0.0095187436
 C   -0.0598120479    0.1502063522    0.0033566647
 C    0.5223271396   -0.4530098542   -1.3082930553
 C   -0.0448057952   -1.7729170509   -1.7795806881
 C    0.2028354136   -2.9734571841   -1.2568991112
 C    1.0488954504   -3.2079636075   -0.0243280811
 C    0.2239829368   -2.9869371792    1.2249553730
 C   -0.0146065290   -1.7921678291    1.7647888504
 C    0.5445328874   -0.4671657701    1.2982701231
 H    1.2580090227    1.8922997431    0.0015905220
 H   -0.2601476145    2.1464407875   -0.8692901008
 H   -0.2450687172    2.1368288235    0.9009142643
 H   -1.1428700932   -0.0232090465    0.0116412085
 H    0.3677589415    0.2806648909   -2.1069846390
 H    1.6119071999   -0.5317930786   -1.1884673861
 H   -0.7208348465   -1.7179859274   -2.6305065426
 H   -0.2812021425   -3.8465170603   -1.6887705524
 H    1.4582703948   -4.2229983914   -0.0333294461
 H    1.9020209243   -2.5182916042   -0.0278513024
 H   -0.2527041911   -3.8646814323    1.6555052837
 H   -0.6760320076   -1.7465459515    2.6276576280
 H    1.6319066335   -0.5445388742    1.1590522314
 H    0.4036587844    0.2577760869    2.1074004322