13

 O   -0.3235037885    0.4250294696   -0.7648144108
 C    0.1086448260    1.0426844966    0.1803367852
 C    1.2953314175    1.9433429160    0.0969059949
 C    2.3951755434    1.5447509190   -0.9059437097
 C    1.5136884571    2.6750880039   -1.2414237202
 C    1.7248724770    2.6444881745    1.3305890605
 O    1.1846239315    2.5419157989    2.4043058445
 H   -0.3523016258    0.9809874714    1.1837109980
 H    3.4180966540    1.7423447063   -0.6040193092
 H    2.2180291202    0.5940626082   -1.3950085377
 H    0.7228804222    2.5113028306   -1.9640373764
 H    1.9023968715    3.6859328151   -1.1808631352
 H    2.6173913539    3.2997542198    1.1933240961