19

 C    0.3202175514    1.5962797037   -0.4432229132
 O   -0.3295184582    0.3453791911   -0.4332385687
 C    0.4503070189   -0.6875245943   -0.9685949293
 C    1.6143997368   -1.2661593556   -0.0973110670
 C    1.0850089116   -2.6595198577   -0.4580546178
 C    1.8658658757   -3.7643841785   -1.0548269093
 N    1.2321211345   -3.9085837417    0.2752189401
 C   -0.2427883201   -2.0684166551   -0.9400319365
 H    1.2355358120    1.5906278951    0.1679149633
 H    0.5916673032    1.9051256292   -1.4652425023
 H   -0.3755817142    2.3282681598   -0.0263396806
 H    0.8061643048   -0.4205376010   -1.9753753354
 H    2.6439595847   -1.0202252386   -0.3696970957
 H    1.4453412451   -1.0266633859    0.9584941550
 H    1.4305843252   -4.3853265847   -1.8339644080
 H    2.9469451228   -3.6583353674   -1.1113580016
 H    1.9321281863   -3.8049777718    1.0066955504
 H   -1.0030597496   -2.0920849403   -0.1540029246
 H   -0.6694797310   -2.4437424762   -1.8723263688