21

 C    0.0045732062    1.5659609928   -0.0355718497
 C    0.0398320576    0.0337958904    0.0153681163
 C    0.6724315164   -0.5657270059   -1.2390626356
 O    2.0152356032   -0.1711943583   -1.5652424728
 C    1.7980664250   -1.4937850449   -1.0589582145
 C    2.2036535670   -1.7718404922    0.3839659790
 C    2.2857988232   -0.4376545945    1.1723774418
 C    0.7343064586   -0.5180112676    1.2798593192
 C    0.8951182109   -2.0646844575    1.1816530206
 H    1.0151901387    1.9784156920   -0.1005298758
 H   -0.5531616982    1.9176668139   -0.9099618347
 H   -0.4780740867    1.9752921490    0.8579555511
 H   -0.9969341676   -0.3329438106    0.0341442584
 H    0.0254060731   -0.6559442459   -2.1116081333
 H    1.9698053045   -2.2872538329   -1.7852173659
 H    3.0363917070   -2.4750135072    0.4511449264
 H    2.7566029691   -0.5898219045    2.1469144670
 H    2.7364253503    0.4172825284    0.6691585568
 H    0.2635058329   -0.1108105709    2.1789367098
 H    0.1066886149   -2.6361555891    0.6807516331
 H    1.1043956141   -2.5124414142    2.1566123727