19

 O    0.0235206444    1.4148496337   -0.0254567659
 C   -0.0006687815   -0.0064001592    0.0097862062
 C    0.6537522283   -0.5458234874    1.3058686404
 C   -0.5367052333   -0.7529590282    2.2153065474
 C   -1.6825074851   -0.7417545764    1.5312768929
 C   -1.4556794664   -0.5514101884    0.0570848836
 C   -2.4892035405    0.1834961897   -0.8285569408
 O   -2.6108845534   -0.9443864704   -1.7200338265
 C   -1.7803063475   -1.7561441571   -0.8746255418
 H   -0.3872603011    1.7311018797    0.7880610226
 H    0.5244935556   -0.3182041057   -0.8965210253
 H    1.1841388668   -1.4922739543    1.1334995693
 H    1.3940635724    0.1655685440    1.6865817640
 H   -0.4445540171   -0.9244030948    3.2820350697
 H   -2.6704705888   -0.9025473717    1.9499229370
 H   -3.4405528488    0.4137741008   -0.3291478008
 H   -2.1155856846    1.0797710278   -1.3328474156
 H   -0.9297792813   -2.1911182434   -1.4156294343
 H   -2.3460977281   -2.5644011587   -0.3918186420