15

 C    0.1134279546    1.4686535184   -0.0016454507
 C   -0.0377285980   -0.0138042916   -0.0337930069
 C   -1.1652097916   -0.7279477719   -0.1158611952
 C   -1.1297816398   -2.2012424153   -0.1297215503
 O   -2.1337660149   -2.8793696174   -0.1959835707
 N    0.1483718477   -2.7782341107   -0.0549132900
 C    1.1731753895   -2.0116010213    0.0088431721
 N    2.4431731579   -2.4900401566    0.0280546355
 O    1.1820295360   -0.6469417175    0.0321405674
 H    0.7261692096    1.8124229079   -0.8421128597
 H   -0.8641447951    1.9493893621   -0.0556543783
 H    0.6153059178    1.7860508495    0.9189805001
 H   -2.1274249168   -0.2360420831   -0.1687129935
 H    2.5363317607   -3.4771682281    0.1993191553
 H    3.1819834323   -1.8810591345    0.3364583450