14

 C    0.3138742770    1.4602644344    0.0795826529
 C    0.0853016505   -0.0140332889    0.0688073277
 N   -0.0876892710   -0.6935863377   -1.0334810149
 O   -0.2623789219   -1.9978022425   -0.6566226069
 N   -0.1946614688   -2.1343073291    0.6955491295
 C    0.0147659728   -0.9349906175    1.1630592407
 C    0.1204320789   -0.6900799235    2.6419776223
 C    1.3459004708    0.0229318466    3.0099480421
 N    2.3064794688    0.6020090242    3.2853169845
 H    1.2661503200    1.7027200412    0.5607487813
 H    0.3235860724    1.8424133981   -0.9421175484
 H   -0.4757933906    1.9751712347    0.6369912298
 H   -0.7367876792   -0.1027880686    2.9938546922
 H    0.0871261405   -1.6517249413    3.1621369871