19

 C   -0.0713796568    1.4176818486   -0.2108911124
 C    1.2787373164    0.8324956570    0.0684882943
 C    0.0209211798   -0.0650774821    0.1067433155
 C    0.4979334478   -0.7413582007   -1.1391214088
 C    0.1192555112   -1.4895328503   -2.1639217679
 C    1.0574856630   -1.3962574181   -3.3526412882
 O    1.4781683529   -0.0486135406   -3.5758092603
 C    2.1953605853    0.5814094901   -2.5137220415
 C    1.8097188853    0.0163685353   -1.1332098565
 H   -0.4832335687    2.0292143421    0.5863108197
 H   -0.3493227837    1.7379643270   -1.2112073929
 H    1.8851812313    1.1679937673    0.9004346185
 H   -0.4972279284   -0.5005297700    0.9516524311
 H   -0.8117841762   -2.0424546407   -2.2292926102
 H    1.9346342269   -2.0561286653   -3.2327195652
 H    0.5518249907   -1.6938964138   -4.2753198767
 H    3.2774112994    0.4716923128   -2.6851267108
 H    1.9539578166    1.6476562258   -2.5832663746
 H    2.5992198971   -0.6551456145   -0.7750922930