17

 O   -0.2081511828    1.3792399616   -0.0315972399
 C    0.0518456246    0.0338546900   -0.0065140810
 C   -0.9279068060   -1.0964718659    0.1079716983
 C    0.1977837141   -1.0025718515   -1.0734866968
 C    1.2437661307   -1.7846825152   -0.3124892599
 C    1.1339677167   -3.0909837185    0.0024876544
 C    0.3937822630   -3.1615049572    1.3400434052
 C   -0.2197468345   -1.7152466816    1.3654955980
 C    0.9752529330   -0.8503957545    0.9012451132
 H    0.5368182924    1.8243729660   -0.4518405035
 H   -1.9740598810   -1.1132126503   -0.1731638002
 H   -0.1463681025   -1.0149549197   -2.1006765354
 H    0.9911532515   -3.8672597451   -0.7435784696
 H   -0.3328699588   -3.9820567993    1.3068966976
 H    0.9922637409   -3.3083593153    2.2507609996
 H   -0.7345012304   -1.4371743576    2.2906600722
 H    1.7754130092   -0.5104583859    1.5562098878