18

 C    0.4790733089    1.5359698218   -0.6881499655
 N    0.2311922174    0.1589105958   -0.2819019715
 C    1.3352408742   -0.6068619029    0.2677130599
 C    0.1867135965   -0.2036145400    1.1365516559
 C    0.4061932152    0.7992817670    2.2199034616
 O   -0.7410938661    1.3140649398    2.8877386621
 C    0.1664602545    0.5250081887    3.6629077774
 C   -0.3492022462   -0.7928095382    4.1443318027
 O    0.1276361637   -1.3805102142    5.0812722215
 H    1.2959187033    2.0382082349   -0.1471925351
 H    0.7372479680    1.5372289658   -1.7514151095
 H   -0.4352076127    2.1223671248   -0.5571844736
 H    1.4341354941   -1.6353630117   -0.0686719940
 H    2.2818410994   -0.0908020842    0.4337194794
 H   -0.5807481881   -0.9403760258    1.3596100809
 H    1.1711727415    1.5494578815    2.0205476546
 H    0.7689534228    1.0645422507    4.3930381727
 H   -1.2225271362   -1.1818345838    3.5786752706