13

 O   -0.3445021042    0.4316312034    0.7817866882
 C    0.2663867868    0.8277962687   -0.1708342153
 C    1.3679606455    1.8556305706   -0.0889388220
 N    2.3380222183    1.7895796057   -1.2013914173
 C    1.4462325557    2.9439525351   -1.1613196050
 C    0.4463511916    3.0766656081   -2.1836038664
 C   -0.3933399438    3.2292974023   -3.0288634892
 C    1.8260637796    2.2189804813    1.2296585849
 N    2.2331572910    2.5167419110    2.2696416486
 H    0.0866643066    0.4775201909   -1.2056077367
 H    3.2686181336    2.0367075421   -0.8720700941
 H    1.8516604475    3.8829677988   -0.7903448672
 H   -1.1351048081    3.3570904422   -3.7791052184