14

 N    0.0419819448    1.3870445355    0.1966000270
 C   -0.0391118238    0.0257100097    0.0388774322
 C   -1.1075903641   -0.8013225970   -0.0663626054
 N   -2.4669841930   -0.5321724550   -0.1362086488
 C   -0.6011379132   -2.1742604102   -0.1505865420
 O   -1.2087098025   -3.2031402527   -0.2363010774
 O    0.7962930497   -2.1336104096   -0.1059562237
 C    1.1680841498   -0.8086342067    0.0073169877
 N    2.3531790003   -0.3761049113    0.0570342840
 H    0.9798963172    1.7443794621    0.0686606896
 H   -0.6644647275    1.9303353646   -0.2789843159
 H   -2.7939890548    0.1520830114    0.5342865298
 H   -3.0147631967   -1.3829655727   -0.0837065631
 H    3.0328903636   -1.1348629881    0.0039816059