22

 C   -0.1730453047    1.3393729176   -0.0609371670
 N    0.0668065432   -0.0967757204    0.0417565583
 C    1.4907090394   -0.4544551334   -0.1188281720
 C    0.8716731197   -0.4617358396    1.2250607671
 C    1.0339011462   -2.0114964520    1.3194499188
 C    1.4589736194   -2.6946273177    2.5864615395
 C    0.3523070781   -2.6972664055    0.1591611630
 C    1.6742771097   -2.0039618544   -0.0707125744
 C    2.9162893438   -2.6774675366   -0.5771406067
 H    0.6544588377    1.9605579822    0.3236105050
 H   -0.3358648607    1.6012573324   -1.1113161669
 H   -1.0782235310    1.5925178275    0.5002759951
 H    2.1895395174    0.2471236760   -0.5592225223
 H    0.9882814734    0.2329915307    2.0486386637
 H    0.6381023976   -2.7349495467    3.3136850393
 H    1.7762381005   -3.7243410980    2.3927407786
 H    2.2973579441   -2.1733456076    3.0648178655
 H    0.4237782832   -3.7816553829    0.1862038852
 H   -0.5652431044   -2.3058128140   -0.2613861583
 H    2.9357127650   -2.7077867357   -1.6739601516
 H    3.8225646563   -2.1554493249   -0.2460670286
 H    2.9794437260   -3.7102118970   -0.2194462112