21

 C   -0.5204361134    1.3527816110    0.2064942960
 C    0.0906213632   -0.0307367361   -0.0494577502
 C    0.8688258816   -0.5595438246    1.1406702751
 O    1.9750003844    0.2295624095    1.5119679056
 C    0.1596722232   -1.2976118916    2.2556720294
 C    1.1200787177   -2.0289520152    1.3376561690
 C    0.6326894220   -3.0747992585    0.3849673550
 C   -0.1778223499   -4.2164091665    0.8343012563
 O   -0.7719845950   -3.1319882528    0.1172818684
 H    0.2538408553    2.1011527482    0.4093479005
 H   -1.0830623761    1.6994478739   -0.6650710231
 H   -1.2062492635    1.3323708294    1.0607167881
 H   -0.6983318723   -0.7426966029   -0.3053306225
 H    0.7682830046    0.0242432329   -0.9107811855
 H    1.6383234184    1.0391632111    1.9106258053
 H    0.4828719876   -1.1088229870    3.2731552749
 H   -0.8962547247   -1.5115497696    2.1272792746
 H    2.1005002650   -2.2456772079    1.7536474683
 H    1.2495858085   -3.2210370384   -0.5035213393
 H   -0.1346919200   -5.1616264660    0.2956159537
 H   -0.4561938868   -4.2842667490    1.8845851903