17

 C   -0.0162412983    1.4719755563   -0.0108844190
 N    0.0033556506    0.0264231817   -0.0016911551
 C    0.0049078230   -0.7707619898   -1.1360457693
 C    0.0025310181   -2.0874608022   -0.7351641992
 N   -0.0585995291   -3.2370824912   -1.5295902206
 C   -0.0006825131   -2.0901389130    0.7025407840
 C   -0.0050989287   -0.7605080974    1.1039407303
 C    0.0137740351   -3.2421811780    1.5158196099
 C    0.0383573491   -4.2587996659    2.1657617758
 H    0.8379534738    1.8693571894   -0.5694338639
 H   -0.9373138304    1.8527387748   -0.4661110052
 H    0.0408302119    1.8367555796    1.0160407710
 H   -0.0000363964   -0.3311459854   -2.1200541836
 H    0.4547115577   -3.1591229384   -2.3971600483
 H    0.2419105272   -4.0596847711   -1.0214997503
 H   -0.0053936196   -0.3377619502    2.0954439782
 H    0.0439298391   -5.1419450793    2.7540560753