12

 O    0.1032580460    1.3567673267   -0.0097860997
 C    0.0173357795   -0.0153176990   -0.0188550347
 C   -0.4250852821   -0.7164613582    1.2246557492
 O   -0.7170996959    0.1557759748    2.2694773544
 C   -1.3583891532   -0.7206579577    0.0014015830
 C   -2.5536525031    0.0577286716    0.0896209121
 N   -3.5178927142    0.6867253351    0.2120019439
 H   -0.1829431700    1.6477694984    0.8689960218
 H    0.7637629692   -0.4809292585   -0.6538478349
 H    0.0166745046   -1.6667099432    1.5165116784
 H   -1.6310967252    0.0322644262    2.5524579546
 H   -1.4466564556   -1.6517657762   -0.5480288880