21

 C   -0.2072921598    1.2681731984    0.0576903673
 O   -0.0124772259   -0.1290585283    0.0050588637
 C    0.6346857338   -0.6045029619   -1.1663805280
 C    2.1525084160   -0.5987503518   -0.9840870272
 C    0.0266476380   -2.0234858029   -1.4165831885
 C    0.6739294947   -2.7277216101   -2.6211182938
 N    0.0950467998   -2.9065665587   -0.2489081143
 C   -1.4075676896   -1.8080754722   -1.7239986329
 N   -2.5129754445   -1.6209675281   -2.0024215670
 H    0.7425294636    1.8224534368    0.0464293721
 H   -0.8294491844    1.6181166715   -0.7781665584
 H   -0.7236245769    1.4828204253    0.9960370415
 H    0.3660392378    0.0322172491   -2.0229735228
 H    2.4543970471   -1.2923826480   -0.1935570617
 H    2.6737825575   -0.8641920766   -1.9076417505
 H    2.4861968175    0.4010505579   -0.6931118760
 H    1.7230968122   -2.9503715865   -2.4075258972
 H    0.1557634382   -3.6677260010   -2.8191078951
 H    0.6262504439   -2.1027592910   -3.5164464003
 H    1.0562242931   -3.1993757372   -0.1024527731
 H   -0.1920990220   -2.3823997447    0.5731704121