18

 O   -0.4143610209    0.1988069690    0.2397558964
 C    0.0116510330    1.3239404630    0.1953148464
 C    1.4146485101    1.6995640690   -0.2446015795
 C    1.3967001014    2.7606643104   -1.3218797717
 C    0.9203346564    2.4087422598   -2.7268963082
 O    1.3106690704    3.5063651746   -3.5451967212
 C    2.5246086064    4.0357843331   -3.0147252421
 C    2.4241507961    3.8184868553   -1.5165422614
 N    1.1325744661    4.1457990059   -0.8991647962
 H   -0.6183949253    2.1944728699    0.4847137633
 H    1.9332039692    2.1061992547    0.6326333528
 H    1.9355717945    0.7950952573   -0.5733776612
 H    1.3931800069    1.4683667388   -3.0543871297
 H   -0.1654994142    2.2982438844   -2.8213099327
 H    3.4067710296    3.5091488131   -3.4132936158
 H    2.5819417099    5.0867164593   -3.3165919427
 H    3.3059047129    3.9216703770   -0.8922584712
 H    0.5343653876    4.6125188954   -1.5802210154