21

 C   -0.0418985679    1.5475681740    0.0087318796
 C   -0.0108917683    0.0363136405    0.0237596324
 C   -0.8391173856   -0.7136926627    1.0375578046
 C    0.6746843541   -0.7582561862    1.1203778038
 C    1.4810805188   -1.8775983295    0.4962906076
 C    0.8819685459   -3.0244358934   -0.2761022351
 O   -0.4609369951   -3.3932087841   -0.1323754305
 C    1.3173925685   -1.7899405095   -1.0240111641
 C    0.3018616413   -0.6759112458   -1.3090554213
 H    0.8917587608    1.9643660299   -0.3888671820
 H   -0.8628460366    1.9257703147   -0.6131984423
 H   -0.1848306078    1.9495063186    1.0170191193
 H   -1.3394812596   -0.1088693968    1.7887186844
 H   -1.3693528046   -1.6074452151    0.7460539476
 H    1.1468641544   -0.2479910455    1.9535598162
 H    2.4512732643   -2.0661091211    0.9435847641
 H    1.5494717153   -3.8816630601   -0.3833811236
 H   -0.7743438564   -3.6887250848   -0.9942015937
 H    2.1626581223   -1.8832927359   -1.6987978358
 H   -0.6075097459   -1.0569779900   -1.7902571067
 H    0.7479107121    0.0390658429   -2.0079158346