21

 C   -0.1641426460    1.5139805191    0.0389811188
 C    0.0308734528   -0.0067829487   -0.0531573121
 O    0.8602537897   -0.3494137365   -1.1660559991
 C    0.6984687120   -0.5660175667    1.1682295395
 C    0.1566169614   -1.2053993275    2.2065322893
 C   -1.2638767393   -1.5926007104    2.4666572464
 C    1.2436518762   -1.5383698279    3.1973819219
 O    2.4472344274   -1.0222601528    2.6499847552
 C    2.1882209904   -0.4419896260    1.3746901126
 H    0.7964174159    2.0206363345    0.1685993961
 H   -0.6340377680    1.8963013366   -0.8754376848
 H   -0.8119239362    1.7722158698    0.8818950002
 H   -0.9590652832   -0.4750584054   -0.1679825492
 H    0.5039108429    0.0902159258   -1.9446336225
 H   -1.3426872492   -2.6658180479    2.6810789433
 H   -1.6632022208   -1.0694566687    3.3451298681
 H   -1.9178419393   -1.3691646651    1.6203234886
 H    1.0575526539   -1.0880612595    4.1871435822
 H    1.3301717417   -2.6273376144    3.3565526153
 H    2.7503191563   -0.9703261791    0.5917919165
 H    2.5352945914    0.6034404308    1.3697294538