25

 C   -0.3992150151    1.3503623890   -0.0562817577
 C    0.1939269355   -0.0614959323   -0.1431736551
 C    1.2122224850   -0.1661663935   -1.2913983746
 C    0.8234759756   -0.5417964082    1.1747162492
 C    1.8056578695    0.3248640228    1.8484199579
 O    0.4759390075    0.1994463144    2.3590367711
 C    0.8133732621   -2.0638690304    1.3735568954
 C    1.8642184321   -2.5760703241    2.3657908577
 C   -0.5913640452   -2.5186967311    1.8107916609
 H    0.3758956178    2.1077082498    0.1025413793
 H   -0.9087323956    1.5981782392   -0.9929124003
 H   -1.1149839908    1.4300831955    0.7636839351
 H   -0.6318795278   -0.7473479116   -0.3728769377
 H    2.0418710055    0.5336948006   -1.1419214621
 H    1.6364210958   -1.1716949383   -1.3765709847
 H    0.7404331598    0.0756327008   -2.2492016633
 H    2.5869648024   -0.1001357122    2.4730582509
 H    2.0468921433    1.2979431197    1.4223071252
 H    1.0272804729   -2.5134072207    0.3949139216
 H    2.8839681628   -2.3763344385    2.0233887151
 H    1.7318304346   -2.1112358518    3.3486607071
 H    1.7641018175   -3.6581097952    2.4964160214
 H   -1.3660998420   -2.2153380717    1.1003799766
 H   -0.6317481083   -3.6086329590    1.9001507598
 H   -0.8401913849   -2.0834887232    2.7831747910