20

 C    0.1566771319    1.4812609483    0.1701537383
 C   -0.0521433735   -0.0277049155    0.0039724519
 C    0.6590878668   -0.5842041989   -1.2216799900
 C    2.2147319191   -0.5864759813   -1.2696705993
 C    2.1444256400   -1.9626815728   -2.0003615463
 C    3.0763086377   -3.0131601242   -1.6411074479
 N    3.7714231881   -3.8812725731   -1.3217316081
 C    0.6786075585   -2.1217849597   -1.4470639416
 O    0.6313199028   -2.7829641360   -0.2086202212
 H    1.2186109934    1.7277596345    0.2781929142
 H   -0.2249899248    2.0356283647   -0.6947566486
 H   -0.3604999412    1.8544099167    1.0590703934
 H    0.3029791561   -0.5590429644    0.8922942923
 H   -1.1247939170   -0.2454679325   -0.0749548477
 H    0.2699599675   -0.1078392531   -2.1298029665
 H    2.7215173214    0.2193725163   -1.8021031989
 H    2.6480096063   -0.6921511977   -0.2731453578
 H    2.1343018990   -1.8346730753   -3.0863776086
 H   -0.0487126157   -2.5371061072   -2.1567666109
 H    0.9526023035   -3.6849067690   -0.3245120468