18

 C    0.9530952642   -1.0257347766   -1.0787351332
 C    0.1525004636   -0.4815370648    0.1032946954
 O    0.3016751715    0.9374653220    0.2322639410
 C   -1.2979286389   -0.8658497063    0.0385258299
 C   -2.0659520111   -1.5093220966   -0.9087898207
 N   -3.3537403465   -1.5653175227   -0.4773338825
 N   -3.4292881067   -0.9896709130    0.6891776209
 N   -2.1937329320   -0.5621085028    1.0168288355
 C   -1.9706176033    0.1108084787    2.2829192046
 H    1.9920465007   -0.6995782672   -0.9939027508
 H    0.9267832604   -2.1189868121   -1.1034461170
 H    0.5508312869   -0.6533399246   -2.0272932940
 H    0.5876766368   -0.8717558712    1.0318912907
 H   -0.1030082745    1.3412434092   -0.5447276314
 H   -1.7699721532   -1.9298044921   -1.8562201907
 H   -1.4481734836   -0.5470861200    2.9849939443
 H   -1.3720792399    1.0074726404    2.1178156922
 H   -2.9479049642    0.3667941697    2.6911533057