19

 C   -0.1101703155    1.4846353978    0.1849606238
 O   -0.0652314626    0.1037147517   -0.1361683784
 C   -1.2952575497   -0.5392665266   -0.0764342061
 C   -1.2267311973   -1.9981238514   -0.6117672902
 C   -0.0250313051   -2.4126396417   -1.4403944426
 N   -1.2230321077   -2.4921059351    0.7894220505
 C   -1.6790662126   -1.1903994724    1.3108365189
 C   -0.9784429888   -0.7236054200    2.5064943804
 N   -0.4424134591   -0.3345414056    3.4538758102
 H    0.9001887285    1.8732493478    0.0447209585
 H   -0.7995553856    2.0218514477   -0.4836147745
 H   -0.4141056040    1.6538215299    1.2248165224
 H   -2.0904713756    0.0878362064   -0.4994843990
 H   -2.1576027728   -2.2361287423   -1.1478508972
 H    0.9007242638   -2.1225476918   -0.9415093524
 H   -0.0246311072   -3.4986711715   -1.5795964089
 H   -0.0550362568   -1.9432304996   -2.4289868832
 H   -1.8286958261   -3.2777796564    0.9977946348
 H   -2.7602563356   -1.1123415171    1.4930431831