19

 O   -0.1558102386    1.3811330744    0.4420448717
 C   -0.0544601283    0.0131972405    0.1144722868
 C   -1.4240602985   -0.6021097046   -0.1631169750
 O   -2.2482312619   -0.6294408436    0.9890835754
 C   -3.2967006141    0.3157947488    0.8091139163
 C   -3.4023721272    0.4004975740   -0.6956076517
 C   -4.5280013949   -0.1793655553   -1.5036967367
 C   -4.2713570178    1.3225222555   -1.4736878623
 O   -2.0742581834    0.2116244438   -1.1359333296
 H   -0.6547619107    1.7839944552   -0.2788101025
 H    0.5901031385   -0.1578796639   -0.7634821045
 H    0.3937979330   -0.4992106483    0.9706293278
 H   -1.3207849796   -1.6356312456   -0.5295868294
 H   -4.2009923771   -0.0631065108    1.2924906104
 H   -3.0236504777    1.2846575337    1.2497974131
 H   -4.2610590524   -0.7061082671   -2.4128028051
 H   -5.3981443484   -0.5677412544   -0.9846608338
 H   -4.9624951460    1.9600506169   -0.9320206134
 H   -3.8429545750    1.7723853908   -2.3623318974