20

 C   -0.2177153687    1.4247703351   -0.1958843229
 C    0.1866301452   -0.0198169599    0.0988299951
 N    0.8626197433   -0.6032207701   -1.0587983709
 C    1.9444950859   -1.2104194351   -0.9092685035
 O    2.6999520146   -1.4869596858    0.2151872562
 C    3.7705080195   -2.0642081444   -0.6007371463
 C    2.9299777191   -1.8475844405   -1.8810762626
 C    2.4374597584   -3.0922826596   -2.6062588573
 O    3.5416333801   -0.9257079693   -2.7613676430
 H    0.6652186085    2.0497048516   -0.3624058123
 H   -0.8401659393    1.4735264927   -1.0940041057
 H   -0.7809364852    1.8459168212    0.6428355688
 H    0.8030195614   -0.0662355839    1.0060399183
 H   -0.7151608686   -0.6154672270    0.2907330572
 H    4.6740120112   -1.4535640156   -0.5570239163
 H    3.9714882418   -3.0969410441   -0.3078825324
 H    2.0251887241   -3.8260538723   -1.9069001502
 H    1.6491393067   -2.8217250033   -3.3154270049
 H    3.2621914893   -3.5510803666   -3.1594849199
 H    2.8327009330   -0.4333484032   -3.1916528276