11

 O   -0.0555413327   -0.0087629756    0.0034172675
 N   -0.0135924771    1.2168140210    0.0068510926
 O    1.0106327953    1.8944582930    0.0025188719
 C   -1.2640780543    1.9131926230    0.0167393343
 C   -1.4291466310    3.2851077156    0.0219091273
 N   -2.7602241351    3.4699906033    0.0307681472
 N   -3.4749307201    2.3180521721    0.0317062051
 C   -2.5620036753    1.3591138822    0.0231541392
 H   -0.7099274372    4.0863694892    0.0198538618
 H   -3.2568468666    4.3460726808    0.0365092866
 H   -2.8399180360    0.3176989853    0.0217415664