20

 C   -0.0796623354    1.5426185441    0.1308014765
 C    0.0863964534    0.0569841322    0.0365054292
 N   -0.8074731896   -0.8769953971    0.7287387375
 C    0.6702900803   -0.9093057508    1.0379177211
 C    1.2704237103   -1.7104935730   -0.0888065462
 O    2.0568555077   -2.6107884604   -0.1563807821
 C    0.6684040829   -0.7475601535   -1.1669329201
 C   -0.3251925314   -1.3404278851   -2.1608169875
 C    1.8263409664   -0.0278963611   -1.8669545762
 H    0.8206616089    2.0678743166   -0.2009063167
 H   -0.9146068360    1.8835653260   -0.4922248061
 H   -0.2873663005    1.8480903533    1.1621125580
 H   -1.2372995450   -0.3768235531    1.5086307457
 H    1.0211437517   -0.7623489351    2.0523550939
 H   -1.1777744536   -1.7815935671   -1.6412122904
 H   -0.6934942018   -0.5734235789   -2.8522860140
 H    0.1595822831   -2.1200733765   -2.7574417595
 H    2.3803169552   -0.7345427956   -2.4912260375
 H    1.4520176810    0.7767877668   -2.5091050390
 H    2.5326635323    0.4061762586   -1.1511026067