14

 C   -0.0445777494    1.5863141176   -0.0648496673
 C    1.4975837204    1.3149877820    0.0035765352
 O    1.1749051582    0.1809391261    0.8877793831
 C   -0.0133774008    0.0219419524    0.0114131897
 C    0.6732329294   -0.3230814207   -1.3114860634
 C    1.6933497125    0.5561134598   -1.3045584492
 O    2.4239697779    0.4052711669   -2.4286155633
 C    1.7584686507   -0.6149954361   -3.0769084613
 N    0.7104663131   -1.0828340142   -2.4609688421
 H   -0.4206605505    2.0419642479    0.8541431960
 H   -0.4563840643    2.0601470927   -0.9583463450
 H    2.2327477452    2.0135605505    0.3944873741
 H   -0.8099297377   -0.5851195981    0.4331543136
 H    2.1777570953   -0.9248866168   -4.0203140002