19

 C    0.1050123614    1.2578965624    0.2647840793
 O   -0.0020666713   -0.1371235625    0.1136690171
 C    0.5827473316   -0.5940531299   -1.0950584698
 C    0.5020438182   -2.0724058973   -1.1764050571
 C   -0.2604337158   -2.9249943317   -1.9115164270
 C    0.1371843408   -4.2495497001   -1.5402119779
 C    1.1154905248   -4.1102517751   -0.6031934737
 C    1.9314953116   -5.0781864160    0.1757660119
 O    1.3497392532   -2.7873583296   -0.3765646969
 H    1.1557375238    1.5902642374    0.2782206007
 H   -0.4128832368    1.8007719894   -0.5428317305
 H   -0.3597778450    1.5189712649    1.2184721109
 H    0.0615507496   -0.1643836102   -1.9655331728
 H    1.6352099968   -0.2671374332   -1.1469530107
 H   -1.0165890458   -2.6430130202   -2.6278842976
 H   -0.2522051438   -5.1819028911   -1.9186397542
 H    1.6520721958   -6.0993099644   -0.0927306237
 H    3.0023923267   -4.9522537052   -0.0207614780
 H    1.7807894041   -4.9530441377    1.2540087700