18

 C   -0.0444691589    1.4790469596    0.0463948022
 C    0.0122733556   -0.0396946835    0.0349822508
 O    1.0605086396   -0.6583395704    0.1031369027
 N   -1.1920992897   -0.6874262481   -0.0464742927
 C   -1.2425183283   -2.1565138030   -0.0714028248
 C   -2.6693688456   -2.4863283820    0.3763338006
 C   -3.4830255715   -1.2434914949    0.0233658297
 O   -4.6765227399   -1.1586420013   -0.0717612924
 C   -2.5008558004   -0.0833810628   -0.2003150984
 H    0.9760141533    1.8547945117    0.1095307528
 H   -0.5186655762    1.8692896920   -0.8602397989
 H   -0.6184317727    1.8507994809    0.9019212198
 H   -1.0446902454   -2.5349584862   -1.0832780521
 H   -0.4628634506   -2.5497593581    0.5807270593
 H   -3.0982588022   -3.3787787049   -0.0820345200
 H   -2.7234786453   -2.6135406758    1.4648129106
 H   -2.6972417391    0.7085657334    0.5312684460
 H   -2.6785078027    0.3417156435   -1.1990947051