22

 C    0.1700479566    1.3140022552    0.0024036359
 C   -0.1008661119   -0.1615175835    0.3212099507
 C   -1.5269006771   -0.6036435211    0.0307476104
 C   -2.6005197861    0.0463070491    0.8831336673
 C   -1.8792566282   -0.9647013448   -1.3983887442
 C   -1.7803815581   -2.0478873678   -0.3549052928
 N   -0.7084863815   -2.9960725435   -0.4471401501
 C   -0.1741818983   -3.6005301912    0.6510451907
 O   -0.4511067118   -3.3274516223    1.7984239222
 H    1.2195206021    1.5630227192    0.1877660347
 H   -0.0474766068    1.5384127153   -1.0476739002
 H   -0.4384290695    1.9841102631    0.6175378001
 H    0.5898229979   -0.7847660472   -0.2560021460
 H    0.1189078141   -0.3628305313    1.3766210065
 H   -2.6399412380    1.1290951884    0.7249522394
 H   -3.5919646680   -0.3541257046    0.6488222893
 H   -2.4093010869   -0.1353276817    1.9465494937
 H   -2.8618423787   -0.7189765428   -1.7868968745
 H   -1.0828387182   -0.9139875631   -2.1352208168
 H   -2.7123252410   -2.4725943335    0.0119393585
 H   -0.4793156566   -3.3785447416   -1.3517509637
 H    0.5658679460   -4.3784400403    0.3719804790