17

 O    0.0949826793    1.3790072660    0.2051788004
 C    0.0408899417   -0.0113456488    0.0429854652
 C   -1.4004050591   -0.5242734640   -0.1075111972
 N   -2.1832101872    0.4200183309   -0.9279922574
 C   -1.6706376346   -0.8235641416   -1.5377799218
 C   -0.4044032791   -0.6042705184   -2.3568637866
 C    0.7217885868   -0.5219797114   -1.2802564211
 C    1.8831320810    0.2584662021   -1.6880142395
 N    2.8061677114    0.8605358156   -2.0356348539
 H   -0.6575775920    1.7278307782   -0.2982209271
 H    0.5411810015   -0.4557048492    0.9076644519
 H   -1.8854020832   -1.0480576713    0.7083181967
 H   -3.1731439837    0.3365902833   -0.7144474341
 H   -2.3848367240   -1.5835997139   -1.8361893002
 H   -0.2177263125   -1.4222050400   -3.0561042908
 H   -0.4731163745    0.3216226290   -2.9330884497
 H    1.0624220082   -1.5456898865   -1.0821237447