16

 C   -0.4284143605    0.9468691150   -0.4137569404
 O    0.4786845017    1.3892221995    0.6000070270
 C    0.4735694560    0.0038687760    0.2578974786
 C    0.0108909194   -0.9454101804    1.3326167710
 O   -1.3618451921   -0.7463802097    1.7781331844
 C   -1.6411564936   -2.1327791127    1.5594748277
 C   -1.5213986385   -2.4925736576    0.1143593780
 C   -0.2755452968   -2.4068500758    0.9765176750
 H   -1.4767429672    0.9606513289   -0.1282483681
 H   -0.2001286093    1.2831117205   -1.4243735849
 H    1.3676606269   -0.3347345101   -0.2710345623
 H    0.6806568626   -0.8654806042    2.1988445683
 H   -2.2409974631   -2.6487512486    2.2994664702
 H   -1.8126301992   -3.5086191533   -0.1341601165
 H   -1.7323535112   -1.7537870313   -0.6517699212
 H    0.4034019949   -3.2348340363    1.1257911833