21

 C    0.0669994328    1.5015534602    0.0790975186
 C   -0.0164786859   -0.0078386724   -0.0297871557
 C    0.3130669790   -0.6587839608   -1.4113522739
 C   -0.9601010827   -1.5304322407   -1.3050207985
 C   -0.8188724871   -2.7802560651   -0.3914474222
 C   -1.1989502241   -1.9332702919    0.8651631072
 C   -0.0497443098   -1.5182719669    1.7745478222
 O    0.7490122122   -0.6085478099    1.0237186949
 C   -1.4144455595   -0.7016924349   -0.0521192648
 H    1.1085350516    1.8314669760    0.0052484017
 H   -0.5042085078    1.9861752088   -0.7189497577
 H   -0.3280678426    1.8397591991    1.0427554246
 H    0.2404197805    0.0656635960   -2.2281435048
 H    1.2780053906   -1.1695348472   -1.4689231145
 H   -1.5652452027   -1.6473888533   -2.2040156771
 H   -1.5666832397   -3.5457406399   -0.6125036504
 H    0.1670146462   -3.2557345260   -0.3733676216
 H   -2.0629429647   -2.3029530417    1.4203237362
 H   -0.4340201546   -1.0324448905    2.6862687032
 H    0.5860880110   -2.3570567817    2.0812890751
 H   -2.3139443927   -0.0910288574    0.0174620975