19

 C   -0.1621160754    1.6186358902   -0.1643609582
 C    0.0058785485    0.1133810364   -0.0056177909
 C    1.0311556980   -0.6338858854   -1.0001633502
 C    1.9042022724   -0.7600578090    0.2477021887
 O    2.6538568010   -1.6567032608    1.2024313590
 C    2.1161942709   -0.4545413341    2.0043031332
 C    2.6882623803    0.4388433419    0.9057195518
 O    4.0630209439    0.4910116260    0.7370591669
 C    0.7744547105   -0.6034083465    1.2090718162
 H    0.7831469046    2.1564801295   -0.2643413326
 H   -0.7482300962    1.8310591199   -1.0653758819
 H   -0.7024240856    2.0394006450    0.6896136710
 H   -0.9844103337   -0.3441614637   -0.0624088667
 H    0.6128294781   -1.5772994648   -1.3576675564
 H    1.4390762205   -0.0652968225   -1.8404500857
 H    2.3302769398   -0.5104353573    3.0752044441
 H    2.2879502474    1.4451654861    0.8084549024
 H    4.3558201367   -0.4266745536    0.8460631327
 H    0.2791994085   -1.5426821372    1.4567352665