18

 O   -0.0132599931   -0.0535926499   -0.3292802282
 C   -0.0194411921    1.1260732727   -0.0823698605
 C   -1.3220516920    1.9249796177    0.0745426558
 O   -1.6068782509    2.1914487356    1.4368673321
 C   -0.8567421617    3.2170125099    2.0679716230
 C    0.5607562072    2.7771997827    2.4612571973
 C    1.5293770563    2.7494971608    1.2929419153
 N    2.2521006330    1.4867325328    1.0420355965
 C    1.2512743058    1.9392601965    0.0780148963
 H   -1.2618318078    2.8629493600   -0.5036225167
 H   -2.1467824119    1.3158798437   -0.3027598491
 H   -0.8248590254    4.1154346300    1.4292959534
 H   -1.4264139171    3.4668347073    2.9683587214
 H    0.9426766014    3.4465153714    3.2412256015
 H    0.4971641204    1.7751272017    2.8975706800
 H    2.0738485008    3.6770578809    1.1227903574
 H    3.1909982350    1.6614751793    0.6940729682
 H    1.5895845521    2.3517343669   -0.8742315937