13

 C   -0.0676422156    1.5333676145    0.0109314855
 C    1.4155347307    1.8906517644   -0.0012094616
 C    2.2149838874    0.8072735933   -0.0147716783
 C    1.3622975791   -0.3761679878   -0.0131831640
 N    1.5191555316   -1.6746656585   -0.0217860877
 O    0.2027437674   -2.1680212611   -0.0121367696
 C   -0.6756012196   -1.1362543224    0.0020352881
 C   -0.0038415046    0.0345012072    0.0020746806
 H   -0.5701684295    1.9428256156    0.8964561427
 H   -0.5868806482    1.9524991523   -0.8603107481
 H    1.7565894685    2.9187520817    0.0012220058
 H    3.2958302609    0.8019747131   -0.0250630100
 H   -1.7154676579   -1.4231825223    0.0103493266