19

 C   -0.1035786024    1.4657489986   -0.3859477414
 C    0.1298715247    0.0229184769    0.0191048826
 O    1.2621156510   -0.3917239954    0.1993083775
 C   -1.1024920643   -0.8091126410    0.1463511682
 C   -1.4089099277   -2.0027566975   -0.7566448572
 C   -0.1591875809   -2.8381588337   -1.0465030034
 C   -0.0515397106   -3.1372910728    0.4954003957
 O    1.1495837638   -2.9769409958    1.1734567128
 C   -1.2450709895   -2.1924834833    0.7460192961
 H    0.8512961783    1.9671332917   -0.5449927039
 H   -0.7126364471    1.5167428555   -1.2949085822
 H   -0.6626794877    1.9857452309    0.4009296576
 H   -1.9938036539   -0.2045497876    0.2988148873
 H   -2.3191744455   -2.0016331451   -1.3436502208
 H   -0.3618143899   -3.7285739553   -1.6452550837
 H    0.6887825037   -2.3036927467   -1.4806977099
 H   -0.3850285047   -4.1621349187    0.6859512295
 H    1.4505004671   -2.0751751767    0.9716237418
 H   -2.0108214847   -2.3469179040    1.4984079135