17

 O    0.0878835422    1.4011986743    0.0555136019
 C    0.0091982915   -0.0079667853   -0.1311785882
 C   -1.4113873682   -0.5113588439   -0.0933882801
 C   -2.4472350938    0.0110630991   -1.0778354147
 O   -3.6304059125   -0.7215703516   -0.6820303456
 C   -3.1671172270   -1.5030888066    0.3820514610
 C   -1.7242549896   -2.0326257927    0.1232051553
 O   -1.4073249480   -1.9415095730    1.5516690639
 C   -2.1622030944   -0.7180507082    1.2737245882
 H   -0.1292122806    1.5867804549    0.9745808630
 H    0.4506295977   -0.2006181798   -1.1155504960
 H    0.6003189040   -0.5555009988    0.6150497007
 H   -2.6221932295    1.0874197597   -0.9847094166
 H   -2.2021788683   -0.2180043308   -2.1220767937
 H   -3.9405496413   -2.1363151082    0.8104786762
 H   -1.3679202638   -2.9015466313   -0.4302404146
 H   -2.3336003184   -0.0193065079    2.0935243093