14

 C    0.1031134612    1.4128692639   -0.0293467836
 O    0.1382551521    0.0078279643   -0.1092179515
 C    0.5172426126   -0.5833850639    1.1202706442
 C    0.5417252105   -2.0340408176    0.9968157506
 C    0.5688193178   -3.2343056154    0.9186106265
 C    0.5986497044   -4.6853624645    0.8130064528
 H    1.0884289658    1.8348116602    0.2272400510
 H   -0.1955487362    1.7856352337   -1.0116565852
 H   -0.6238904287    1.7639174023    0.7209525669
 H    1.5118858907   -0.2153193873    1.4291693741
 H   -0.1856995184   -0.2856226124    1.9186531947
 H    1.5873606678   -5.0845872440    1.0645480961
 H   -0.1305875168   -5.1511057236    1.4849246370
 H    0.3616916373   -5.0071855758   -0.2070132535