18

 O   -0.0150945370    1.2327470360   -0.0001287376
 N    0.0202340617   -0.1664026356    0.1293246093
 C   -1.1407938136   -0.6656497882    0.0505682181
 C   -2.5353880852   -0.1570373018   -0.2474995209
 C   -2.9319662352   -1.6358193286   -0.5531517307
 C   -1.5665913217   -2.1243863603    0.0442899495
 C   -0.7399220964   -3.1381949296   -0.7555521548
 C    0.5926549289   -3.4466816566   -0.0991435604
 O    0.9445164332   -4.5528540710    0.2251590976
 H    0.9167529247    1.4682648328    0.0655246632
 H   -3.0331551223    0.2603442230    0.6335347665
 H   -2.6131086366    0.5688332261   -1.0600437364
 H   -3.8305868479   -2.0142831954   -0.0642580991
 H   -3.0010447947   -1.8338903578   -1.6253611270
 H   -1.7083685012   -2.4910985714    1.0685758115
 H   -1.2904088441   -4.0762464845   -0.8767261054
 H   -0.5365203359   -2.7203495986   -1.7513081668
 H    1.2366178032   -2.5583832385    0.0731217435