15

 N   -0.0431967270    1.2950669104   -0.0375948781
 C   -0.0397314433    0.0176181921    0.0330669649
 C    1.1965601669   -0.8116605254    0.0925095497
 N    1.2512140267   -2.1028366789   -0.0029736926
 N    0.0254935702   -2.6352195539   -0.1889582749
 C   -0.5680141389   -3.9681658809   -0.0030855457
 C   -1.9540999743   -3.2231158056    0.0527980493
 C   -1.1377047838   -1.9399414208   -0.0244335582
 N   -1.2739578290   -0.6776127502    0.1025304982
 H    0.9160658478    1.6452965250   -0.0686797403
 H    2.1471328245   -0.3062748398    0.2432242391
 H   -0.4067669417   -4.6467130590   -0.8434191381
 H   -0.2741811119   -4.4481713059    0.9339822727
 H   -2.6113363637   -3.4035318837   -0.7989205465
 H   -2.5107463825   -3.3508041234    0.9819270508