21

 C   -0.7853261086    1.6416590128   -0.5352337119
 O   -0.6933231225    0.2466100722   -0.6974704192
 C   -0.4987503543   -0.4352004986    0.5185527783
 C   -0.4157640718   -1.9206567320    0.2024462463
 O   -0.2205804965   -2.6069746218    1.4203863420
 C   -0.1345198026   -4.0040780459    1.2649003720
 C    0.0422481447   -4.6257333413    2.6501801878
 C    0.3796853960   -6.0971216476    2.5759522646
 O   -0.2243668834   -6.9727516877    3.1384949532
 H   -0.9347814336    2.0772542315   -1.5260320674
 H   -1.6333073550    1.9227716851    0.1091124904
 H    0.1326241305    2.0629954200   -0.0956854493
 H    0.4290109221   -0.1089820923    1.0166057391
 H   -1.3298450449   -0.2511363701    1.2187862884
 H   -1.3435285755   -2.2469286581   -0.2933788749
 H    0.4157523530   -2.1060288593   -0.4959584981
 H   -1.0434698185   -4.3977855178    0.7809565226
 H    0.7180307666   -4.2684043951    0.6148495255
 H    0.8833460171   -4.1130275292    3.1377146215
 H   -0.8502005881   -4.4877848828    3.2645778441
 H    1.2687092954   -6.3323569722    1.9436568649