19

 C   -0.1197855227    1.5216949377    0.0457385059
 C   -0.0042090601   -0.0063324371   -0.0182634400
 C    0.8034809121   -0.5662788295    1.1151012514
 C    2.3197799687   -0.2788663562    1.3386625727
 C    2.2792890189   -1.5390228452    2.2040352831
 O    3.3285427481   -2.2959127742    2.6759680044
 C    0.8801918350   -1.5136945768    2.8568148299
 O    0.2253588973   -0.3179556580    2.4461005598
 C    1.0572191424   -2.0810955232    1.4860941683
 H    0.8621487270    1.9982194084   -0.0395315921
 H   -0.7474213577    1.8982647378   -0.7668826122
 H   -0.5642210250    1.8329656972    0.9949400102
 H   -1.0019373460   -0.4595010765    0.0111896049
 H    0.4604288894   -0.3175096256   -0.9618778104
 H    2.9008042830   -0.4464954585    0.4277793764
 H    2.5739022955    0.6829583115    1.7959187885
 H    3.6558185469   -1.8912921837    3.4874405452
 H    0.6333705085   -1.9701410734    3.8068242266
 H    0.8215136487   -3.0272943646    1.0195834074