17

 C    0.0763862650   -1.1007701676    0.0148405205
 C    0.2764262807    0.0657257202   -0.1878683247
 C    0.5007771109    1.4766789757   -0.4678024333
 O    1.2157516139    2.0711323206    0.6134654230
 C    1.4151395824    3.4347948325    0.4403947640
 C    2.7448595735    4.0337096749    0.7988004198
 C    3.8453998493    3.0932751977    0.3118967312
 O    3.2895915277    3.0601037414   -1.0334119623
 C    2.2805149530    3.9904949371   -0.6553505811
 H   -0.0961024190   -2.1322816429    0.1991297390
 H    1.0755565719    1.5921582750   -1.3971714015
 H   -0.4673853776    1.9830166230   -0.6103680249
 H    0.5578128621    4.0641663907    0.6907245040
 H    2.8670445478    4.8505762352    1.4969001313
 H    4.8374361010    3.5554475274    0.2976084140
 H    3.8871325848    2.0998819214    0.7669428343
 H    1.9948055725    4.7531432676   -1.3719353132