20

 C    0.0145251026    1.6007697237    0.0418941903
 C    0.0736487783    0.0713261737    0.0410545492
 C    0.6763390594   -0.5030698049   -1.2453792420
 C    0.6833874013   -2.0348641876   -1.2864160026
 O   -0.6273567821   -2.5806532355   -1.1478975612
 C    1.3687117395   -2.5760526431   -2.5561448864
 C    1.4903337582   -4.0857480522   -2.5567003483
 O    2.4865438189   -4.6857658398   -2.8726938958
 H    1.0131869607    2.0388137378   -0.0657277618
 H   -0.5994216461    1.9752304332   -0.7851054687
 H   -0.4163313280    1.9808461645    0.9731948490
 H    0.6658613115   -0.2749442939    0.8982105917
 H   -0.9297039771   -0.3454384421    0.1794060927
 H    0.1165583587   -0.1314562799   -2.1183785691
 H    1.7048619179   -0.1407096010   -1.3711341506
 H    1.2231506329   -2.4083804848   -0.4064227998
 H   -1.1747820293   -2.2105939032   -1.8503919262
 H    0.7587171058   -2.2880508348   -3.4268938897
 H    2.3647981956   -2.1453085941   -2.6946461006
 H    0.5709014114   -4.6191975159   -2.2341387199