23

 C    0.0634004009    1.3451028845    0.0149158397
 O    0.0041483130   -0.0583049588    0.0665881428
 C   -1.3121958230   -0.5602552338   -0.0505646458
 C   -1.2541863464   -2.0770156705    0.0320440607
 C   -0.7735842853   -2.6467858553    1.4108421704
 C   -1.9650257920   -3.5715863090    1.7313695149
 C   -2.2318865137   -4.2446797969    0.3534012966
 C   -2.6222589653   -2.7926356274   -0.0521626580
 C   -3.1818760374   -2.6622669667    1.3974740181
 H    1.1125880816    1.6344898725    0.1156881577
 H   -0.3222407237    1.7375297785   -0.9401011228
 H   -0.5129804806    1.8112040522    0.8305645422
 H   -1.9483486741   -0.1417201491    0.7479222540
 H   -1.7549348432   -0.2461310239   -1.0125940697
 H   -0.5990480133   -2.4186911004   -0.7767688870
 H    0.1713574075   -3.1908026815    1.3312037378
 H   -0.6401745649   -1.8583886600    2.1577123801
 H   -1.9162178960   -4.1495170201    2.6550378430
 H   -1.3900559602   -4.7146464292   -0.1651007898
 H   -3.0898994512   -4.9207936801    0.3719123289
 H   -3.2387627968   -2.5873714692   -0.9290214977
 H   -4.1374334043   -3.1785706253    1.5169250750
 H   -3.2343988915   -1.6726961505    1.8601634889