17

 O   -0.7112801082    0.8638921608    0.5595709327
 C    0.2583899012    0.8349470284   -0.1576609171
 C    1.4239249811    1.7599151157   -0.0334878768
 C    1.8917432498    2.4486248242    1.2864789949
 C    3.2097453546    2.4903661935    0.4440910011
 N    2.8127701518    1.1872610610   -0.2091911414
 C    2.8092849301    3.5112653511   -0.6428034894
 N    2.5881994506    2.9278546377   -1.9833055074
 C    1.4803167120    2.9759260909   -1.0121429900
 H    0.3487365162    0.1056399687   -0.9940761676
 H    1.4200801920    3.3902235532    1.5864423367
 H    1.9382243628    1.7540763069    2.1293655185
 H    4.2030058501    2.5494478425    0.8871823175
 H    2.9143960386    0.4705968263    0.5118972619
 H    3.0209152004    4.5660746569   -0.5168503777
 H    2.4554289265    3.6944182239   -2.6421153900
 H    0.5937857504    3.5739868581   -1.1824824859