17

 O    0.1222145879    1.3533171824   -0.3713381869
 C    0.0758816617    0.0225731932    0.1185618076
 C   -1.3332196727   -0.4840691752    0.2072405056
 C   -2.3758297498   -0.1277488139    1.2795423992
 C   -2.9637139552   -1.5828592898    1.1399429904
 C   -4.3596498395   -1.7115326706    0.7450753765
 N   -5.4611924468   -1.7865568244    0.4006932430
 C   -1.9086775289   -1.8643156085    0.0409444908
 N   -1.9861044319   -0.8938015668   -1.0346622417
 H   -0.2403562695    1.3325248400   -1.2642360453
 H    0.6627892238   -0.6637924510   -0.5088466021
 H    0.5348733637    0.0495019885    1.1124010453
 H   -1.9524835652    0.0377404488    2.2719986957
 H   -3.0509898542    0.6960137679    1.0361641899
 H   -2.7832114713   -2.1700387906    2.0432809133
 H   -1.4427581867   -2.8248217220   -0.1454664550
 H   -2.9206228755   -0.5104179380   -1.1687149662