18

 C   -0.2879040555    1.5783591324    0.1361507916
 C    0.1977724386    0.1462884052    0.0361063178
 C    1.0364337229   -0.1949526647   -1.2041885808
 O    1.9590795731   -1.1776893698   -0.7406826529
 C    1.8730349362   -1.2323328913    0.6711806838
 C    3.2648438160   -1.1379536937    1.3086915775
 C    4.1029006092   -2.2899802237    0.9941716250
 N    4.7618031555   -3.2080459884    0.7552911821
 O    1.1229130496   -0.1261821583    1.0931427551
 H    0.5554892354    2.2728659768    0.0820751243
 H   -0.9797319201    1.8017178566   -0.6817715209
 H   -0.8128216568    1.7413932673    1.0808284707
 H   -0.6509257355   -0.5517537127    0.1123935447
 H    0.4406020211   -0.6110713097   -2.0223599212
 H    1.5793411914    0.6864235495   -1.5717376343
 H    1.3814862087   -2.1766483967    0.9625543139
 H    3.7442292200   -0.2205302256    0.9546012205
 H    3.1470560601   -1.0619123733    2.3945728330