19

 O    0.1525693891    1.1571669572    0.5855075957
 C    0.0060018253   -0.2073985109    0.2632905451
 C   -1.4040328968   -0.5098729421   -0.2406171614
 C   -1.7065825968   -2.0138153108   -0.4382952808
 C   -2.7824168517   -2.3368501631    0.5962907343
 O   -3.7927421918   -3.2294133779    0.2442156243
 C   -2.4338382666   -2.1292820397    2.0576081831
 C   -3.1219425092   -1.0415629440    1.2508588652
 O   -2.3443463036    0.0014037035    0.7348928959
 H   -0.6148134795    1.3774464893    1.1285940054
 H    0.7347506789   -0.4384285719   -0.5222925367
 H    0.2352634975   -0.8555453422    1.1268204536
 H   -1.5704882465    0.0614492336   -1.1610053406
 H   -2.1236823608   -2.2101770447   -1.4290047949
 H   -0.8026708136   -2.6234976711   -0.3250030927
 H   -3.4729322834   -4.1232652307    0.4089658929
 H   -3.0585076071   -2.6545073672    2.7730922017
 H   -1.3988176394   -1.9960661977    2.3541716556
 H   -4.1389043541   -0.7506013396    1.4868019441