18

 N   -0.0217055075    1.2504797990   -0.4223294945
 C   -0.0227739609    0.0469235591   -0.0702335923
 O    1.0347490620   -0.7931852278    0.2461960868
 C    0.1284518944   -1.9309969799    0.4378341361
 C   -0.1670824164   -2.3328658979    1.8865427058
 C   -1.6971704569   -2.6453137671    1.7558237634
 C   -1.7865198691   -1.1003811555    1.5181920323
 C   -0.6150835312   -0.9923260290    2.5341790510
 C   -1.0862966392   -1.0116925553    0.1427480088
 H    0.9289205110    1.6235047910   -0.4610925613
 H    0.3874213665   -2.7459510589   -0.2386518956
 H    0.5264583701   -3.0141560750    2.3779047233
 H   -2.0244052378   -3.3105359782    0.9503640750
 H   -2.1405706681   -2.9570300469    2.7035482475
 H   -2.7123775447   -0.5418236015    1.6439652573
 H   -0.9565611972   -1.1377302746    3.5605684351
 H    0.0570389470   -0.1349177687    2.4799555286
 H   -1.7356741421   -1.2197094627   -0.7070061272