20

 N   -0.0465811656    1.3808040173   -0.2011705846
 C   -0.0317798295    0.1335136699    0.0194752645
 C   -1.3201311158   -0.6587723185    0.0778573522
 C   -1.6479499600   -1.1899717525    1.4647392798
 C   -2.1341761657   -2.6082440946    1.6453469740
 C   -0.7414432552   -2.2264362864    2.0799902192
 C    0.4952478569   -2.6540404315    1.3116945840
 C    1.4762298747   -1.4958869684    1.1111638644
 O    1.1541287489   -0.5593783871    0.0720503729
 H    0.9133395920    1.7338621438   -0.2231254775
 H   -2.1175571211   -0.0012783916   -0.2739936666
 H   -1.2393945047   -1.4884119160   -0.6330232690
 H   -2.0557765618   -0.4427944037    2.1387268925
 H   -2.8772887806   -2.8094488613    2.4090934084
 H   -2.2372449770   -3.2205611920    0.7543816723
 H   -0.5839469926   -2.1388056956    3.1519398048
 H    1.0193058800   -3.4466399269    1.8601769830
 H    0.2376468585   -3.0779117799    0.3352700349
 H    1.6038619373   -0.9489419705    2.0564325656
 H    2.4563207413   -1.8782647245    0.8130637851