15

 N   -0.0455557874    1.3676840081    0.1276124380
 C    0.0019071814   -0.0011819938    0.0342587927
 N   -1.0622408109   -0.7424861413    0.0198409982
 C   -0.6489613268   -2.1538267345   -0.0033413699
 C    0.8524905875   -2.0885081187   -0.0211790140
 C    1.2505217465   -0.7702799759    0.0075464940
 C    2.6617709363   -0.8106979171    0.0033959706
 N    3.0972669743   -2.0696699500   -0.0275856441
 N    1.9694513840   -2.8357502089   -0.0411749100
 H    0.7236906351    1.8750015641   -0.2801589560
 H   -0.9539471958    1.7649841053   -0.0639653938
 H   -1.0398346797   -2.6818110484    0.8762790943
 H   -1.0677493859   -2.6555155613   -0.8851334763
 H    3.3838315946   -0.0077353380    0.0236985772
 H    2.0724727170   -3.8361082996   -0.0627145511