17

 C    0.0825525028    1.5519302094    0.0089069257
 C   -0.0362241447    0.0580676598   -0.0030609068
 C    0.9999873760   -0.9205564250   -0.5479915063
 N    0.4918372560   -2.0546135300   -1.2446121304
 C   -0.7571366788   -2.0661532446   -0.9351095197
 N   -1.1007015825   -3.0477560343    0.1114982241
 C   -0.8769777980   -1.7437593495    0.9581553121
 C    0.5134926462   -1.0191862551    0.9375711367
 C   -1.2826516115   -0.7961098576   -0.1841959743
 H    1.1125874450    1.8644862344    0.2074634762
 H   -0.2127500753    1.9761218730   -0.9575845212
 H   -0.5547462770    1.9996813196    0.7795756352
 H    2.0201159334   -0.5973480688   -0.7231880617
 H   -2.1167202103   -3.1735663887    0.1711729693
 H   -1.3947637200   -1.7600396266    1.9173770136
 H    1.2122600166   -0.9404409693    1.7590120179
 H   -2.2958335577   -0.4351151666   -0.3388549006