17

 C   -0.0165815177    1.5722832212    0.0416904598
 C    0.0194134930    0.0421595863    0.0146652919
 C    0.6901814013   -0.5051353050   -1.2490335413
 C    0.6925375610   -2.0454784209   -1.3094963227
 N   -0.6749850623   -2.5689646799   -1.3711897733
 C    1.5367983750   -2.5135082200   -2.4319493453
 N    2.1593933105   -2.8958402565   -3.3284995493
 H    0.9923901442    1.9973501552   -0.0012348726
 H   -0.5788448235    1.9708521185   -0.8100321795
 H   -0.4937891809    1.9394699596    0.9552085894
 H    0.5595880033   -0.3288792987    0.8958595635
 H   -0.9947976338   -0.3625408286    0.0841854440
 H    0.1821075910   -0.1226683300   -2.1443713226
 H    1.7262415550   -0.1531736721   -1.3110290581
 H    1.1464854226   -2.4267587842   -0.3862068402
 H   -1.0998688790   -2.3082124220   -2.2572574657
 H   -0.6637709996   -3.5841105130   -1.3458120880