21

 C   -0.0376667263    1.5256929241    0.0320410748
 C   -0.0299616523    0.0165933818    0.0760112171
 C   -1.2298585411   -0.7041364436   -0.5419023253
 C   -1.4896433114   -2.0677519447    0.1222827707
 C   -0.1810382741   -2.9041979645    0.2035033440
 C    0.1369444720   -2.0991014443    1.4921129522
 C   -1.4043101170   -1.9412702293    1.6736903889
 C    0.6941808310   -0.7294673656    1.1194468311
 O    1.2570331304   -0.5783927787   -0.1909346197
 H    0.8806127226    1.9263474751    0.4689087860
 H   -0.1050839345    1.8811892316   -1.0027479880
 H   -0.8946302295    1.9315748015    0.5802317422
 H   -2.1163243071   -0.0690413411   -0.4215060022
 H   -1.0688499128   -0.8211661037   -1.6211735232
 H   -2.3771030202   -2.5426448216   -0.3032214085
 H   -0.3905907404   -3.9508087575    0.4385140541
 H    0.5297540651   -2.8358049292   -0.6198138752
 H    0.7181545443   -2.5799497350    2.2817394558
 H   -1.7755242949   -1.0241230062    2.1426866305
 H   -1.8452156890   -2.8078805129    2.1730336255
 H    1.2222500653   -0.1822205161    1.9005903693