19

 C   -0.6359834460    1.3557000993    0.0664521941
 C    0.0870495813    0.0094510879   -0.0187303635
 C    1.1292780370    0.0262519911   -1.1601078473
 O    2.1325490779   -0.9805910950   -1.0381892047
 C    2.5669741356   -1.1523100787    0.3017123224
 C    1.4232055150   -1.7850026764    1.1497272215
 C    0.8253126020   -0.3502161395    1.2999053453
 C    2.2864401103    0.1210853265    1.1613431708
 O    2.9626717585    0.9653075072    1.6693232934
 H    0.0592551258    2.1585844594    0.3350083616
 H   -1.0985095672    1.6174277774   -0.8913165697
 H   -1.4260285172    1.3279500159    0.8229308237
 H   -0.6477097017   -0.7822528791   -0.2100791255
 H    0.6589109732   -0.1249658429   -2.1351257941
 H    1.6145361375    1.0157038571   -1.1707147589
 H    3.5611911820   -1.5995266462    0.2867684782
 H    0.8109787527   -2.5162604687    0.6185620181
 H    1.7815680924   -2.1958229684    2.0967547960
 H    0.2608527407   -0.0788239169    2.1935418488