15

 O    0.0793295925    1.3457159950    0.0085325555
 C   -0.0125361323   -0.0540155297    0.0024422911
 C   -1.4860165858   -0.4550818968    0.0115838158
 O   -2.3892677086    0.3521199548    0.0222419814
 C   -1.7633944973   -1.8966420590    0.0067476460
 C   -2.9423913117   -2.5898594136    0.0123388562
 C   -2.6000663915   -3.9716548137    0.0029925646
 C   -1.2373847694   -4.0209011088   -0.0075166963
 O   -0.7117049361   -2.7760697732   -0.0054490943
 H    1.0118542203    1.5795436760    0.0004996712
 H    0.4560675448   -0.5117893961   -0.8851525555
 H    0.4692727552   -0.5202797527    0.8785033114
 H   -3.9242829656   -2.1450452969    0.0219440088
 H   -3.2710027090   -4.8159750076    0.0039393699
 H   -0.5261589752   -4.8310053977   -0.0168164858