21

 O    0.2193791268   -0.1718233001    0.3680330591
 C    0.0788611688    0.9641320382   -0.0072111186
 C    1.1958745225    1.9864286718   -0.0813413823
 C    1.0645979058    2.9195321682   -1.3192164795
 C    0.4616990915    4.3151623923   -1.0096472244
 C    0.6985321112    4.7208621126    0.4531142687
 C    2.0388154069    4.1310914679    0.9841971224
 C    1.2460742715    2.8135716114    1.2264295773
 C   -0.0195535026    3.7073861425    1.3823568166
 H   -0.9234979343    1.3342245793   -0.3293981148
 H    2.1242774184    1.4090637039   -0.1518328464
 H    2.0687608453    3.0562141845   -1.7293739824
 H    0.4913368575    2.4249619069   -2.1116019558
 H    0.9050829675    5.0516980058   -1.6891312307
 H   -0.6174568238    4.3266690658   -1.2057405849
 H    0.5044690329    5.7845778575    0.6100794368
 H    2.9058863280    4.1058888419    0.3178812517
 H    2.3315241862    4.5925817103    1.9310362857
 H    1.5316508343    2.1780555142    2.0670686798
 H   -0.1080086011    4.0817611519    2.4057122231
 H   -0.9912198135    3.3193800732    1.0633247986