20

 C   -0.1297736721    1.5488192213   -0.0359231227
 C    0.0125071307    0.0314020263    0.0007134643
 C    1.1376310627   -0.5557316417   -0.8779819664
 N    1.2789973712   -1.9903506060   -0.6713742436
 C    1.8836413203   -1.0942317513    0.3198889706
 C    3.3411532350   -1.2239163646    0.6417488080
 C    0.7921368543   -0.5339812308    1.2139308576
 C    0.8878529062   -0.0061909044    2.5738247807
 O    0.2191354490   -1.2474546918    2.3029638241
 H    0.8327799059    2.0417043955    0.1380816326
 H   -0.5052270341    1.8806796607   -1.0097313428
 H   -0.8317093250    1.8999051436    0.7271566366
 H   -0.9598790441   -0.4489337275   -0.1632078524
 H    1.5280997355   -0.1191221731   -1.7906848745
 H    0.4198659663   -2.4265692828   -0.3395028664
 H    3.8987294011   -1.5174320132   -0.2511035420
 H    3.7511146543   -0.2811341868    1.0189202303
 H    3.5031596775   -1.9930607124    1.4058153639
 H    1.8229113804   -0.0931916554    3.1264156801
 H    0.2434656550    0.8145708043    2.8863369519