22

 C    0.0616126102    1.6878626027   -0.0788564324
 C    0.0588816982    0.1553121883   -0.0121186924
 C    0.7255350490   -0.4723763355   -1.2464588569
 C    0.6284913278   -1.9986125401   -1.3064067542
 C    1.2853814678   -2.5793615109   -2.5519311738
 O    1.1659440143   -3.9918311952   -2.4909626102
 N    0.6956616989   -0.3137319994    1.2173609573
 C    0.0055838080   -0.7759398866    2.2943008092
 O   -1.2000193881   -0.8926349390    2.3602938569
 H    1.0851254641    2.0792926038   -0.1173176734
 H   -0.4643187945    2.0375502579   -0.9728414030
 H   -0.4337082699    2.1110935607    0.7988988934
 H   -0.9750612107   -0.1948279930    0.0590838872
 H    0.2584933193   -0.0358245636   -2.1383686243
 H    1.7809447975   -0.1613787524   -1.2790704606
 H    1.1004725337   -2.4443666342   -0.4241837353
 H   -0.4225102097   -2.3103495535   -1.2867843928
 H    0.7964305807   -2.1757617169   -3.4542391483
 H    2.3436781612   -2.2700084566   -2.5933106351
 H    1.5552368630   -4.3623610994   -3.2882203408
 H    1.6960059611   -0.2164277297    1.3053827336
 H    0.6841673281   -1.0495685974    3.1274694560