15

 N   -0.0291836534    1.2976161915    0.0343399929
 C    0.0224237123   -0.0574031031   -0.0085290359
 O    1.0528832218   -0.7173299249   -0.0490578860
 C   -1.2990644858   -0.7081896643   -0.0036364893
 N   -2.4912057553   -0.1514798944    0.0426361844
 C   -3.3841047421   -1.1912826468    0.0425868137
 C   -2.7132421274   -2.4004334451   -0.0140772744
 N   -3.1483584209   -3.7221278182   -0.1177258476
 N   -1.3866374033   -2.0740297268   -0.0464947947
 H    0.8275630976    1.8225836078    0.0203425381
 H   -0.9214338047    1.7630777730    0.0569506604
 H   -4.4511304814   -1.0315546653    0.0820821519
 H   -4.1565398122   -3.7851184244   -0.0650294972
 H   -2.7427258952   -4.3374159520    0.5789626470
 H   -0.5855340599   -2.6805082371   -0.1272721632