16

 O   -0.1176880526    0.0348103359   -0.4056450466
 C    0.0053195583    1.1578771970    0.0149909992
 C    1.2715626474    1.9222966433    0.0371676477
 C    1.1879701284    3.4426451387   -0.1223873426
 C    1.5398848841    2.8654256934    1.1932372593
 C    0.8215784182    2.9892991625    2.5375684155
 O    2.0860202860    3.1527312297    3.2138890696
 C    2.8345858843    3.0018376450    1.9887693168
 H   -0.8690816239    1.7178082848    0.4268722632
 H    2.1227413179    1.4079143808   -0.3974508394
 H    1.9631776604    3.9157326813   -0.7157177983
 H    0.1973482864    3.8715713310   -0.2469255728
 H    0.1747049590    3.8683569688    2.6529995556
 H    0.2850466981    2.0976407088    2.8855847168
 H    3.4788258227    2.1134218806    2.0064765252
 H    3.4427852453    3.8873410984    1.7636075207