14

 N   -0.1980855114    1.4427232244   -0.0929246005
 C   -0.0261354461    0.0331812558   -0.0535496544
 C   -1.0931324052   -0.8387207761   -0.0702191100
 O   -2.4105198387   -0.5945348986   -0.1221315538
 N   -0.5926814851   -2.0905983641   -0.0228535138
 N    0.7641499743   -2.1124440240    0.0254885722
 C    1.1147308861   -0.8216024471    0.0063505027
 C    2.4692151076   -0.4078211472    0.0439828610
 C    3.5992912891    0.0064192062    0.0736247649
 H    0.2616883062    1.8520911094   -0.9010585979
 H    0.2044302890    1.8905789911    0.7252843388
 H   -2.4898229943    0.3716886592   -0.1479973795
 H   -1.1038326992   -2.9567412173   -0.0200548918
 H    4.6041363777    0.3483999183    0.1000540721