19

 C   -0.1574855751    1.5568146519    0.0214282685
 C    0.0214151066    0.0372150138    0.0666126637
 C    0.8367805588   -0.4689010607    1.2783150491
 C    2.2661214921    0.0937566515    1.3265125057
 O    0.0954080765   -0.0547611523    2.4363870523
 C    0.4214761118   -0.5724568003    3.6471141225
 N   -0.0454153027   -0.0360359737    4.6867428439
 C    0.8949110940   -1.9489163535    1.2044891866
 N    0.9516866265   -3.1006503333    1.1283165435
 H    0.7893490578    2.0793294197   -0.1422505960
 H   -0.8240893709    1.8222764319   -0.8037586694
 H   -0.5994491341    1.9251506215    0.9497674479
 H   -0.9571655278   -0.4503767630    0.1119511675
 H    0.5154959942   -0.3228958588   -0.8418989167
 H    2.2244668932    1.1776102854    1.4473695611
 H    2.8231297025   -0.3282685941    2.1664946770
 H    2.8023055952   -0.1462955445    0.4047134843
 H    1.0593469504   -1.4622921124    3.5953629077
 H    0.2484736611   -0.5581009491    5.5100077708