19

 C    0.0359159996    1.5010759353    0.1934313662
 C    1.5725476939    1.3636790067    0.0235606492
 O    2.2159664100    1.0465373176    1.2479013012
 C    1.4251872311    0.1820429128    2.0673731091
 C    0.6120678975   -0.7989337481    1.2122997272
 O    1.4657705246   -1.7801589436    0.6263986282
 C    2.1129650885   -1.1834429682   -0.5058974962
 C    1.2981549909    0.0661044932   -0.8215909739
 C   -0.0098546073   -0.0371176170    0.0136672025
 H   -0.3456657746    1.9530867206    1.1120978991
 H   -0.4077246259    2.0114068657   -0.6650791252
 H    2.1427894225    2.1779862427   -0.4265339767
 H    2.1180827596   -0.3630723329    2.7132726801
 H    0.7500829797    0.7711326836    2.7056849570
 H   -0.1136022911   -1.3313815721    1.8336494416
 H    3.1562168430   -0.9428018442   -0.2650946987
 H    2.0987509126   -1.9090390722   -1.3266542814
 H    1.1672219502    0.2773277092   -1.8836944788
 H   -0.8981352948   -0.5223599691   -0.3932866404