12

 N    0.0245096387    1.2494127943    0.0090372580
 C    1.1525744862    1.9964254033    0.0022254819
 N    2.3683123048    1.5045573100   -0.0123653276
 C    2.3952428762    0.1596591500   -0.0200318885
 N    3.4276118418   -0.6639718865   -0.0357200881
 C    2.8061855570   -1.8929934075   -0.0358147751
 N    1.4738153274   -1.9543057834   -0.0221318441
 C    1.1491350466   -0.6375355664   -0.0127072655
 N   -0.0424951184   -0.0942543089    0.0021105414
 H   -0.8785914466    1.7027592844    0.0204512072
 H    0.9948678590    3.0705116354    0.0097351931
 H    3.4044332571   -2.7970346247   -0.0465054927