23

 C    0.1769088732    1.4910122957   -0.3021207152
 O   -0.2896179975    0.2281114990   -0.7208086888
 C    0.7310484200   -0.6193477238   -1.1792882577
 C    1.6522406518   -1.3315405029   -0.1420558229
 C    1.4589394936   -2.6556214797   -0.9406140815
 C    0.2657832025   -1.9980773506   -1.6462739794
 C   -1.1616535503   -2.4638562538   -1.5770697052
 C   -0.4552569393   -2.3600098929   -2.9110892506
 C   -0.8474206175   -1.2819480793   -3.8981675830
 H    0.8645430445    1.4129183759    0.5531831369
 H    0.6983529385    2.0215813974   -1.1145495254
 H   -0.6943333878    2.0769007032    0.0007056196
 H    1.3270752201   -0.1025275580   -1.9507860943
 H    2.6708523205   -0.9570452997   -0.0193189194
 H    1.1584370721   -1.3723899998    0.8323504385
 H    2.2944054827   -2.8620459761   -1.6174007126
 H    1.2537240641   -3.5564658921   -0.3570580464
 H   -1.3544372081   -3.4504314685   -1.1665921379
 H   -1.9144647184   -1.7184277953   -1.3425419225
 H   -0.1596939160   -3.3061493515   -3.3605214329
 H   -1.1131097875   -0.3581386937   -3.3747309350
 H   -0.0274367738   -1.0524671792   -4.5885963594
 H   -1.7115361775   -1.5879374642   -4.4983106649