16

 N   -0.0603902006   -1.2180155867   -0.0862937665
 C   -0.0452568612   -0.0622601992   -0.0484814275
 C   -0.0160183463    1.3874779759    0.0096406013
 C   -0.1391931705    2.0837702738    1.4203396595
 C    1.0108113490    1.4221035815    2.2130853404
 C    2.1448290696    1.4429462130    1.1224743387
 C    1.3848459707    2.1117883164   -0.0453598381
 C    0.6366126125    3.2220965084    0.7233163717
 O    0.6021246609    4.4129364476    0.7102201301
 H   -0.7191736298    1.8058927567   -0.7135057001
 H   -1.1018404269    2.2288814526    1.9040288584
 H    1.2687271513    1.9993359943    3.1035006994
 H    0.7548885973    0.4071472617    2.5235949570
 H    3.0133766775    2.0313988286    1.4256338151
 H    2.4843606981    0.4389339331    0.8603160046
 H    1.9026907484    2.2841137626   -0.9854889937