21

 C   -0.4689931678    1.3877537319   -0.0119889852
 C   -0.0995915443   -0.0976099569    0.0427435056
 C    0.8797099905   -0.4914620336   -1.0477436501
 C    1.1371767228   -1.9875703067   -1.3114929018
 C    0.6920830388   -1.6726150067   -2.7705006490
 C   -0.5145912543   -2.4352849667   -3.3063589720
 O    0.3266872363   -0.3171056045   -2.3798714915
 C    1.7902651545   -1.6692273129   -3.7369140994
 C    2.6935338166   -1.6761670972   -4.5302811727
 H    0.4128030592    2.0205625882    0.1373434024
 H   -0.8993135319    1.6372879354   -0.9859339198
 H   -1.1994001869    1.6432795907    0.7612377118
 H    0.3500442570   -0.3447607405    1.0140367398
 H   -1.0023561238   -0.7131793282   -0.0560768837
 H    1.8068158298    0.0917205824   -0.9489144938
 H    2.1597798912   -2.3424728772   -1.1895877965
 H    0.4474458801   -2.6559549853   -0.7905923619
 H   -1.3196847950   -2.4234419621   -2.5668460468
 H   -0.8759421073   -1.9680700653   -4.2265596875
 H   -0.2444989782   -3.4724408890   -3.5274266542
 H    3.4905528027   -1.6738776259   -5.2322751236