16

 C    0.0199511293    1.4328688802    0.0354496376
 N    0.0078689305   -0.0132627677    0.0151622049
 C   -0.0242567621   -0.7897158470   -1.1203353224
 C   -0.0271860580   -2.1100423861   -0.7416353750
 C    0.0044611256   -2.1353829641    0.6792386106
 C    0.0257926110   -0.8314576798    1.1269599670
 C    0.0619085218   -0.2854784061    2.5160087284
 H    0.9203570119    1.8187509444    0.5260134822
 H    0.0039101879    1.8023044124   -0.9912638954
 H   -0.8550885783    1.8334582137    0.5591157298
 H   -0.0421834985   -0.3282464925   -2.0953536106
 H   -0.0493701649   -2.9592817273   -1.4071475628
 H    0.0111963895   -3.0098454567    1.3130803833
 H    0.9549331689    0.3238083625    2.7078463332
 H   -0.8090352298    0.3420615652    2.7465002289
 H    0.0690729353   -1.1107004711    3.2317996004