22

 C    0.3834230801    1.4178797779    0.4066765865
 C    0.0433685066   -0.0280394246    0.0385145220
 C    0.7003881563   -0.4628070838   -1.2661812108
 O    0.4699490532   -0.9654099082    1.0280599003
 C   -0.2442628109   -0.9300345356    2.2256249337
 C    0.2113377094   -1.8675964916    3.2998185855
 C    0.3799631502   -0.3700590533    3.4879978285
 C    1.7679159532    0.2288792480    3.4708302468
 H    1.4666145334    1.5462984137    0.4978442460
 H    0.0195187963    2.1003487078   -0.3684345178
 H   -0.0793123058    1.7062227354    1.3541948212
 H   -1.0518195692   -0.1139086517   -0.0661630109
 H    1.7899579865   -0.3978927527   -1.1819328358
 H    0.4364258589   -1.4972288315   -1.5005779400
 H    0.3791180498    0.1779905202   -2.0926252075
 H   -1.3185636324   -0.7956288680    2.0907697170
 H   -0.5311705528   -2.4045339222    3.8798331840
 H    1.1121359819   -2.4328605113    3.0832936314
 H   -0.3140906813    0.1012338440    4.1802460202
 H    2.3694119304   -0.2199706821    2.6759211464
 H    1.7355034500    1.3093655047    3.2924542592
 H    2.2815280161    0.0632018751    4.4241397741