21

 C   -0.3060184626    1.6503142430   -0.0126296676
 C   -0.1254535938    0.1396328838    0.0914610302
 C   -1.3845197320   -0.5998104218   -0.3566210744
 O   -1.6261088214   -0.2750624940   -1.7176496278
 C    1.1442709118   -0.4795726787   -0.5403441233
 O    1.4457349275   -1.2066623164    0.6750862809
 C    0.4240508192   -0.4785099866    1.4084113596
 C    1.0906030333    0.4101597327    2.4481897822
 O    1.8632610873   -0.3882907942    3.3244623263
 H    0.6098117298    2.1923878137    0.2362995038
 H   -0.5960127560    1.9175564544   -1.0319795662
 H   -1.0991469480    1.9989749465    0.6588022988
 H   -1.2334943961   -1.6826361133   -0.2281192861
 H   -2.2316083689   -0.3018542931    0.2835436884
 H   -2.3985700983   -0.7638540574   -2.0151900016
 H    0.9860923674   -1.1467963311   -1.3931826935
 H    1.9311606800    0.2440293992   -0.7886192926
 H   -0.2525161053   -1.1769604284    1.9198679212
 H    1.7119257375    1.1738348407    1.9558301479
 H    0.3401492328    0.9277173241    3.0559919978
 H    2.4165388955   -0.9357951531    2.7525706958