15

 O    0.1703092891    1.3758864587    0.2840628905
 C    0.0771681055   -0.0185339581    0.1396898493
 C   -1.3799610471   -0.5381449590   -0.0238811281
 C   -2.5506274764    0.4240596683   -0.3276744721
 N   -2.8968359280    0.2022596717   -1.7505734447
 C   -2.0277306020   -0.5632731877   -2.2658257214
 N   -1.0232596593   -1.0573333779   -1.3824501604
 C    0.2851448104   -0.4996244787   -1.3216604205
 O    1.1405121555   -0.3700854298   -2.1453560169
 H    1.0129692199    1.6552415257   -0.0928084882
 H    0.6698642648   -0.5555281183    0.8922793753
 H   -1.6486607311   -1.3365751871    0.6697907411
 H   -3.4211670146    0.2189360513    0.2991099962
 H   -2.2790658189    1.4759267179   -0.1932979579
 H   -2.0007158279   -0.8450966670   -3.3121438222