25

 C   -0.0160428820    1.4607043210    0.3352273750
 C   -0.0336499767   -0.0563639535    0.1303044156
 C   -1.4484219126   -0.6287337057   -0.0037417455
 C   -1.4740659063   -2.1475990289   -0.2060195594
 C   -2.8826450771   -2.7078833931   -0.2839887694
 C   -3.0835275894   -4.2361115536   -0.2079111425
 C   -4.0135749506   -3.9151736361    0.9828310048
 C   -3.7379616173   -4.5609461684    2.3251553070
 O   -3.6271890911   -2.5189446468    0.9471241646
 H    1.0060178453    1.8403137499    0.4326805438
 H   -0.4848777903    1.9799773815   -0.5082610707
 H   -0.5645091792    1.7430880994    1.2407043024
 H    0.5491813137   -0.3127750573   -0.7648265221
 H    0.4751799521   -0.5454585523    0.9716851576
 H   -2.0326023324   -0.3854915796    0.8921997903
 H   -1.9602424503   -0.1406012673   -0.8452431468
 H   -0.9421938100   -2.4166234790   -1.1298966691
 H   -0.9456567236   -2.6412715862    0.6202116697
 H   -3.4225040619   -2.2464232858   -1.1253229556
 H   -3.5393456618   -4.7181319552   -1.0739891191
 H   -2.1797763119   -4.7820186382    0.0769200961
 H   -5.0785870696   -4.0189582285    0.7276934575
 H   -2.6768343252   -4.4842441908    2.5816284303
 H   -4.3176340786   -4.0687344176    3.1126924863
 H   -4.0185400233   -5.6199937079    2.3057105693