25

 C   -0.4851136322    1.3569737300    0.0267968643
 C    0.1147305170   -0.0509368408   -0.0572598553
 C    1.2606822082   -0.1233128892   -1.0610567974
 O    0.6466635406   -0.4817147596    1.1889979069
 C   -0.3124196783   -0.8378051406    2.1673061717
 C    0.4090505251   -1.5101615792    3.3054940108
 C    1.0410104006   -0.6957795262    4.4089878608
 C   -0.1510117415   -1.5703145060    4.7106811418
 C   -1.4857850235   -0.9745774784    5.1078556775
 H    0.2772629644    2.0726576874    0.3517779435
 H   -0.8598879590    1.6718898018   -0.9524675372
 H   -1.3212729731    1.4030099133    0.7304543875
 H   -0.6782206398   -0.7545500062   -0.3669154847
 H    2.0642023328    0.5600811821   -0.7682198772
 H    1.6708944109   -1.1358630588   -1.0980328077
 H    0.9182090341    0.1540175421   -2.0625096586
 H   -0.8600535310    0.0464078675    2.5252764225
 H   -1.0585757330   -1.5221962219    1.7264080535
 H    0.9652394694   -2.3866231242    2.9842356845
 H    2.0192684931   -0.9840952700    4.7774292064
 H    0.8756575001    0.3774099485    4.3849861070
 H    0.0765324293   -2.4953466771    5.2350130923
 H   -1.6674921291   -0.0108557421    4.6237625225
 H   -2.3180828795   -1.6394663010    4.8498819277
 H   -1.5223615854   -0.8049531615    6.1897948967