19

 O    0.1246478652    1.3403225901   -0.3355177236
 C    0.0240686721   -0.0456940271   -0.0461438946
 C    0.7571731663   -0.4299307401    1.2563811489
 C    0.4844249704    0.4999080376    2.4503124984
 O   -0.8379992962    0.4872402455    2.9559920480
 C   -1.8033751030    1.0966240815    2.1075396258
 C   -2.3396051761    0.1038575154    1.0913624830
 O   -2.4516644816    0.5295509234   -0.2750919592
 C   -1.4550003069   -0.4284659804    0.0493326190
 H    1.0597373478    1.5511393651   -0.4272964233
 H    0.4582041923   -0.6286986252   -0.8735037513
 H    0.4966979417   -1.4615720673    1.5232727806
 H    1.8416457197   -0.4182800223    1.0753599448
 H    1.1178464285    0.1879173437    3.2870381549
 H    0.7707678283    1.5269597219    2.1783131192
 H   -2.6079156456    1.4440434420    2.7632104014
 H   -1.3822093042    1.9567078237    1.5747714559
 H   -3.1639280497   -0.5255984173    1.4279060237
 H   -1.6606543390   -1.4352635502   -0.3180590316