17

 C    0.0211778759    1.5199802873   -0.0451251793
 C   -0.0465790845    0.0012754265   -0.0262586414
 C   -1.1777829103   -0.6134209239    0.8531184073
 C   -0.0530529189   -1.2396122834    1.6946859414
 O    0.0288937784   -1.9818141802    2.6241378992
 N    0.9645234761   -0.6272180122    0.8902370567
 C    1.8370322869   -1.3815329075    0.0678947430
 N    1.5674811213   -1.4046989140   -1.1739490372
 C    0.3146531298   -0.6521717286   -1.3899412467
 H    0.9775727224    1.8591438835   -0.4552628076
 H   -0.7804946838    1.9278064835   -0.6705558658
 H   -0.0839240512    1.9329704733    0.9624981450
 H   -1.8285296370    0.0885776640    1.3797536483
 H   -1.7914876599   -1.3715744900    0.3599874188
 H    2.6741616064   -1.9048171782    0.5168245441
 H   -0.4487885898   -1.3450308365   -1.7643065017
 H    0.4692149283    0.1038571564   -2.1657242440