20

 C   -0.1320387905    1.5690465263    0.0367103602
 C   -0.0005343227    0.0481511125    0.0123880466
 C   -1.3589364537   -0.6088189077   -0.2439740428
 C    1.1151774323   -0.5393755637   -0.9219978730
 C    1.7758463516   -1.2456363738    0.2928611091
 N    2.7849699514   -0.4576128811    1.0043049701
 C    1.8842551114    0.1962533265    1.8283156036
 O    2.0175441955    1.0813038996    2.6304362485
 C    0.7102329022   -0.6205883555    1.2497559895
 H    0.8253905065    2.0611136671    0.2271171970
 H   -0.5148749303    1.9326251968   -0.9239537828
 H   -0.8276466809    1.8915612047    0.8189636152
 H   -1.7630310673   -0.2968622896   -1.2138157753
 H   -1.2845982330   -1.7017245728   -0.2483486970
 H   -2.0813968314   -0.3252205271    0.5295618825
 H    0.7291379434   -1.2266488306   -1.6793165268
 H    1.7573114096    0.1960001005   -1.4136064234
 H    1.9889773086   -2.3130193846    0.2307454102
 H    3.6995125499   -0.1505016666    0.6995569800
 H    0.0945854972   -1.1863832309    1.9475890387