18

 C   -0.1719292826    1.4452399194   -0.0871716761
 N   -0.1353208333   -0.0058662890   -0.0973671948
 C    0.6273394789   -0.6057361062   -0.9158042823
 O    1.3945123116    0.0664420855   -1.8318126223
 C    2.5134117382   -0.6262660904   -2.3860731794
 C    2.1240557819   -1.9902588150   -2.9524315386
 O    3.3490087463   -2.6365898171   -3.2731527203
 C    1.3248318977   -2.7320060566   -1.9120263099
 C    0.6608265761   -2.0717128272   -0.9611578583
 H    0.7432153830    1.9170840289   -0.4621125478
 H   -1.0084390791    1.7984737328   -0.7048553418
 H   -0.3643635527    1.7854888351    0.9348941623
 H    2.9169657536    0.0251860690   -3.1630418171
 H    3.2849279213   -0.7827205050   -1.6214626529
 H    1.5134908555   -1.8492547512   -3.8601102588
 H    3.1478250081   -3.4498876189   -3.7461248971
 H    1.3071434270   -3.8177270685   -1.9641693647
 H    0.0752258587   -2.5670529456   -0.1964236702