15

 C   -0.0137908991    1.5446534538   -0.0308715259
 O    1.3756545608    1.9575498328   -0.0115197616
 C    2.1729371510    0.8132120948   -0.0385152510
 C    1.3328853829   -0.2517408268   -0.7380284824
 C    0.0436330465    0.0147662867    0.0568641794
 N    0.2332165362   -0.4043410904    1.4563828196
 C    1.3938667157   -0.2061802915    1.9269459866
 O    2.4602306569    0.3641501828    1.3119189432
 H   -0.5311846216    1.9950535249    0.8194939507
 H   -0.4765796662    1.8884541813   -0.9645269032
 H    3.1447064600    1.0599180612   -0.4639064203
 H    1.2248756335   -0.0177195899   -1.8004755723
 H    1.7215171502   -1.2637259796   -0.6174611519
 H   -0.8493599183   -0.4654447309   -0.3451065946
 H    1.6495223416   -0.5045439591    2.9414138337