13

 O    0.0392669513   -0.0600992326    0.0019120348
 C   -0.0411453351    1.1377119379    0.0095260448
 C   -1.2213841666    2.0463060435    0.0315585549
 C   -0.8060214796    3.3325015247    0.0324073867
 C    0.6462820712    3.3579202874    0.0113847008
 C    1.7873888532    4.1156882074   -0.0012365900
 N    2.9057786706    3.2911674318   -0.0219643761
 C    2.4451587100    2.0629628793   -0.0217706286
 N    1.0750655468    2.0460695313   -0.0018666132
 H   -2.2319442983    1.6678299019    0.0442395704
 H   -1.4313054223    4.2143101745    0.0462313820
 H    1.8896636947    5.1899558579    0.0029960977
 H    3.0364207940    1.1602929651   -0.0352100842