25

 C   -0.0525001242    1.5833877198   -0.0504026024
 C    0.0330053740    0.0547624448   -0.0378069448
 C    0.6922260891   -0.5035041967    1.2282138378
 C    0.7806297484   -2.0338543659    1.2451035868
 C    1.4619345492   -2.6101311063    2.4894243684
 C    0.7207924731   -2.3402789180    3.8307971641
 C    0.9917807692   -3.5867956418    4.6393516048
 C    1.4971517100   -4.5666797653    3.8925561350
 C    1.6544877948   -4.1524658503    2.4495392517
 H    0.9434432397    2.0362853737    0.0113716727
 H   -0.5284677712    1.9509808415   -0.9650180135
 H   -0.6354209768    1.9544306650    0.8001125859
 H   -0.9750605065   -0.3694817910   -0.1372852584
 H    0.5926247846   -0.2886037606   -0.9181638059
 H    1.7024153382   -0.0810400610    1.3269243745
 H    0.1333174158   -0.1563133876    2.1076931344
 H   -0.2302789613   -2.4588918136    1.1622341264
 H    1.3238845556   -2.3703387509    0.3511037323
 H    2.4598614554   -2.1601647939    2.5739645560
 H    1.0660232999   -1.4248771122    4.3246268545
 H   -0.3611491592   -2.2110865923    3.6716940311
 H    0.7561324686   -3.6614525192    5.6956231140
 H    1.7371304072   -5.5639681438    4.2454759108
 H    0.8888483024   -4.6355722416    1.8231066181
 H    2.6219256441   -4.4382623229    2.0200549158