14

 C    0.0330345662    1.4628569955   -0.0032520106
 N   -0.0016970649    0.0071936842   -0.0056366491
 C   -0.0466696189   -0.6838605923    1.1955041668
 O   -0.0593839131   -0.1433291319    2.2763591284
 C    0.0116243636   -0.6432753980   -1.2285136320
 C    0.0533219747   -0.1401696658   -2.4943005496
 O    0.0487997207   -1.1759988884   -3.3459947409
 N    0.0028921784   -2.3436647875   -2.5726874731
 N   -0.0179412226   -2.0144801233   -1.3526750820
 H    0.9458559335    1.8271297327   -0.4873866774
 H   -0.8376932696    1.8697852692   -0.5291543383
 H    0.0163808205    1.7853633046    1.0366313838
 H   -0.0693061315   -1.7726184910    1.0476745359
 H    0.0866526830    0.8485844419   -2.9150245017