19

 C   -0.0305503535    1.5357742796   -0.0370679975
 C    1.4803157749    1.8864584368    0.0337169798
 C    2.1271020733    0.6456927317    0.6615388866
 O    3.4240984882    0.3939597492    0.1365662876
 C    3.9644594082   -0.8216063808    0.6218779808
 C    3.0032327262   -1.9836888591    0.5869082634
 C    1.6847584924   -1.8173886521    0.4089908929
 C    1.1633303389   -0.4704331151    0.3148546136
 C   -0.0297856634    0.0231942241   -0.0367464076
 H   -0.5763736221    1.9339936343    0.8305978091
 H   -0.5196124445    1.9580298656   -0.9221588665
 H    1.8877965756    1.9919517680   -0.9766329211
 H    1.6882004879    2.8084614283    0.5811764331
 H    2.2017941600    0.7427587659    1.7606711966
 H    4.8343991050   -1.0375922158   -0.0096698789
 H    4.3495732264   -0.6939790280    1.6522361235
 H    3.4379051773   -2.9729741924    0.6998915015
 H    1.0134502065   -2.6678558623    0.3287830799
 H   -0.9030892475   -0.5674177479   -0.2937821469