21

 C   -0.2463240022    1.5913876204   -0.0451564115
 C    0.0060957696    0.0795109868    0.0020978038
 C    0.7840040010   -0.4535613500   -1.1994751531
 C    0.0422496836   -0.4884758233   -2.5644631872
 O    0.3639718574   -1.8807021513   -2.7498821716
 C    0.9099617612   -1.9925096782   -1.4155578311
 C    2.3993267317   -2.3616490822   -1.4118507127
 C    3.0781486797   -1.0106692310   -1.4236135897
 C    2.2193685091    0.0025253886   -1.3045653822
 H    0.6901747212    2.1579126405   -0.0371371286
 H   -0.7988308290    1.8752263103   -0.9477885872
 H   -0.8352795381    1.9161778829    0.8177936837
 H    0.5498606533   -0.1738588466    0.9210625294
 H   -0.9563230870   -0.4452305405    0.0569506886
 H   -1.0431040645   -0.3277786100   -2.4902797711
 H    0.4454434257    0.1381802184   -3.3682688887
 H    0.2881854465   -2.6398729045   -0.7856927508
 H    2.6833136346   -2.9562454686   -0.5330777465
 H    2.6349518959   -2.9657985129   -2.2960768697
 H    4.1535346036   -0.9014516008   -1.5180535950
 H    2.4974661367    1.0510083020   -1.2966331988