19

 C   -0.0710201604    1.4898161763   -0.5083766628
 C    0.0047236026    0.1448032285    0.2219583275
 C   -1.3374089675   -0.5740851788    0.2554556078
 N   -1.7458425052   -1.2849027316   -0.9794090933
 C   -1.5151273067   -2.0672094253    0.2423784094
 C   -0.3822123442   -3.0678665066    0.1831365124
 O   -0.7632117849   -4.1963130604   -0.5831780631
 C   -2.3819231056    0.1500885983    0.9551337007
 N   -3.2123509676    0.7392403209    1.5047959230
 H    0.9107620924    1.9706479096   -0.5292879889
 H   -0.4034452746    1.3476389328   -1.5410040180
 H   -0.7699724714    2.1725947161   -0.0156392592
 H    0.7280247237   -0.5030646611   -0.2777449564
 H    0.3526409404    0.2876786355    1.2515203721
 H   -2.7397575261   -1.1624113536   -1.1551347238
 H   -2.3969732114   -2.4379271282    0.7612227537
 H    0.5277880154   -2.6023862586   -0.2158890392
 H   -0.1591071479   -3.4384042915    1.1886939381
 H   -0.9517679512   -3.8757866725   -1.4727778899