21

 C   -0.2630107972    1.5100828635   -0.0810856189
 C   -0.0246694083    0.0056961967   -0.0545987922
 C    1.1669001830   -0.4908078395   -1.0048550781
 C    2.0787083877   -0.3988722765    0.2663307019
 C    2.7362913096   -1.1975379933    1.4527929982
 C    1.7740225511   -0.3025117688    2.3679926689
 C    0.8418750244   -0.5657810513    1.1238778691
 C    0.7378014907   -2.1042857900    1.2468356826
 O    2.1131235433   -2.4706219567    1.4790386365
 H    0.6626463196    2.0746106964    0.0709225825
 H   -0.6836279673    1.8172528190   -1.0445459374
 H   -0.9676539458    1.8081529209    0.7021761332
 H   -0.9774899715   -0.5140327030   -0.2015045782
 H    1.0028101189   -1.4931298669   -1.4010705989
 H    1.4322940199    0.1750425083   -1.8301346637
 H    2.4373911337    0.6312687515    0.3368651427
 H    3.8081555302   -1.2993727188    1.6264083315
 H    1.5112045791   -0.7373548230    3.3372615024
 H    2.0974574472    0.7328635765    2.4733613773
 H    0.1173286733   -2.4039310506    2.1004704939
 H    0.3645681283   -2.6114632643    0.3518051865