16

 C   -0.0191948026    1.5772305900   -0.0779758594
 C   -0.0300060221    0.0758714770    0.0505860812
 O    1.2044645969   -0.6421687461   -0.1367520622
 C    0.6460355747   -0.6545294583    1.1724096970
 C    1.4131886375    0.0466755219    2.2751945804
 C    0.1070706907   -1.9459202345    1.5906333509
 N   -0.3027867711   -2.9580520620    1.9690338199
 C   -1.1976382567   -0.6164179785   -0.6162675647
 O   -2.1637909084   -0.0245909900   -1.0189142065
 H    0.8574229956    2.0240574744    0.3889387331
 H   -0.0264030846    1.8503407528   -1.1368039169
 H   -0.9243035430    1.9925068557    0.3720492285
 H    1.8670290188    0.9665282046    1.9086445538
 H    0.7495283852    0.2779338805    3.1130966017
 H    2.2076788599   -0.6100270556    2.6405329631
 H   -1.0760121208   -1.7129500520   -0.7247470899