19

 O    0.0521520484    1.4419299693   -0.0410601380
 C   -0.0045374651    0.0191519447   -0.0209369532
 C    0.7028145175   -0.5650274255    1.2087727289
 C   -0.1052795921   -0.3263236463    2.4623905957
 C   -1.4188767404   -0.0917530049    2.4498985631
 C   -2.2479511116   -0.0474407470    1.1898218700
 C   -1.4489178479   -0.4609886419   -0.0331488923
 C   -2.1125841515   -0.7927141561   -1.2943504607
 O   -1.5951425942   -1.8288182895   -0.4489570108
 H   -0.1275246097    1.7485970473    0.8552644467
 H    0.4917485698   -0.3162748197   -0.9363341284
 H    0.8587508264   -1.6417277562    1.0591549865
 H    1.6974442979   -0.1132333189    1.2965459812
 H    0.4255969122   -0.3557872704    3.4104523050
 H   -1.9474284471    0.0805915259    3.3842456264
 H   -3.1171788074   -0.7093505723    1.2806483548
 H   -2.6497171124    0.9657229181    1.0442099880
 H   -3.1993202987   -0.7490655205   -1.3608572161
 H   -1.5856451742   -0.6483487260   -2.2366981167