16

 C    0.5272200647    1.3360761517    0.1667742463
 C   -0.2684843722    0.0657939811   -0.0203123943
 O   -1.0418762968   -0.3619993860    0.8106676185
 C   -0.0496067934   -0.6764642920   -1.2934142734
 C   -1.0728842847   -1.7251699026   -1.7839814816
 C    0.2988062729   -2.1586684983   -1.4928675184
 O    1.1778085475   -1.8305054378   -2.5938186369
 C    0.9511947481   -0.4674222513   -2.3842856980
 N    1.4838540857    0.5325210628   -2.9170727785
 H    1.5960280429    1.0985612563    0.2213037936
 H    0.4090985248    1.9944961765   -0.6990738095
 H    0.2118336514    1.8333115140    1.0843148759
 H   -1.8137515220   -1.9366831220   -1.0197483224
 H   -1.4185800912   -1.6845745783   -2.8113395120
 H    0.6429117421   -2.8855852974   -0.7705545073
 H    2.1700627802    0.2621465532   -3.6231756418