15

 N    0.1121209172    1.4116830303    0.1387499176
 C   -0.0306664086    0.0191433757    0.0364446257
 C   -1.1917798016   -0.6864715866   -0.0121547380
 N   -1.2277063104   -2.0570587792   -0.0098066456
 C   -0.1057292022   -2.7161166152    0.0111655869
 N   -0.0652259120   -4.0806630611    0.0642143029
 C    1.2277729446   -2.0748551718    0.0213635300
 O    2.2893487389   -2.6836869140    0.0054326586
 N    1.1497833462   -0.6976969069    0.0561686255
 H    0.6397029220    1.8152519247   -0.6299990807
 H   -0.7884323062    1.8706163950    0.1910655799
 H   -2.1455191359   -0.1727718076   -0.0530052598
 H   -0.9032934354   -4.5762870451   -0.1906453272
 H    0.8255910799   -4.4943933954   -0.1638342271
 H    2.0296972435   -0.2078564627    0.1492346811