17

 C   -0.0869966838    1.5220707335   -0.0521856539
 C   -0.0313144273    0.0311676611   -0.0311293811
 C    0.0604283987   -0.9706415017   -1.1430368777
 N    1.2703805190   -1.7624163114   -1.0063379131
 C    1.6244572458   -1.5781506496    0.2022724674
 N    0.7662682044   -0.7429209809    1.0193007005
 C   -0.4750653983   -1.6309543980    1.2308874519
 C   -1.0496919933   -1.0745183428   -0.0535554122
 O   -2.3834570097   -0.9686285496   -0.3837298428
 H    0.8879083851    1.9505353324   -0.3077825353
 H   -0.8153786344    1.8582159671   -0.7962254409
 H   -0.3877475157    1.9169016870    0.9235045932
 H   -0.2898646108   -0.7408379066   -2.1418786813
 H    2.4809246788   -2.0592578865    0.6635357633
 H   -0.2607965974   -2.7020750092    1.3216749960
 H   -1.0184105153   -1.2809422824    2.1106340031
 H   -2.6450919858   -1.7561310225   -0.8738107571