23

 C    0.0774934245    1.5117769716    0.2493529849
 C   -0.0330838216    0.0143682745   -0.0523221576
 C    0.6651735673   -0.4480910299   -1.3520689883
 C    0.0913700295    0.2551902468   -2.5849904566
 O    2.0517633828   -0.0765801825   -1.3216548802
 C    0.5399785895   -1.9849462630   -1.4567549600
 C    1.2921699935   -2.6056304083   -2.6520032325
 C    1.3184100332   -4.0618074163   -2.5987543565
 C    1.3257464169   -5.2622175773   -2.5313078700
 H    1.1190010791    1.8400174962    0.1930449934
 H   -0.5024182779    2.1154617111   -0.4548049804
 H   -0.2980262692    1.7301025883    1.2535592287
 H    0.4083920828   -0.5529619655    0.7796858856
 H   -1.0873747697   -0.2866662175   -0.0907811820
 H    0.1967195172    1.3380640621   -2.4924871214
 H    0.6246098210   -0.0481303574   -3.4887774068
 H   -0.9691577635    0.0162408561   -2.7087897231
 H    2.4422925541   -0.4643833940   -0.5302088662
 H    0.9349327255   -2.4278942258   -0.5332692591
 H   -0.5180141062   -2.2668531123   -1.5010375708
 H    0.8304906804   -2.2910658184   -3.5952031852
 H    2.3143694667   -2.2104284197   -2.6651986871
 H    1.3400511040   -6.3226797886   -2.4857872289