20

 C    0.1127381749    1.2327422708   -0.2502140684
 O   -0.1973284146   -0.1038285023    0.0801110058
 C    0.5565225724   -0.6009091040    1.1517151580
 C    0.2637677154   -2.0203797759    1.5909627501
 N    1.0869328839   -2.9923200726    0.7842811157
 C    1.8527538905   -2.1310378553   -0.1789737887
 C    2.0256688333   -1.0752418044    0.9195204669
 C    1.6960076350   -2.2519989840    1.9248161109
 C    2.3944114570   -2.8582860856    3.0930795177
 H    1.1528131547    1.3447639182   -0.5909356006
 H   -0.5559835313    1.5315618553   -1.0606367686
 H   -0.0430227598    1.9074797219    0.6062007632
 H    0.5074552298    0.0823427081    2.0137974265
 H   -0.6300757064   -2.4145548583    2.0561929234
 H    2.7802248640   -2.6475340061   -0.4377512916
 H    1.3066362688   -1.8439410570   -1.0825882882
 H    2.8586884604   -0.3755149170    0.9586137470
 H    2.4812768744   -2.1438086996    3.9190375896
 H    1.8356481616   -3.7287468312    3.4502559423
 H    3.4041463761   -3.1908054909    2.8279075493