16

 C   -0.0118673172    1.4953086139   -0.0913178806
 C   -0.1064665463    0.0128392749    0.0863021196
 O    0.3552317856   -0.7574837457   -1.1020604022
 C   -0.7665367845   -1.6120198030   -0.9718263166
 C   -0.8829265632   -2.1120941901    0.4785255105
 N    0.2380436108   -1.8997141936    1.3491825713
 C    0.7600798094   -0.6292714573    1.1911552419
 O    1.7447884030   -0.1691894589    1.7192233827
 C   -1.4385568178   -0.7724417356    0.0798529066
 H    1.0400546791    1.7894571903   -0.1385463896
 H   -0.5209078753    1.8118686073   -1.0047592610
 H   -0.4659779531    2.0037026579    0.7653324193
 H   -1.1166664375   -2.1414371057   -1.8503918404
 H   -1.5499085278   -2.9325559017    0.7107764729
 H    0.8479258805   -2.6474116071    1.6431152507
 H   -2.4442814259   -0.4032633057    0.2282067349