13

 O    0.6026851574    0.8309156375    0.7015347862
 C    0.2198392133   -0.2767904253   -0.0323594671
 C   -1.3125310449   -0.6790346715   -0.1949377085
 C   -1.0274666133   -1.0687587575   -1.6853668206
 C    0.2494834897   -0.2241000978   -1.5679228036
 O    0.8753032497    0.4569221351   -2.3258149356
 C   -1.8239003415   -1.7063641126    0.6891367625
 N   -2.2106143431   -2.5410589725    1.3897723681
 H    0.6142917641    1.5965192980    0.1142686117
 H    0.7617588846   -1.1569187900    0.3353515298
 H   -1.9357140559    0.2167745862   -0.1373775346
 H   -0.8155808022   -2.1345513836   -1.8029618115
 H   -1.7532308880   -0.7554981461   -2.4360645770