20

 C   -0.0346004142    1.3999257782   -0.0624714256
 O   -0.0486973560    0.0250129503    0.2396306269
 C   -1.3061131720   -0.5952531786    0.0438362867
 C   -1.6791092209   -0.8875648226   -1.4050324031
 C   -1.9733684813   -2.1739892273   -1.5928690516
 C   -1.7639377404   -2.9495970755   -0.3317278131
 N   -0.3315826494   -2.9033191328    0.0921657605
 C   -1.3177694148   -1.9808813167    0.7007642116
 C   -1.6295887016   -2.0757278453    2.1701490728
 H    0.9571678061    1.7767022049    0.1999052942
 H   -0.2107711043    1.5998277818   -1.1300620035
 H   -0.7898053321    1.9541692507    0.5186452174
 H   -2.0853554250    0.0358142170    0.5115438418
 H   -1.6854271846   -0.1203110957   -2.1702074152
 H   -2.2725316132   -2.6287832680   -2.5301357650
 H   -2.3596257308   -3.8235912894   -0.0902202448
 H   -0.1681321262   -3.6564554437    0.7610101469
 H   -0.8454491361   -1.5862145483    2.7587262067
 H   -2.5803391409   -1.5857485624    2.4078567520
 H   -1.6991573024   -3.1187698967    2.4966408645