15

 C   -0.0726878842    1.4949448240   -0.1302628145
 C    1.2612995588    0.8349777766    0.0478206358
 O    2.0161525291    0.8960445962    1.2187045460
 C    1.3040885831    0.7846128596    2.4471905885
 C    0.2327405792   -0.2716542145    2.4251662762
 C   -0.3462417575   -0.6523165856    1.2853901264
 C    0.0274220053   -0.0338645758   -0.0065290913
 H   -0.5245381866    2.0169212988    0.7053980890
 H   -0.3029493162    1.9156775339   -1.1033601480
 H    1.9366006473    0.8214917143   -0.8005606569
 H    2.0643186177    0.5464145644    3.1990614150
 H    0.8825090752    1.7652976245    2.7294435271
 H   -0.0474828992   -0.7124603034    3.3768301842
 H   -1.1025265796   -1.4319292324    1.2804108234
 H   -0.1582158324   -0.6167555307   -0.9022397008