18

 C   -0.1818580626    1.5592254210    0.0601847457
 C    0.0164381604    0.0402594519   -0.0419340230
 C    0.7919086210   -0.4565530375   -1.2374509336
 C    1.8252341688   -1.1973657909   -0.8165478275
 C    2.8719801143   -1.9396922089   -1.5831190287
 O    4.1802697289   -1.6982009063   -1.0752093928
 N    1.8496839894   -1.2628142363    0.5888817850
 C    0.8412169566   -0.4995196379    1.1480902995
 O    0.6661293718   -0.2939493916    2.3267998838
 H    0.7734478094    2.0847750758   -0.0317514881
 H   -0.8468876729    1.9204455776   -0.7294552680
 H   -0.6179226324    1.8079442673    1.0312684390
 H   -0.9700886478   -0.4427630009    0.0107387460
 H    0.5327236731   -0.2687931306   -2.2694430491
 H    2.7235276920   -3.0211255789   -1.4787102326
 H    2.7853186514   -1.6946358979   -2.6502627695
 H    4.3684996743   -0.7599384443   -1.1873490374
 H    2.6269972543   -1.6272709918    1.1164266513