15

 O   -0.0091050859    0.0473662370   -0.2121880688
 C   -0.0365353394    1.2236456206   -0.0202879319
 C   -1.1032823140    2.2682773203    0.3613467369
 N   -0.0100813303    3.2862845506    0.4748087498
 C    0.9908032788    2.3350287575   -0.0180026342
 C    2.4347302064    2.2543837746    0.3526858180
 C    2.0602898086    2.6059025859   -1.0768887304
 C    2.2801198225    1.6839179141   -2.1551324458
 N    2.4631297232    0.9565134149   -3.0357242859
 H   -1.8328494706    2.4452334252   -0.4374322012
 H   -1.6333006469    2.0835510382    1.3001754462
 H   -0.1488526080    4.0835071963   -0.1365414176
 H    2.8422447994    3.0555387678    0.9587207313
 H    2.8400049460    1.2649307489    0.5339475656
 H    2.1707877602    3.6503667181   -1.3545861319