19

 O   -0.0218360894    1.3432836036   -0.4246546019
 C    0.0056889850    0.0348870461    0.1215163853
 C   -1.3772095189   -0.5438284339    0.2492844295
 C   -2.4283971803    0.0732504639    1.1547570996
 C   -3.6244120041   -0.9130788978    1.0763587331
 O   -4.5320822307   -0.5632461730    0.0474026357
 C   -2.9690393828   -2.2977642667    0.8168110118
 C   -1.7161573390   -1.9590495517    0.0361898227
 O   -1.9507605545   -0.9929457246   -1.0124970746
 H   -0.4200984592    1.2729065258   -1.2995411554
 H    0.6290169159   -0.6428647587   -0.4801848059
 H    0.4650884141    0.1281928562    1.1115465429
 H   -2.0288011756    0.1406641293    2.1742104944
 H   -2.7269506605    1.0767515932    0.8431977385
 H   -4.2094720871   -0.9107892622    1.9988471593
 H   -4.0113846741   -0.5647788272   -0.7670629082
 H   -2.6871823457   -2.7953710433    1.7528819831
 H   -3.6561630726   -2.9539936785    0.2758352634
 H   -0.9705547505   -2.7141159405   -0.2010658033