15

 O    0.0300603917   -0.0008830795   -0.0245421895
 C    0.0028249924    1.2005224843    0.0118846567
 C   -1.2682099452    2.0600283613    0.0626623137
 C   -0.8732068048    3.3647737360    0.7513464008
 O   -0.1108525335    3.0106787694    1.9523520413
 C    1.0942593139    3.1526586028    1.2010318168
 C    0.4298431438    3.9691535987    0.0962719988
 O    0.9522056309    3.1579507337   -0.9583518976
 C    1.2329061923    2.1050830999    0.0187669382
 H   -1.6327376212    2.2375762465   -0.9553253341
 H   -2.0422108516    1.5277584989    0.6203723399
 H   -1.7042472203    4.0328954243    0.9821100570
 H    1.9755291236    3.3906063691    1.7958033157
 H    0.4870466448    5.0422017046   -0.0846041020
 H    2.1750213533    1.5887848900   -0.1640815857