18

 O    0.3865567240    1.1946701788   -0.5007921559
 C    0.0932657622   -0.1041654745   -0.0468753164
 C    0.1880749971   -0.3699963118    1.4866447618
 C   -1.3380409342   -0.6145353104    1.5378708782
 O   -2.0559924681    0.5206787623    2.0397821464
 C   -2.5931259353    1.2766241952    1.0304671031
 N   -3.1272080437    2.4085607947    1.1978326346
 C   -2.4494649767    0.5539479514   -0.2959275922
 C   -1.4220300427   -0.5333913102   -0.0130303733
 H   -0.0211463437    1.8392939908    0.0883079030
 H    0.7134079893   -0.7669591324   -0.6541065848
 H    0.7836274021   -1.2499206306    1.7426479807
 H    0.5312982619    0.4740407634    2.0907776782
 H   -1.6963574436   -1.5039219396    2.0592964471
 H   -3.1065875671    2.6720260142    2.1847869276
 H   -3.4195197116    0.1336460401   -0.5788348460
 H   -2.1437959584    1.2474951141   -1.0808550939
 H   -1.6180849913   -1.4731344953   -0.5294826282