17

 C   -0.0303488386    1.4833998919    0.0496412727
 C    0.0023443789   -0.0071694827   -0.0359275000
 C   -0.0132147905   -0.7568067703   -1.1510286020
 C    0.0305655004   -2.1776771588   -0.8266862080
 C    0.0806976072   -2.3237983568    0.6870592593
 C    0.0600238654   -0.8647447675    1.2107462073
 N    0.0311627746   -3.1999204699   -1.5952164777
 O   -0.0195887869   -2.8195009758   -2.9533172414
 H    0.8575734823    1.8652300575    0.5700106828
 H   -0.0754281949    1.9471475319   -0.9386614119
 H   -0.8972501857    1.8234617692    0.6307787736
 H   -0.0528211029   -0.3865255763   -2.1658639890
 H   -0.7718569993   -2.9038469691    1.0505202484
 H    0.9825018411   -2.8590999530    0.9963649538
 H    0.9473748038   -0.6236375636    1.8101088310
 H   -0.8019252363   -0.6667309625    1.8608477562
 H   -0.0131150084   -3.6726934241   -3.3986201351