18

 C   -0.1389918753    1.5537689166   -0.0350526500
 C   -0.0050060190    0.0421132898    0.0021455436
 C   -1.2393666103   -0.8092610134    0.4021441795
 N   -0.3401282310   -1.6867507581    1.1869662778
 C    0.7201413588   -0.6460724332    1.1821748700
 C    2.0460304266   -1.1608707337    0.6414894269
 O    2.9887698908   -1.5874181922    1.2420136269
 O    2.0239769980   -1.0622737895   -0.7158299298
 C    0.7777193695   -0.5388319383   -1.2050851357
 H    0.8417535127    2.0328277917   -0.1309848277
 H   -0.7477734869    1.8724238419   -0.8891759743
 H   -0.6131629691    1.9352379681    0.8743223491
 H   -1.9492500267   -0.2286206441    1.0071658175
 H   -1.7905821154   -1.3183388270   -0.3969869963
 H   -0.6685920450   -1.9708707005    2.1017897519
 H    0.8492337743   -0.0762021313    2.1072986731
 H    0.2341420073   -1.3522240900   -1.6959589655
 H    1.0179873706    0.2246826734   -1.9502055069