14

 C    0.0437714350    1.6869937220    0.2971580715
 C   -0.0293963805    0.1776690420    0.0580407330
 C    0.6451788127   -0.4164830665   -1.1876699138
 O    1.5964688482   -1.1501466227   -0.3384340280
 C    1.0594033145   -0.6386794232    0.8044349359
 O    1.3962243811   -0.8104936064    1.9298789292
 C   -1.4219963126   -0.3577304159    0.3461839316
 O   -2.0440631134   -1.0728487699   -0.3940588870
 H    1.0628607663    2.0555229036    0.1534053819
 H   -0.6181001625    2.2237777882   -0.3894524044
 H   -0.2572885454    1.9242466283    1.3219083366
 H    0.0284227850   -1.1044051896   -1.7650880558
 H    1.1743349114    0.2905085075   -1.8283533524
 H   -1.8341553198   -0.0307789475    1.3249683616