20

 C   -0.2252384569    1.0706457282   -0.2967655233
 C    0.3375665190   -0.2854700043    0.0702344728
 C    1.8373722942   -0.5359566803    0.1640152493
 O    2.7385265623    0.5318283829    0.0536403608
 C    0.9977702224   -0.5561874907    1.4158874758
 C    1.1607804174    0.5552752338    2.4306281562
 N    0.7449334532   -1.8163097839    2.0940822306
 C    0.5904800153   -3.0486145916    1.5504466706
 O    0.6552609413   -3.3321067988    0.3696531713
 H    0.4799505624    1.8766066662   -0.0798249353
 H   -0.4492300650    1.1100364772   -1.3685744766
 H   -1.1573415727    1.2811125352    0.2386988509
 H   -0.2058579907   -1.1340592319   -0.3293068802
 H    2.1948892461   -1.4896842845   -0.2112074945
 H    2.8339095694    0.7389817400   -0.8820702179
 H    1.4956005057    1.4739556594    1.9535658375
 H    0.2185107866    0.7532232797    2.9545974037
 H    1.9181922481    0.2809503504    3.1743195123
 H    0.6544797887   -1.7591605383    3.0964320418
 H    0.3905628033   -3.8067937387    2.3349801242