18

 C   -0.0129280670    0.9320685274    0.1703431629
 O   -0.4798460270   -0.1667165517   -0.6013676207
 C    0.4836593322   -0.6665611567   -1.4649056116
 C    1.5783227841   -1.5595942698   -0.8909596367
 O    1.5867195676   -1.8165258624    0.4764311926
 C    0.4619152884   -2.1682373441   -1.7042755400
 O   -0.3936770783   -2.9540567080   -0.9407424966
 C   -1.7536874094   -2.8989458641   -1.3543408760
 H    0.8392650938    0.6395369263    0.7928651323
 H    0.2785626034    1.7750125095   -0.4735182162
 H   -0.8436193926    1.2460007595    0.8068925986
 H    0.7345851157   -0.0222868498   -2.3110038400
 H    2.5783617107   -1.5078336999   -1.3109074251
 H    0.7900250773   -2.3367217867    0.6529515613
 H    0.6489801737   -2.5369654416   -2.7134053550
 H   -2.1449739048   -1.8794071755   -1.2829614628
 H   -1.8639132417   -3.2625324166   -2.3856392250
 H   -2.3121971659   -3.5579092656   -0.6856723520