20

 C    0.0461707017    1.4438702761    0.0472997834
 N    0.0222371561   -0.0113398698    0.1186837701
 C    0.8555291907   -0.5228188256    1.2010984120
 C   -1.3045478169   -0.5572033879    0.0449706324
 C   -1.5424773004   -2.0942295782   -0.1852144611
 C   -2.8088004421   -2.0426850461    0.7327565005
 O   -3.0514593539   -3.0585523104    1.6594825088
 C   -2.2007235348   -0.7516299958    1.2950592312
 O   -2.1487695752   -0.3722955410    2.4356833412
 H    1.0822362117    1.7850713940   -0.0448054780
 H   -0.4999201479    1.7798186529   -0.8402891877
 H   -0.3961461550    1.9357178463    0.9306334653
 H    0.5074593714   -0.2249548586    2.2025604868
 H    0.8984219368   -1.6145681266    1.1629524133
 H    1.8755984443   -0.1505220871    1.0650625562
 H   -1.8652014827   -0.0027815937   -0.7161504173
 H   -1.6948635870   -2.4023061019   -1.2190203885
 H   -0.7687688256   -2.7076601020    0.2787916452
 H   -3.7065690292   -1.8520475528    0.1299881190
 H   -2.8523595118   -2.6892199920    2.5305130672