14

 C   -0.0141892277    1.5223285752    0.0089911173
 C   -0.0057962132    0.0285329719    0.0550554220
 C   -0.0344496675   -0.8241528672   -1.0120920696
 O   -0.0163024250   -2.1774964477   -0.6383046725
 C    0.0239248523   -2.1021890134    0.6869082481
 C    0.0335692157   -0.8505325975    1.1995260076
 N    0.0767197605   -0.9609042831    2.5895409976
 C    0.0886457048   -2.2391099540    2.7882024059
 O    0.0578057473   -3.0390486851    1.6451247782
 H    0.8811199047    1.9365990005    0.4849717589
 H   -0.0509429312    1.8859669161   -1.0212058670
 H   -0.8787601829    1.9284576625    0.5449682458
 H   -0.0680030043   -0.6618785200   -2.0758377099
 H    0.1196951066   -2.7794104180    3.7199958276