17

 C    0.0299995049    1.3450750139    0.0099985800
 O   -0.0573321697   -0.0818359492    0.0029481921
 C   -1.2928400567   -0.5900800853    0.0100938453
 N   -2.3433087739    0.1262602551    0.0221851687
 N   -1.2420476042   -1.9821097949    0.0023053680
 C   -2.3517424575   -2.9441047918    0.0049511756
 C   -1.2941325492   -4.0811160235   -0.0099761918
 C   -0.2325475495   -2.9626207872   -0.0115164131
 O    0.9597118344   -2.9040235643   -0.0204624949
 H    1.0970795400    1.5678378190    0.0028927205
 H   -0.4591605429    1.7667151982   -0.8718586084
 H   -0.4453387149    1.7570911110    0.9038798324
 H   -3.1875893708   -0.4394680558    0.0259728250
 H   -2.9715143789   -2.8913553361    0.9049259044
 H   -2.9851151445   -2.8805433651   -0.8848003402
 H   -1.2699083886   -4.7149806130    0.8777027144
 H   -1.2836571180   -4.7042875511   -0.9054616979