20

 C   -0.0098128944    1.4620708331    0.0054904905
 C    0.0692606849   -0.0360761796   -0.0308290339
 C    0.6903173075   -0.9645149321   -1.1020535062
 C    0.0020763491   -1.8679546911   -0.0594252929
 C    0.6325732147   -1.0047539174    1.0765120859
 C   -0.0959019256   -0.9952796235    2.3839657675
 C   -1.4255387733   -0.9470347829    2.3585881276
 C   -2.0966060786   -0.9046482359    1.0113991622
 N   -1.1855451839   -0.9166329589   -0.1432277836
 H    0.9922858173    1.9016049371   -0.0327273548
 H   -0.5843203026    1.8360540761   -0.8481065059
 H   -0.4938573050    1.8042019670    0.9264626285
 H    0.2146506794   -0.9326453655   -2.0829027905
 H    1.7806318353   -1.0028049735   -1.1478496813
 H   -0.1359450208   -2.9507465330   -0.0741901880
 H    1.7212687952   -1.0466322923    1.1736247963
 H    0.4688441445   -1.0247512229    3.3104703798
 H   -2.0357958330   -0.9369534631    3.2573136499
 H   -2.7850723264   -1.7538766905    0.8966445190
 H   -2.7255991644   -0.0071182708    0.9241820799