19

 C    0.0172421736    1.4297993964   -0.1756559521
 C    0.0180425085   -0.0191592716   -0.0281931414
 C    0.0341021448   -1.2170676991    0.0958795830
 C    0.0132891095   -2.6693375214    0.2375500480
 C   -1.3949228527   -3.2605485086    0.0997447370
 C   -2.1006178638   -3.1881258639   -1.3060958134
 C   -2.1580626355   -4.7203804709   -1.3005789144
 O   -0.8092328962   -5.1942798748   -1.1871350548
 C   -1.4904599056   -4.7954257675    0.0084927677
 H    1.0374091721    1.8298213069   -0.1822007744
 H   -0.4620760964    1.7359007846   -1.1122967399
 H   -0.5220709557    1.9161138233    0.6450011929
 H    0.6556510083   -3.1331833837   -0.5203733347
 H    0.4299277969   -2.9540086770    1.2136287380
 H   -2.0522380364   -2.8660826410    0.8794528664
 H   -3.0819326135   -2.7114116155   -1.2577536588
 H   -1.5204874465   -2.7488998201   -2.1210086201
 H   -2.8756301072   -5.3862538569   -1.7655176743
 H   -1.5585733540   -5.5277029092    0.8053811353