19

 C   -0.4687300782    0.0010098058    0.5013510160
 O    0.8537420139   -0.2121613794    0.0152376481
 C    0.9591755556   -1.0385763061   -1.0373406209
 N    2.0907200060   -1.3616808664   -1.4896205719
 C    2.1175305190   -2.2636802844   -2.6215467471
 C    2.7999362054   -3.5784305072   -2.2433895817
 O    2.0067682934   -4.3275836116   -1.3267985899
 C    2.2621849818   -4.1717281268   -0.0122897629
 N    1.4997602079   -4.7027657153    0.8435320600
 H   -1.1287669113    0.3819823277   -0.2870740753
 H   -0.8919885502   -0.9204075743    0.9170973496
 H   -0.3874618122    0.7483240749    1.2911618823
 H   -0.0013519244   -1.3806318213   -1.4528270957
 H    1.1154935029   -2.4897493461   -3.0225956121
 H    2.7035138517   -1.8062967198   -3.4297822424
 H    2.9195607646   -4.2076982961   -3.1299422236
 H    3.7908805183   -3.3760461975   -1.8186127854
 H    3.1619094070   -3.5777079779    0.1907941250
 H    1.8543230189   -4.5127664983    1.7786528780