15

 C    0.2747181580    1.0712880808    0.5358000757
 N   -0.1167502246    0.1299371578   -0.5216809714
 C   -1.3276628597   -0.5564964799   -0.3045905999
 C   -2.6313529155   -0.3136202577   -0.6838286527
 C   -3.4264534104   -1.3896128302   -0.1937067281
 C   -2.5911538187   -2.2487578686    0.4791634366
 N   -1.3188313458   -1.7350396914    0.4039962794
 H    1.2303293690    1.5326854136    0.2691968086
 H   -0.4655439622    1.8657527980    0.7168814065
 H    0.4156170275    0.5261271684    1.4735973561
 H   -0.1503344899    0.6068563815   -1.4140641586
 H   -2.9729503877    0.5447769610   -1.2425675097
 H   -4.4921731449   -1.5109918547   -0.3138345375
 H   -2.7889503635   -3.1711061054    1.0006340220
 H   -0.4774451612   -2.1779561331    0.7302796131