13

 N    0.2660200619    1.2818282242    0.0038216966
 C    0.0675666856    0.0240682087    0.0013805111
 N   -1.1802759962   -0.5528333915    0.0126977764
 C   -2.4064750356    0.0880742653    0.0274085790
 N   -3.4944351917   -0.6567354566    0.0351979984
 O   -4.5525204119    0.2466360348    0.0496205954
 C   -4.0589307905    1.4922441382    0.0496888164
 C   -2.7034128085    1.4830330042    0.0360534928
 H    1.2634211422    1.4785554352   -0.0060218392
 H    0.8508681876   -0.7422148126   -0.0096403782
 H   -1.2315911020   -1.5592696342    0.0090592310
 H   -4.7902770000    2.2857390092    0.0602701571
 H   -2.0013787008    2.2950923550    0.0322390332