16

 N   -0.1007860754    1.4764610761   -0.0411350138
 C   -0.0436008026    0.0733622437   -0.0335589788
 C   -1.0716756551   -0.8216238720   -0.0439744912
 O   -0.5930189567   -2.0987199512    0.0732551819
 C    0.7525469737   -2.0092580651    0.1490626748
 C    1.1604016342   -0.7111230530    0.0976694947
 C    2.5509528519   -0.2203114245    0.1675073482
 C    3.3842711960   -0.3716723231    1.3757156800
 O    3.5721642745   -1.2175927447    0.2408913821
 H    0.6145042649    1.8947320055   -0.6235942564
 H   -1.0039022050    1.8254935854   -0.3362558513
 H   -2.1414784141   -0.7189832133   -0.1113236630
 H    1.2982771569   -2.9345161477    0.2211415470
 H    2.7978106383    0.6128989924   -0.4944943155
 H    4.1912397504    0.3337191707    1.5708977961
 H    2.9517464281   -0.8529288492    2.2507440452