20

 C   -0.2792104271    1.5686340218   -0.0149148109
 C   -0.1114445463    0.0633280956   -0.0325328426
 O    0.8334091870   -0.2714767366   -0.9954493520
 C    0.8295036929   -1.6449906020   -1.3558026853
 C    1.5571704641   -2.5321827544   -0.3429209686
 C    3.0411788603   -2.1470837589   -0.2198443180
 N    0.9775185947   -2.5920677613    0.9918739139
 C    0.4904876676   -1.6205295619    1.6294026061
 O    0.2584733451   -0.3167025814    1.3003534756
 H    0.6831599362    2.0406359908    0.1975330697
 H   -0.6354606684    1.9108641792   -0.9889010162
 H   -0.9959326389    1.8590487901    0.7556654668
 H   -1.0602125831   -0.4530048466   -0.2571499907
 H   -0.2068730626   -1.9928378773   -1.4841113628
 H    1.3339827931   -1.7084984255   -2.3254432359
 H    1.5053203664   -3.5528745148   -0.7464742811
 H    3.1372857326   -1.1044733782    0.0936015103
 H    3.5348881887   -2.7827933444    0.5184125309
 H    3.5495619739   -2.2676548211   -1.1818289802
 H    0.2151541136   -1.7651342929    2.6751130710