18

 C   -0.4333888158    1.5387725680   -0.0278491040
 C   -0.0771329462    0.0714260109   -0.0289031933
 C   -0.6563726428   -0.8690163339    0.9910063230
 C    0.8218127597   -0.5153874829    1.0434022218
 N    1.7985405507   -1.5392572170    0.8721585584
 C    2.2632555853   -1.9833596442   -0.2135542007
 O    2.0529584761   -1.6566227835   -1.5139891652
 C    1.3284301247   -0.4678573075   -1.8280219899
 O    0.0357461926   -0.4709093182   -1.3290464407
 H    0.3330790488    2.1358652579   -0.5347262249
 H   -1.3851816145    1.6994927255   -0.5449697362
 H   -0.5316344999    1.9153249008    0.9941345560
 H   -1.3155324399   -0.4781285073    1.7579902136
 H   -0.8937242424   -1.8647887599    0.6345873596
 H    1.1007831143    0.1669043789    1.8428988873
 H    2.9723979427   -2.8100338075   -0.1820415362
 H    1.9006067900    0.3988267466   -1.4699705615
 H    1.2710558265   -0.4665010168   -2.9182835970