23

 C   -0.2279818064    1.5213084209    0.0530766615
 C    0.0031788657    0.0149421879   -0.0082509036
 C    0.5991035461   -0.4201683056   -1.3532690253
 C    0.7052395766   -1.9415084446   -1.5546266567
 C    1.7002089251   -2.6568694075   -0.6712479626
 C    1.7969984953   -2.5577250685    0.6565877254
 C    2.8090902486   -3.3474486251    1.4441571853
 C    0.8829050551   -1.6619709300    1.4792409524
 O    0.8469615590   -0.3016843146    1.0913002902
 H    0.7171484187    2.0567958859   -0.0819245461
 H   -0.9220253682    1.8410945198   -0.7298420760
 H   -0.6420014590    1.8011498589    1.0252229390
 H   -0.9639319235   -0.5030717107    0.1294000448
 H   -0.0322968227   -0.0079074032   -2.1506494315
 H    1.5899774393    0.0379618130   -1.4563027514
 H   -0.2945389868   -2.3826416583   -1.4162349066
 H    0.9651933366   -2.1342043933   -2.6007782440
 H    2.3911143869   -3.3257740503   -1.1815198019
 H    3.4034044060   -4.0014935917    0.8006933579
 H    3.4944179681   -2.6826103298    1.9860608099
 H    2.3218296564   -3.9737316485    2.2036182280
 H   -0.1407106207   -2.0779861247    1.4801294978
 H    1.2242109537   -1.6570767703    2.5198747535