20

 C   -0.0206311551    1.4052635548    0.0218143456
 O   -0.0029186123   -0.0008482163    0.0134686191
 C    0.6437283126   -0.5353429604   -1.1196524147
 C    0.6073186964   -2.0547296274   -1.0288267514
 C    1.2959900510   -2.7227289711   -2.2347242224
 C    1.2736444896   -4.1800685058   -2.1697615322
 C    1.2423404957   -5.3812767164   -2.0934422905
 C    1.2102204697   -6.8349250609   -2.0112436518
 H    0.9969946714    1.8283455755    0.0273090255
 H   -0.5540687921    1.8140399801   -0.8516495838
 H   -0.5385176046    1.7219391743    0.9305216307
 H    0.1448185440   -0.1925307167   -2.0441496870
 H    1.6879050316   -0.1772911635   -1.1707500101
 H    1.0962963425   -2.3709506266   -0.1019256589
 H   -0.4342021235   -2.3859925412   -0.9676418232
 H    0.8106125124   -2.3891730036   -3.1623494048
 H    2.3359881940   -2.3741066337   -2.2996092455
 H    1.7096972034   -7.2939620268   -2.8718273996
 H    1.7136318904   -7.1954393659   -1.1071926416
 H    0.1814127628   -7.2113827085   -1.9879734435