17

 O   -0.0401556204    1.4411558929   -0.0730798111
 C   -0.0100538621    0.0280798109   -0.0266888867
 C   -1.4003177704   -0.5738032243    0.0487173173
 O   -2.0693313350   -0.1905766748   -1.1670306361
 C   -3.3505045247   -0.5742142044   -1.2603859013
 N   -4.0490922204   -1.2640106066   -0.3991344218
 C   -5.3004309602   -1.3849791053   -0.9851282830
 C   -5.3345727186   -0.7633034941   -2.1973222353
 N   -4.0596242285   -0.2359637816   -2.3703467542
 H   -0.6260155139    1.6779780837   -0.8002642072
 H    0.5221708641   -0.3941844686   -0.8939563901
 H    0.5463424563   -0.2502658721    0.8740886797
 H   -1.3691148318   -1.6663260151    0.1229001793
 H   -1.9588112256   -0.1820240720    0.9044183658
 H   -6.0963153141   -1.9166790248   -0.4873498373
 H   -6.1051481274   -0.6395319058   -2.9388431541
 H   -3.7130735573    0.2845264421   -3.1574623041