16

 N   -0.0584799712    1.3698876319    0.3287767919
 C    0.1914099155    0.0322967088    0.0634534006
 O    1.2933624501   -0.4360926964   -0.0504806479
 N   -1.0080691903   -0.7136912108    0.0175296660
 C   -1.1507951853   -2.0356293398   -0.3869664276
 O   -0.2712383055   -2.7086183025   -0.8725299730
 C   -2.5394657757   -2.5774942499   -0.1845479672
 C   -3.1161146514   -3.3479682751   -1.3299943786
 N   -2.6611501392   -4.0381395004   -0.1297214527
 H    0.7662429273    1.9449486085    0.2428662512
 H   -0.8990557242    1.7885089121   -0.0399390804
 H   -1.8311463051   -0.2708269273    0.3966694311
 H   -3.2037328457   -2.0320206969    0.4818318339
 H   -4.1912434373   -3.3346576320   -1.4837068259
 H   -2.5078030246   -3.4119360404   -2.2275785800
 H   -1.7280130975   -4.4131649198   -0.3071489014