20

 C   -0.3377242302    1.2675709504   -0.0439889585
 O    0.3948738308    0.0579664279    0.0840692921
 C    0.7848955875   -0.4780067507   -1.1156265574
 C   -0.0080134302   -1.3138952931   -2.1102383474
 N    1.3183957093   -1.7833839257   -2.6788696453
 C    1.9776275511   -1.3385924932   -1.3527398120
 C    2.0118724752    0.0633232255   -1.9057235632
 C    1.8677370102   -0.5025128200   -3.3080246219
 C    3.1595423878   -0.7699485318   -4.0583400712
 H    0.2547264999    2.0417029048   -0.5501994445
 H   -1.2708571611    1.1177927518   -0.6041362503
 H   -0.5805744131    1.6005428167    0.9670878158
 H   -0.5187953397   -2.1528848641   -1.6298395399
 H   -0.6728462560   -0.8381641723   -2.8401324911
 H    2.6196264658   -1.9369725369   -0.7229287991
 H    2.5725608147    0.9137454379   -1.5351161009
 H    1.1385840595   -0.0198477542   -3.9719437897
 H    3.8910420633   -1.2672765010   -3.4138023485
 H    2.9685563180   -1.4154039750   -4.9210630305
 H    3.6005719174    0.1664285732   -4.4168271565