19

 C    0.1957659812    1.4209766950   -0.1280075215
 C   -0.0117588983   -0.0575660983    0.1108859841
 C   -0.6991121103   -0.8515655382   -1.0954736278
 C   -0.8657429309   -2.4198946536   -1.0239280170
 C   -0.9046978961   -2.1225457324    0.4773570503
 C    0.2622158538   -2.1570049414    1.1461563557
 C    0.8856037919   -0.7528440299    1.1558590351
 O    2.2607433040   -0.8155768043    0.8204152391
 C   -1.3617952554   -0.6734836977    0.2407963723
 H    1.1945429060    1.6110455246   -0.5336421507
 H   -0.5402140348    1.8331835199   -0.8241433425
 H    0.1127539168    1.9763482906    0.8135901288
 H   -0.9082782858   -0.2804003812   -1.9973528698
 H   -1.8138399656   -2.6878559414   -1.5052767491
 H   -0.0649920961   -3.0754204859   -1.3792038806
 H    0.9407050420   -3.0063504940    1.1269648310
 H    0.8570175798   -0.1902647623    2.0983975661
 H    2.3239407364   -1.2427268999   -0.0423071465
 H   -2.3026804486   -0.2062523794    0.5022023929