13

 N   -0.0044406726    1.2415018105    0.2788799793
 C    0.0189780326   -0.0157056974    0.1364031632
 N    1.0898845551   -0.9189424740    0.1099783107
 C    0.6022844552   -2.1837892007   -0.1651633975
 N   -0.6645578466   -2.2829612851   -0.3097249562
 C   -1.1884342754   -0.9222679346   -0.0713169993
 C   -2.1249295994   -1.0190694962    1.1426722189
 O   -1.9739103288   -0.4390156849    2.1802532115
 H    0.9279934673    1.6355742075    0.4128229529
 H    2.0584434390   -0.6749198701    0.2314074186
 H    1.2903059546   -3.0184523348   -0.2527776008
 H   -1.7911828571   -0.5944181288   -0.9272140861
 H   -2.9608952739   -1.7296002714    0.9727926548