21

 C    0.1479330056    1.6390409747    0.0722145403
 C   -0.0926085066    0.1321676522    0.0475303760
 C   -1.5584018898   -0.2511185618   -0.0123126695
 N   -2.4786955488    0.6190203399   -0.0382781765
 N   -1.7383356474   -1.6565421363   -0.0338110178
 C   -2.9326326158   -2.3480876509   -0.0863903601
 O   -4.0186015999   -1.8024451191   -0.1220900645
 C   -2.7670124603   -3.8663459837   -0.0957728084
 C   -4.1036327896   -4.6014692767   -0.1539671278
 H    1.2201260997    1.8518463451    0.1153485682
 H   -0.2696208514    2.1132667309   -0.8185061955
 H   -0.3367044959    2.0951933166    0.9380510663
 H    0.4181890163   -0.3221223653   -0.8139270544
 H    0.3514595032   -0.3401238320    0.9358707512
 H   -3.3946531619    0.1709645872   -0.0778043654
 H   -0.8974078978   -2.2132763159   -0.0075136978
 H   -2.1344336480   -4.1384434676   -0.9512760177
 H   -2.2007025519   -4.1565064133    0.7993128640
 H   -3.9444056818   -5.6831761241   -0.1594120084
 H   -4.7265914715   -4.3451644014    0.7060281954
 H   -4.6602392764   -4.3265142186   -1.0528234377