16

 C    0.0915771843    1.5839835658   -0.0550362933
 C    0.0101924449    0.0502833265    0.0260613755
 C    0.7042714944   -0.4474249002    1.2161240079
 N    1.2122087941   -0.8421497056    2.1769931956
 C   -1.4688934122   -0.5019842915    0.0453835681
 N   -2.2794410897   -0.1073949789    1.1932069740
 C   -2.1387932063   -0.1350646788   -1.2022535678
 C   -2.6636387012    0.1836693991   -2.2349002276
 H    1.1322288882    1.9133081989   -0.0921898003
 H   -0.4205544633    1.9294017085   -0.9557580230
 H   -0.3762088826    2.0476976292    0.8176204368
 H    0.5047561344   -0.3812353495   -0.8523367827
 H   -1.3847923324   -1.5957432315    0.0784525431
 H   -1.8043516586   -0.3561431218    2.0563315592
 H   -2.4369258200    0.8949320134    1.1978341257
 H   -3.1461287040    0.4475091966   -3.1438459415