20

 C    0.0282620486    1.4883822863   -0.0253254756
 C    0.0224093037   -0.0164349023    0.0167971829
 C   -1.3074281326   -0.8043277467   -0.1208036063
 C   -0.7089653225   -2.0891308163    0.4656667933
 O   -0.3950155591   -1.6619166120    1.8249739959
 C    0.6404685344   -0.8935506057    1.2133765139
 C    0.8364547417   -1.8772580053    0.0477936782
 C    1.7709082528   -3.0506213845   -0.0146537318
 N    0.9558602212   -0.7559337555   -0.8900032646
 H    1.0442181199    1.8766701873    0.0913650827
 H   -0.3663561213    1.8610369958   -0.9779517696
 H   -0.5959063971    1.8973997858    0.7759896553
 H   -2.1286503147   -0.4392003500    0.5006724506
 H   -1.6315319403   -0.8724870931   -1.1642046006
 H   -1.2413370268   -3.0382147440    0.4139703959
 H    1.3981493444   -0.4812538876    1.8777204897
 H    1.6498417394   -3.6756218318    0.8756004553
 H    1.5678787638   -3.6743096311   -0.8932733712
 H    2.8108140595   -2.7158029312   -0.0707562514
 H    0.5815583350   -0.9231489682   -1.8250520125