19

 C    0.0035177381    1.5846780294   -0.0052932960
 O    1.4005129644    1.9225014065    0.1163022478
 C    2.0695545993    0.7258318383    0.4741051737
 C    2.3114788213   -0.2572036371   -0.7188607886
 C    0.8449181456   -0.3430389293   -1.2827256093
 C    0.0162901582    0.0543174820   -0.0306943978
 C    1.0327702253   -0.2043877532    1.1517109597
 C    1.7331049719   -1.5353300692    1.1085357556
 C    2.5321760130   -1.5512717079    0.0343292842
 H   -0.5527481601    1.9949004727    0.8504221354
 H   -0.3950656186    2.0291112551   -0.9232791216
 H    2.9647382412    0.9652497915    1.0499405748
 H    3.0676444274    0.0268748058   -1.4502426942
 H    0.6821232591    0.3625366685   -2.1021843492
 H    0.6205759423   -1.3474027419   -1.6464793387
 H   -0.9633235558   -0.4145647046    0.0592478568
 H    0.6509602387    0.1190909110    2.1212703774
 H    1.5797802259   -2.3321480144    1.8252997587
 H    3.1455967527   -2.3727905034   -0.3148997787