21

 C   -0.3740802388    1.3647107038   -0.0857847729
 C    0.1990855044   -0.0416474784   -0.1141388957
 O    0.3078961123   -0.5088173988    1.2200052873
 C    0.7792325403   -1.8194939585    1.3299822946
 C    2.3166916311   -2.1008897491    1.2538759219
 C    2.1738846359   -3.0371624357    2.4924631953
 C    0.8183439228   -2.3752002166    2.7495817338
 C    0.3188343552   -1.7202070758    3.9565570149
 O   -0.2759068084   -2.9274014493    3.4477253691
 H    0.2789492761    2.0341056086    0.4814079163
 H   -0.4739901067    1.7564031863   -1.1024429515
 H   -1.3603650733    1.3667249460    0.3868048368
 H   -0.4523570563   -0.7156472630   -0.6948802615
 H    1.1868498134   -0.0460955509   -0.6022051521
 H    0.2215215651   -2.4954951404    0.6617099759
 H    2.7046891126   -2.5426677997    0.3350384767
 H    2.8780055662   -1.1937718856    1.4907792270
 H    2.0616525774   -4.0880071249    2.2109408260
 H    2.9295797440   -2.9590971904    3.2762595748
 H    0.8636491769   -1.8295074194    4.8935497877
 H   -0.2920743200   -0.8254805683    3.8607006857