16

 C    0.0857044662    1.5241075934    0.1117019275
 C    0.0096745077    0.0326883547   -0.0296191207
 C    0.5948141601   -0.7812612718   -1.2310266607
 C    0.5999291345   -1.8251905308   -0.0693445781
 O    0.9371615808   -0.7316425511    0.8373842379
 C   -0.9173009957   -2.0016030203    0.1934139002
 C   -1.3124611728   -0.7309935737    0.2231124096
 C    1.4758800163   -2.9780582337   -0.0311163532
 N    2.1580817490   -3.9102384340   -0.0295476933
 H    1.1008337941    1.8807488177   -0.0789100828
 H   -0.5933315136    2.0071832071   -0.5980132944
 H   -0.2034279202    1.8263430067    1.1228243198
 H   -0.0365185590   -0.9791132503   -2.0980290284
 H    1.6020107231   -0.4612414121   -1.5060182225
 H   -1.4455157716   -2.9351607092    0.3099739845
 H   -2.2907803589   -0.2985663626    0.3735544346