19

 C    0.4329142343    0.8667551776   -0.3763593440
 O   -0.4547738278    0.1866882964    0.4901342000
 C    0.1767714823   -0.5147576858    1.5410893803
 C    0.5556038158   -1.9436431889    1.1576205010
 N    1.7776631467   -2.0928163385    0.2976382892
 C    2.3904779569   -3.0723337446    1.2458680764
 C    1.2646514264   -2.7718748330    2.2091805111
 N    0.9764500779   -3.0061649351    3.4170406448
 O    1.9629835340   -3.8026009933    4.0248815480
 H    1.1240448067    0.1864034235   -0.8884924063
 H   -0.1825251344    1.3846046344   -1.1167563837
 H    1.0312829074    1.6125483267    0.1695018572
 H    1.0712195791    0.0184190618    1.8947406848
 H   -0.5413956156   -0.5655932715    2.3679311114
 H   -0.3337607612   -2.4420648569    0.7471675617
 H    1.5758522644   -2.4922004781   -0.6117190322
 H    2.4038462505   -4.1164937031    0.9062509264
 H    3.3987085112   -2.8049437092    1.5801598482
 H    1.6263845153   -3.8947171824    4.9227888356