15

 C   -0.0939478025    1.3813172226   -0.0527615443
 N   -0.0482836990   -0.0566057912    0.1102920361
 C    0.6384499107   -0.6296861266    1.1349050700
 N    1.2350723233    0.0860754861    2.0192793841
 C    0.6215047078   -2.1109480052    1.1293650236
 C    1.1639854093   -3.0468793626    1.9602143172
 N    0.8247293850   -4.2765294637    1.4567163599
 N    0.1376638637   -4.1639503708    0.4125768957
 O   -0.0242512668   -2.7548990485    0.1550741334
 H    0.9071946223    1.7979632171   -0.2128852169
 H   -0.7250403653    1.6176955443   -0.9111281766
 H   -0.5078830902    1.8561403733    0.8421943915
 H   -0.4397361675   -0.6521195237   -0.5972049787
 H    1.6850851270   -0.4917609101    2.7240401012
 H    1.7541278321   -2.9415784811    2.8536152538