25

 C    0.1365169455    1.6031807018   -0.0902160232
 C    0.2419458234    0.0770974534   -0.1524419784
 C    0.7922295229   -0.5434685990    1.1360361603
 C    0.8981480819   -2.0739476579    1.0826107162
 C    1.5084657440   -2.6630824191    2.3478940878
 C    0.7070950358   -2.7929077650    3.6890261538
 C   -0.0465976988   -4.0083529066    3.0732302081
 C    1.4476515602   -4.1919520422    2.6738128142
 C    1.7971361344   -3.8075588958    4.1407354842
 H    1.1158907949    2.0611717965    0.0888091687
 H   -0.2577131271    2.0164307037   -1.0240052857
 H   -0.5279262549    1.9212556816    0.7210483845
 H   -0.7470000674   -0.3500463033   -0.3660889936
 H    0.8836295851   -0.2126613235   -0.9953132924
 H    1.7828012423   -0.1168657374    1.3483528034
 H    0.1528028011   -0.2525544096    1.9808322448
 H   -0.0925229784   -2.4952481022    0.8784586957
 H    1.5282220955   -2.3597529370    0.2283119781
 H    2.5099607212   -2.2370717034    2.4944188044
 H    0.2783022917   -1.9848275308    4.2847251962
 H   -0.4469210184   -4.7359821250    3.7850170539
 H   -0.7670979036   -3.8133778829    2.2777819434
 H    1.8782914127   -5.0061729902    2.0874272106
 H    2.7993446321   -3.4075787925    4.3202265771
 H    1.5051679739   -4.5230068537    4.9142932280