22

 C   -0.1063532659    1.5045034183   -0.0490395591
 C    0.1225334325   -0.0097372981   -0.0828611637
 C    0.7420317231   -0.5479761992    1.2017096053
 C   -0.1113794280   -0.5418396079    2.5284468672
 C    0.1020317386   -2.0585167044    2.6300309133
 C    0.2782554447   -2.8767725614    3.8640070160
 O   -0.9882623115   -3.0445512357    4.4896943538
 N   -0.5009689648   -2.6217286333    1.3966406114
 C    0.8758818860   -2.0725847815    1.3564399603
 H    0.8350975795    2.0476828860    0.0938267496
 H   -0.5562966725    1.8598007471   -0.9813951645
 H   -0.7764981743    1.7865239977    0.7704285586
 H   -0.8238008498   -0.5322791931   -0.2576596210
 H    0.7788323783   -0.2620206214   -0.9269642610
 H    1.7094593969   -0.0674383375    1.3863208782
 H    0.3621668842    0.0207312886    3.3364526074
 H   -1.1556561483   -0.2360506273    2.4325438842
 H    0.7233228799   -3.8496766786    3.5916265940
 H    0.9876286279   -2.3703276686    4.5381792648
 H   -0.8459083098   -3.4638448340    5.3437292673
 H   -0.4221026417   -3.6370384996    1.4585204128
 H    1.7092468849   -2.6988684663    1.0565947851