20

 C   -0.1607725578    1.5249953880    0.0089917005
 C    0.0703450008    0.0141387923    0.0005056483
 C    0.7519346613   -0.4844009036   -1.2860599388
 C    1.0886364893   -1.9442073883   -1.1702471989
 C    1.3678961520   -2.4604183895    0.0265862304
 N    1.3621975136   -1.7056172228    1.2095888849
 C    1.9866856007   -2.2663866943    2.4003651648
 C    0.8160079242   -0.4338132217    1.2642942893
 O    0.8760520669    0.2501904212    2.2693665531
 H    0.7882699816    2.0639413210   -0.0784220934
 H   -0.7972357846    1.8167876976   -0.8321343504
 H   -0.6343496895    1.8408212285    0.9395576797
 H   -0.9045278614   -0.4950832945    0.0639750805
 H    0.0924728044   -0.2970921568   -2.1401076696
 H    1.6638046039    0.1048824432   -1.4750771119
 H    1.1201244576   -2.5762859526   -2.0490341032
 H    1.6330521575   -3.5021672516    0.1699799921
 H    1.5882434703   -3.2668212070    2.6000065331
 H    3.0738808157   -2.3392225719    2.2820020662
 H    1.7640643434   -1.6076311472    3.2379429132