18

 C   -0.0096164135    1.4122919103   -0.0460528474
 N    0.0000109968   -0.0319011455   -0.0111246508
 C   -1.2148152104   -0.8408383602   -0.0337001931
 C   -0.7273917027   -2.2298605480   -0.4974661843
 O   -0.7475800110   -2.2710048017   -1.9060205189
 C    0.7280288736   -2.2472908744    0.0007376011
 O    1.5678518407   -3.0418221902   -0.8016167678
 C    1.1304401492   -0.7735734903   -0.0928744839
 O    2.2781502167   -0.3917507738   -0.2430293028
 H    1.0262519301    1.7509883868   -0.1054317827
 H   -0.5594535798    1.7775988609   -0.9217178194
 H   -0.4761805227    1.8281644921    0.8547604537
 H   -1.6913932052   -0.8818952333    0.9552264444
 H   -1.9367040313   -0.4379094062   -0.7511598239
 H   -1.3389054338   -3.0334811711   -0.0668785247
 H    0.0427974737   -2.7705783330   -2.1596436853
 H    0.7717099125   -2.5644060643    1.0543064753
 H    2.3703746870   -2.5101523981   -0.9284228895