21

 C    0.0394120565    1.5511763624    0.0103712009
 C   -0.0496399867    0.0215822382    0.0026880896
 C    0.6424299476   -0.5574032831   -1.2650474623
 C    0.9035615871   -2.0651917799   -1.1854667010
 O    1.6306168789   -2.4096440409   -0.0204333340
 C    0.9174898831   -2.0777982400    1.1568056022
 C    0.6575791405   -0.5709824075    1.2557520299
 C   -1.5147621788   -0.3983526092    0.0092851450
 O   -2.4474922985    0.3652749421    0.0194664842
 H    1.0863378553    1.8696350133    0.0060113872
 H   -0.4573990218    1.9780895992   -0.8651332126
 H   -0.4472403671    1.9686965957    0.8960429413
 H    0.0557810989   -0.3252650489   -2.1622955967
 H    1.6078730987   -0.0496488711   -1.3751924460
 H   -0.0407040863   -2.6337158509   -1.2223287032
 H    1.5122714758   -2.3882798361   -2.0350197744
 H   -0.0263510137   -2.6466713495    1.1987518316
 H    1.5362023305   -2.4100583250    1.9955295412
 H    1.6243714505   -0.0644784583    1.3596722521
 H    0.0818249329   -0.3484301966    2.1624330098
 H   -1.6990538935   -1.4955315738    0.0040185352