15

 N    0.0355305247    1.4392304377    0.1077830655
 C    0.0026577333    0.0308864903    0.0261948397
 C   -1.0752426919   -0.8229621166    0.0155600664
 N   -0.5883103427   -2.1198278295   -0.0733038127
 C    0.7889301531   -2.0772353720   -0.0505321862
 O    1.5409911049   -3.2198791436   -0.0406620413
 C    1.1910539625   -0.7661187202   -0.0098482561
 N    2.5037866739   -0.2449211986   -0.0923665777
 H    0.7032243381    1.8229815376   -0.5540098683
 H   -0.8703605856    1.8528906870   -0.0758580196
 H   -2.1337710048   -0.6230087735    0.0376904850
 H   -1.1096927476   -2.9466608902    0.1608055611
 H    1.6654660564   -3.5296178850   -0.9460553429
 H    3.1834895968   -0.9941197023   -0.0161524231
 H    2.6779661988    0.4059068289    0.6683602201