16

 C   -0.0885664243   -1.2159289636   -0.2260022292
 C   -0.0313347874   -0.0247795645   -0.0667143746
 C    0.0469603875    1.4084047327    0.0861960418
 C   -0.4180794382    2.2745103913   -1.1263863620
 N    0.7857667981    3.1450694713   -1.0097037507
 C    1.3542549229    2.2909271865    0.0594228207
 C    0.9535024970    2.8029019437    1.4574875650
 N   -0.2537614211    1.9281401779    1.4423191958
 H   -0.1401816845   -2.2693399159   -0.3493814447
 H   -0.4700913139    1.6964450996   -2.0551502346
 H   -1.3681222674    2.8044675687   -0.9869022708
 H    1.3460257383    3.1396686556   -1.8532443151
 H    2.3588358600    1.8985141642   -0.1007154932
 H    1.6330120766    2.5381518532    2.2756366317
 H    0.7665260292    3.8810992118    1.4715756312
 H   -1.1458107527    2.4048703875    1.5224649986