15

 C    0.0438201876    1.4425454061    0.0314910090
 N    0.0094934054   -0.0092953789   -0.0168772082
 C   -1.1175208547   -0.7150479525   -0.1720694649
 N   -1.2021324712   -2.0172338337   -0.2289342328
 C   -0.0312050534   -2.7253601367   -0.1160506046
 O    0.0570329345   -3.9427664183   -0.1655279670
 C    1.2131429183   -1.9090907150    0.0743609032
 N    2.3401416654   -2.6307314205    0.2151187118
 N    1.2358835471   -0.6043761968    0.1114165538
 H    0.6719041923    1.8259692616   -0.7770161928
 H   -0.9700520922    1.8293589831   -0.0782373509
 H    0.4609815523    1.7724323309    0.9866168665
 H   -2.0248189893   -0.1199246680   -0.2566622275
 H    2.2387772769   -3.6240141706    0.0741160531
 H    3.2426000209   -2.1899098406    0.2326423412