17

 O    0.0611924918    1.4131141830    0.0448974670
 C    0.0011723969    0.0267167323   -0.0029681649
 C    0.6061625586   -0.8447754107    1.1112784513
 C   -0.5971387967   -1.8260486342    0.9948251293
 C   -1.3779668508   -0.8514835600    0.0652716679
 O   -2.6189760571   -0.4677674840    0.5412219896
 C   -1.2080766964   -1.0622818322   -1.4218152134
 O   -2.0272700202   -1.2480443628   -2.2819435915
 C    0.2316721428   -0.5144780235   -1.4393734717
 H   -0.3566635123    1.7025160604    0.8638078908
 H    1.6078141505   -1.2432202486    0.9287332472
 H    0.6095306315   -0.3253145110    2.0745667628
 H   -0.3752823651   -2.8048525651    0.5638877348
 H   -1.1470604209   -1.9720197176    1.9257258617
 H   -3.1727512128   -0.2628866272   -0.2233425897
 H    0.3618273698    0.2794641448   -2.1780511557
 H    1.0268605205   -1.2550709134   -1.5540615257