21

 C   -0.1166514893    1.5163620273    0.0700203613
 C   -0.0283237347    0.0162139916    0.0044926186
 C   -0.1216581980   -0.6737878431   -1.1365358422
 C   -0.0379896777   -2.1808469653   -1.2167057500
 O    0.3661490940   -2.6156096061   -2.5127752801
 C    0.8870413698   -2.7461149247   -0.1240368547
 C    0.6072601012   -2.1427289144    1.2505160837
 C    1.5220252640   -1.0760768292    1.8066088052
 C    0.1419143651   -0.7080280190    1.2968620764
 H    0.7859399312    1.9433521706    0.5250259349
 H   -0.2455569386    1.9578359794   -0.9218273126
 H   -0.9595338318    1.8351380806    0.6968791762
 H   -0.2783416544   -0.1630305158   -2.0844329727
 H   -1.0427450623   -2.6094302301   -1.0973955858
 H    1.2277373551   -2.2214472188   -2.6902905132
 H    0.7935637445   -3.8358742170   -0.0970988201
 H    1.9196853016   -2.5300479359   -0.4275325547
 H    0.1615669362   -2.8152234677    1.9762132134
 H    1.6997706528   -1.0458106737    2.8765158157
 H    2.3737599478   -0.7865953020    1.1988202027
 H   -0.5826632967   -0.4437137868    2.0641583379