21

 C    0.1401065501    1.4892732709    0.0938323862
 C   -0.1423324666    0.0082828178   -0.0976524671
 O    0.7301723316   -0.4810193422   -1.1001487225
 C    0.7186395603   -1.8874544327   -1.2957971371
 C   -0.5429656065   -2.3865117465   -1.9984039349
 C    1.9865055932   -2.2037749440   -2.1130749246
 O    1.8909284718   -1.7877845182   -3.4450736248
 C    3.1836309088   -1.5533238285   -1.4420380905
 O    3.9280127111   -0.8193637984   -2.0426257756
 H    1.1778080966    1.6466538622    0.4009132226
 H   -0.0259086238    2.0330010650   -0.8402735153
 H   -0.5191015702    1.9063751021    0.8609499134
 H    0.0198875204   -0.5430940124    0.8441304145
 H   -1.1935745013   -0.1431252601   -0.3846214808
 H    0.8213439193   -2.3921168343   -0.3177056313
 H   -0.4971540288   -3.4713177815   -2.1378258801
 H   -1.4381168155   -2.1641030883   -1.4120624207
 H   -0.6270511728   -1.9128965726   -2.9785014426
 H    2.1417692817   -3.2971190052   -2.0673711034
 H    2.5859945031   -1.1205584415   -3.5585634260
 H    3.3398803975   -1.8004237116   -0.3721364497