18

 C   -0.0436336305    1.5148852580   -0.0104069172
 C    0.0381285752    0.0153225659    0.0146412756
 C   -0.8524832361   -0.8608202808    0.8503711820
 C    0.6318365934   -0.9553020280    1.0571850177
 C    1.3254512262   -1.7734523991   -0.0665670328
 C    0.7096765424   -0.8215400838   -1.0997420563
 O   -0.0701590094   -1.9285127060   -1.6696713555
 C    0.5021017763   -2.8323866091   -0.7775493705
 N    0.3530478786   -4.0729177136   -0.6803258227
 H    0.9117591947    1.9682741993   -0.2984939072
 H   -0.8034207895    1.8573053375   -0.7233573418
 H   -0.3140078291    1.9081324938    0.9746676827
 H   -1.3817856981   -0.3300035230    1.6357634241
 H   -1.4156508347   -1.6777885899    0.4113447656
 H    1.0974572105   -0.7368429450    2.0099169377
 H    2.3955260856   -1.9366405782    0.0356427317
 H    1.2734254822   -0.2884179999   -1.8646459387
 H   -0.3025066277   -4.4248177282   -1.3809300243