12

 C    0.0281635226   -1.1495084269    0.2346889912
 C   -0.0021508220    0.0364506010    0.0455272893
 C   -0.0120716358    1.4747555508   -0.1988663065
 C    1.3827803275    2.0774187948   -0.2286768611
 C    1.6168340717    3.4762763541    0.1455520591
 O    1.9648772637    2.4064537554    1.0280280812
 H    0.0482299240   -2.1962005245    0.4116376347
 H   -0.5062594728    1.6813044880   -1.1579534561
 H   -0.5957638441    1.9851721426    0.5763543534
 H    2.0702466499    1.6058397597   -0.9313847925
 H    2.4539383688    4.0216955883   -0.2871437946
 H    0.7785856565    4.0929156567    0.4685113520