17

 C   -0.1730922179    1.5160520225   -0.0203697034
 C    0.0681288005    0.0227071244    0.0524064894
 C    1.3468602580   -0.6964328775   -0.3230465031
 C    0.8462298692   -0.7066050034    1.1275540701
 C    1.8272923918    0.0823417923    1.9487332263
 O    1.8517466764    0.1141357107    3.1530476761
 C    2.8474522696    0.7425827804    1.0166526380
 C    2.6221601621    0.0984766613   -0.3544011416
 O    3.3840137705    0.1452816618   -1.2868019438
 H    0.6873537529    2.1153733601    0.2808305254
 H   -0.4331292166    1.8044168109   -1.0438642060
 H   -1.0103132372    1.7926755972    0.6283632821
 H   -0.8061044704   -0.5477302416   -0.2533054323
 H    1.2880748509   -1.5586781952   -0.9761913056
 H    0.4008650287   -1.5767060389    1.5945603115
 H    2.7233869708    1.8299116445    0.9814557960
 H    3.8673546010    0.5583130506    1.3673542709