19

 C   -0.0832304861    1.4789187634   -0.0063135894
 C   -0.0107912587   -0.0202991205   -0.0068976905
 C    0.6180803110   -0.9733749808   -1.0956048103
 C    0.1034590121   -1.9805572008   -0.0104233586
 C    0.1050087705   -3.4840210442    0.0101461940
 O   -0.6786547402   -3.9778627047    1.0858657123
 C    0.6816279710   -0.9700363318    1.0430041763
 C   -1.1293210101   -1.0701858853    0.0366294617
 O   -2.3207695359   -1.1626376556    0.1033347676
 H    0.9154897472    1.9263639682   -0.0365484420
 H   -0.6435258243    1.8421694016   -0.8738247260
 H   -0.5894407850    1.8421901158    0.8937875517
 H    0.1445061823   -1.0000022058   -2.0797418189
 H    1.7069126332   -0.9055515145   -1.1701819164
 H   -0.2533814526   -3.8621356615   -0.9610819174
 H    1.1156024701   -3.8796631485    0.1579156280
 H   -1.5734409389   -3.6389354980    0.9652610342
 H    1.7732808261   -0.9061983891    1.0479571220
 H    0.2690128583   -1.0005383080    2.0528671818