18

 C   -0.0427715043    1.5908146446   -0.3922765137
 C   -0.0554871667    0.1121326109   -0.0651920530
 C   -1.2508899668   -0.6509970151   -0.6044171095
 N    1.2556297331   -0.5392415189   -0.0906053380
 C    0.5662900239   -0.4072046505    1.2055354263
 C    1.2065339186    0.4865903004    2.2369877563
 N    0.8666699938    0.1652943202    3.5244710073
 O    1.9502604579    1.4112671058    1.9767913655
 H    0.8468772011    2.0648947752    0.0203608160
 H   -0.0492034968    1.7281286523   -1.4794725597
 H   -0.9328902930    2.0849286202    0.0130917284
 H   -1.2782572852   -0.5904078304   -1.6986841942
 H   -1.2162151449   -1.7091256038   -0.3238503044
 H   -2.1907775356   -0.2316596383   -0.2293518732
 H    1.1771232831   -1.5001108568   -0.4166693852
 H    0.0999934280   -1.3034448243    1.6136234780
 H    0.1735615071   -0.5283176012    3.7425764489
 H    1.1783513767    0.7802939497    4.2581313240