16

 N   -0.1238730593    1.3523635266   -0.1135505254
 C   -0.0203223512    0.0979018178    0.0607528525
 C   -1.2460099379   -0.7955643827    0.0287760556
 C   -1.1280401039   -1.9113300138    1.0519749054
 C   -0.8353656411   -3.3242602434    0.6451752059
 N    0.2015161516   -2.4814635673    1.2229173979
 C    1.2774358270   -1.9842943150    0.4802907901
 O    2.2526380850   -2.6283983320    0.1773929462
 N    1.1735009459   -0.6142872239    0.2155275097
 H    0.7878690748    1.8147658212   -0.0989696366
 H   -2.1282767521   -0.1788590011    0.1970543296
 H   -1.3205536088   -1.2109692856   -0.9838351962
 H   -1.6532243101   -1.7496043940    1.9903881900
 H   -1.1634795251   -4.1510101765    1.2678852599
 H   -0.7716104806   -3.5432871335   -0.4178945454
 H    2.0347182457   -0.1848664969   -0.0926202590