23

 C   -0.1623610649    1.5922763361   -0.0156132745
 C   -0.0344738856    0.0752615886    0.0031996648
 C    1.1862415976   -0.5954168016   -0.6608413902
 C    2.1257123424   -0.2979241162    0.5553298390
 C    2.5823376296   -1.7638798405    0.6537273106
 C    1.0906199751   -1.8605208588    0.2695515186
 C    0.2631897759   -3.0972811215    0.0422594601
 C    0.7116999724   -0.6154428292    1.1738079984
 C    0.3450624440   -0.6395186738    2.6335929453
 H    0.7849217000    2.0827886091    0.2314706319
 H   -0.4722134672    1.9486732748   -1.0045245371
 H   -0.9133599358    1.9359277413    0.7049510959
 H   -0.9966329556   -0.3911819874   -0.2486605003
 H    1.4848026080   -0.5997431219   -1.7118475508
 H    2.7125716644    0.6074895354    0.7142318906
 H    3.3039716731   -2.1053549050   -0.0970443816
 H    2.8665721988   -2.1339825353    1.6453527787
 H    0.2239583620   -3.7169189676    0.9456708944
 H   -0.7667538871   -2.8478375268   -0.2360178826
 H    0.6854555583   -3.7113887828   -0.7612801974
 H    1.0788187137   -1.2030545084    3.2210413549
 H    0.2978747423    0.3742288110    3.0476144315
 H   -0.6351460215   -1.1054308295    2.7888598200