16

 C   -0.0131930765    1.3777891230    0.0640144110
 N   -0.0297441265   -0.0657991388    0.0179094053
 N   -0.0243172607   -0.7404560261   -1.1399829134
 C    0.0742205821   -2.0021490294   -0.7406800394
 C    0.0867836519   -3.4036296786   -1.2601964691
 C    0.3418876557   -4.1741165046    0.0888450464
 O    0.2021393446   -3.2433830898    1.2117956240
 C    0.1299463048   -2.0244879451    0.6461437713
 N    0.0730609361   -0.8065092845    1.1496441652
 H    0.9910375872    1.7540163461    0.2866178115
 H   -0.3314954826    1.7418927990   -0.9122799935
 H   -0.7017272931    1.7224273740    0.8379938815
 H   -0.8655029728   -3.6945397800   -1.7165439144
 H    0.8775752347   -3.6107584184   -1.9864478791
 H   -0.3682127833   -4.9860848688    0.2547717421
 H    1.3579287183   -4.5777274080    0.1271225806