14

 C   -0.0376460849    1.4801217562    0.0094305151
 C    0.0203303570   -0.0273418467    0.0024623388
 O    1.0383042277   -0.6737853581   -0.0083000678
 C   -1.3148736631   -0.7309239699    0.0103880602
 N   -2.4501354773   -0.1539086249    0.0216516114
 C   -3.4329957825   -1.2300843864    0.0253650624
 C   -2.6170221798   -2.5191900788    0.0136657267
 O   -2.9336872910   -3.6632507054    0.0121516929
 O   -1.2831033475   -2.1017275032    0.0048888926
 H    0.9779661589    1.8756484883    0.0022409990
 H   -0.5943531257    1.8420322370   -0.8603532720
 H   -0.5788448432    1.8344201682    0.8920625936
 H   -4.0747544265   -1.1816319843    0.9116013550
 H   -4.0890002023   -1.1747148220   -0.8499669778