18

 C    0.0769712833    1.3656683770    0.1904611900
 O   -0.0122082334   -0.0384587984    0.2483435689
 C   -1.2671207269   -0.5242875391   -0.1768432458
 C   -1.2138891603   -2.0308179629   -0.1223334204
 C   -1.5863322684   -2.7838293094    1.1066440727
 C   -2.4737964025   -2.8986163885   -0.1294417487
 C   -3.8299208792   -2.3065944023   -0.0904102220
 O   -4.7793423165   -2.7433258452   -0.6937337940
 H    1.0774553317    1.6434295958    0.5300692372
 H   -0.0694287834    1.7433523625   -0.8339727112
 H   -0.6670576758    1.8502884738    0.8426823655
 H   -2.0690301782   -0.1272663686    0.4670618738
 H   -1.4819741813   -0.1848176939   -1.2047723897
 H   -0.4000406977   -2.4417922539   -0.7125597893
 H   -1.0171630799   -3.6606053019    1.3917898910
 H   -1.9860936985   -2.2152601629    1.9410736221
 H   -2.4230267695   -3.8148085926   -0.7075627310
 H   -3.9345351638   -1.4131943596    0.5677508408