17

 O   -0.0030483534    0.0689598748   -0.1513641135
 C   -0.0331859016    1.2677974405   -0.0369337219
 C   -1.2261881267    2.1538646266    0.0805572562
 C   -0.7428325386    3.4021292781    0.8359501630
 C    0.7390660873    3.2078764740    1.1607719798
 C    1.1726900333    2.2322077676    0.0581762187
 O    1.2902742480    2.8999341814   -1.2019168465
 C    0.1300078420    3.6317099162   -1.5982330580
 C   -1.0257757322    3.4963756786   -0.6249736128
 H   -2.2155654753    1.7307073200    0.1927523871
 H   -1.3989873448    3.8891433285    1.5473588751
 H    1.3163004168    4.1370193083    1.1314443772
 H    0.8642376430    2.7509356889    2.1488131384
 H    2.1182470334    1.7185956945    0.2250540614
 H    0.4054901683    4.6916643560   -1.6978578109
 H   -0.1740976599    3.2764516424   -2.5917559525
 H   -1.9372864595    4.0012498534   -0.9300819708