20

 C   -0.3406620625    1.5744807875    0.0860902998
 C    0.0156038948    0.1039554337   -0.0426254050
 C    0.6010605581   -0.5248634325   -1.3291055446
 C    1.8827800344    0.1351895958   -1.8858954311
 O    1.8187136667    1.5209914400   -2.1367333258
 C    2.7272595048   -0.4137591477   -0.7030318674
 C    2.4190061811    0.3043370129    0.6192500652
 N    1.1334798688   -0.4562737647    0.8086377856
 C    1.5231950338   -1.3483999176   -0.3659996723
 H    0.4576595420    2.2319771516   -0.2571175867
 H   -1.2284978201    1.7934763925   -0.5169263813
 H   -0.5784652439    1.8069839575    1.1301526452
 H   -0.8679846610   -0.4879050145    0.2314399171
 H   -0.0960076124   -0.9371518193   -2.0605183687
 H    2.1711632199   -0.4129016536   -2.7958872994
 H    2.6489674074    1.7973907463   -2.5380300347
 H    3.7490529060   -0.7354400474   -0.9123831788
 H    3.1147198261    0.0321597763    1.4194978939
 H    2.3294290511    1.3939300200    0.5912822963
 H    1.5380272951   -2.4301933168   -0.2438097670