20

 C    0.1503396237    1.5426179788    0.0509463426
 C   -0.0262044539    0.0235191884   -0.0019479315
 C   -1.4967085290   -0.4807066732   -0.0129503040
 C   -2.2665704107    0.0241319021   -1.2508994747
 C   -1.4693656080   -2.0431390907    0.0077570081
 C   -2.7819818445   -2.6727581500    0.0225335554
 C   -3.8688559913   -3.1847471741    0.0348576045
 C   -2.1709706881   -0.0031891152    1.2060161942
 N   -2.6778121382    0.3905184445    2.1674216464
 H    1.2128271375    1.7937887055    0.1176697911
 H   -0.2471315049    2.0334239546   -0.8419972808
 H   -0.3507529958    1.9691777675    0.9249539687
 H    0.4575530316   -0.3779840499   -0.9009145265
 H    0.4827832525   -0.4298281342    0.8565630505
 H   -1.7371170528   -0.2810890908   -2.1595063333
 H   -3.2717750576   -0.4011677839   -1.2760365062
 H   -2.3532372013    1.1122416020   -1.2489929645
 H   -0.9107994070   -2.3711872685   -0.8779363722
 H   -0.8939234959   -2.3732158101    0.8804381212
 H   -4.8276856262   -3.6407814629    0.0579611509