18

 C    0.0779717302    1.4950953988    0.1175408369
 C    0.0037946738    0.0084110554    0.0216998728
 C   -0.0386217387   -0.7313022866   -1.1080523730
 C   -0.0676100429   -0.2506510992   -2.4376360294
 C   -0.1078437618    0.1218044985   -3.5840327830
 C   -0.0131353664   -2.1955126770   -0.7781531067
 N    1.2381204226   -2.5926284239   -0.0766617772
 C    0.0197652921   -2.2885150550    0.7037967933
 C   -0.0042620133   -0.8709612204    1.2591544936
 H    1.0130873147    1.8099436749    0.5984887162
 H    0.0265688906    1.9607169127   -0.8691855535
 H   -0.7383142462    1.8914875156    0.7353161263
 H   -0.1326316365    0.4582051030   -4.5905069061
 H   -0.5139688708   -2.9139978527   -1.4170137361
 H    1.3360789054   -3.6052179312   -0.1362756321
 H   -0.4741284835   -3.0908735097    1.2406516125
 H    0.8602885209   -0.6690936911    1.9038452842
 H   -0.9024119601   -0.6872669920    1.8652997112