21

 O   -0.2508006577    1.4284485668   -0.3615284569
 C   -0.1633842374    0.0363201540   -0.2516907205
 C   -0.2099095574   -0.6692444035    1.0793180940
 C   -1.3545847730   -0.8041357861    0.0967216008
 C   -2.7897055792   -0.2876769034    0.3127973508
 C   -3.3181834955   -1.5224513336   -0.4663216300
 C   -3.3697515078   -1.3556446129   -2.0114711785
 C   -1.9560485895   -2.0021833048   -2.1404860666
 C   -1.8526751393   -2.0822712551   -0.5954270689
 H   -1.0212545547    1.7251216823    0.1338464903
 H    0.5281683753   -0.3424905606   -0.9988287490
 H    0.4419201533   -1.5234587964    1.2389160466
 H   -0.3816472209   -0.0641193629    1.9660446113
 H   -3.0946591192   -0.2699239449    1.3637939505
 H   -3.0333157286    0.6851417209   -0.1340286304
 H   -4.1319454998   -2.0825307109   -0.0051997268
 H   -4.1643759249   -1.9279637033   -2.4959713691
 H   -3.4454447117   -0.3189444555   -2.3521320916
 H   -1.9846863604   -2.9867395936   -2.6147093861
 H   -1.1881865760   -1.4044609264   -2.6391934763
 H   -1.5275174254   -3.0264442301   -0.1537692035