16

 C    0.0244704954    1.4096253226    0.0372135145
 C    0.0236842289   -0.0436924871    0.0249812045
 C    0.0226537078   -1.2483670583    0.0148683076
 C    0.0076528566   -2.6656846474    0.0038629010
 N    1.1249370748   -3.3928936237   -0.0742584942
 N    0.6547048300   -4.6580435506   -0.0546454936
 C    1.5615528037   -5.7833605928   -0.1225745822
 C   -0.6924158119   -4.6433869904    0.0322644922
 N   -1.1440339716   -3.4078559593    0.0717919074
 H    0.6059119801    1.7987070694    0.8805038429
 H    0.4620046411    1.8137003247   -0.8825258566
 H   -0.9941225274    1.8028403072    0.1236463731
 H    2.2515110496   -5.7618941375    0.7245154296
 H    0.9786002709   -6.7055609496   -0.0928030651
 H    2.1371381845   -5.7469041902   -1.0507111160
 H   -1.2862554326   -5.5451100171    0.0629068349