19

 C   -0.2772093205    1.2755007598   -0.0723121638
 O    0.0359649385   -0.0947831272    0.0117304207
 C    0.5819867186   -0.6053935360   -1.1806123703
 C    0.8641547780   -2.0755911797   -0.9861354097
 O   -0.3456069849   -2.9074442355   -1.0476462723
 C    0.0847623199   -3.5439668252   -2.1908456187
 N   -0.4947599690   -4.3554409890   -2.9518397153
 C    1.4464994088   -2.8546162039   -2.2016725194
 N    1.8984255104   -2.1097222234   -3.3570276109
 H    0.6135471710    1.8854154498   -0.2918167613
 H   -1.0299734185    1.4753607338   -0.8510453617
 H   -0.6828785144    1.5767383646    0.8962078981
 H   -0.1116948740   -0.4600352497   -2.0259158206
 H    1.5264494252   -0.0992647270   -1.4414697446
 H    1.3702479100   -2.2331300324   -0.0302162941
 H   -1.4429172440   -4.5590434074   -2.6301340328
 H    2.2415444841   -3.5349540484   -1.8866550736
 H    2.4405120178   -2.7114580736   -3.9668641240
 H    1.1076005930   -1.7892751095   -3.9074294958