15

 C    0.0430873896   -1.2117627770   -0.0172424744
 C    0.0572867774   -0.0105394572    0.0166653656
 C    0.0440840188    1.4217720962    0.0600143430
 C    0.4419772138    2.2366758567    1.2776876523
 C    1.6297242543    1.5951811503    2.0000822371
 N    2.4011626463    1.5041371871    0.7100864625
 C    1.3246317317    2.2523500247    0.0307445789
 C    1.5682154923    3.2701801587   -0.9362311166
 N    1.7795699995    4.1015991587   -1.7137612748
 H    0.0421277087   -2.2729791809   -0.0570516667
 H   -0.7615495522    1.8941563091   -0.4968179333
 H   -0.2118529243    3.0022450686    1.6737337920
 H    2.0854435787    2.2804633279    2.7193806765
 H    1.4543727479    0.6237605473    2.4701705613
 H    3.2501657275    2.0580213599    0.7544868565