17

 C    0.2026379800    0.8216911478    1.2172272937
 C   -0.0098056278   -0.0504926822   -0.0008876059
 C    0.6837452190    0.2305283881   -1.2671909555
 O    1.1156424160   -0.8331680922   -0.4125308579
 C   -1.3188162316   -0.7993368473   -0.0549673298
 C   -2.5199448796   -0.1737982422   -0.6573016872
 O   -1.8104155817   -1.1870813925   -1.3463389809
 C   -1.5887865915   -1.8573078636    0.9806217586
 O   -0.9905944961   -1.9853224951    2.0157671434
 H    1.1799108571    1.3067099772    1.1586126516
 H   -0.5686539776    1.5970979588    1.2807286682
 H    0.1622003117    0.2170110663    2.1253085028
 H    0.2383162533   -0.0830608156   -2.2074639335
 H    1.3524063981    1.0891654164   -1.3167130610
 H   -3.5143056654   -0.4476828357   -0.3066165241
 H   -2.4206327583    0.8336738669   -1.0582382213
 H   -2.4225680455   -2.5323842452    0.6849471187