20

 C   -0.0149824770    1.4547373268    0.0158162402
 N   -0.0652112258    0.0098765423    0.0119176714
 C   -0.0414958138   -0.7866582629   -1.1069017871
 C    0.0184507201   -2.1054712510   -0.7147859129
 C    0.0387263079   -3.3065511182   -1.6112469417
 C    0.0383878834   -2.1034548299    0.7155028816
 C    0.0805963212   -3.3038827696    1.6061001205
 O    0.1698552939   -2.8729394849    2.9575325742
 C   -0.0101506702   -0.7916239362    1.1254930304
 H    1.0145120338    1.8318353410   -0.0226617881
 H   -0.5605006218    1.8462791195   -0.8468364656
 H   -0.4900622346    1.8356217657    0.9232284778
 H   -0.0698022243   -0.3512224498   -2.0942985395
 H    0.9292408472   -3.9264803381   -1.4462739048
 H   -0.8314423432   -3.9561730139   -1.4511563989
 H    0.0362501483   -3.0119037396   -2.6648490150
 H   -0.8201483719   -3.9244761856    1.4527738693
 H    0.9415054667   -3.9419301912    1.3390336181
 H    0.1547361146   -3.6531511886    3.5183693614
 H   -0.0072484047   -0.3724456660    2.1177696288