15

 O    0.0196393479    0.0327042302   -0.2944076277
 C   -0.0035289269    1.2061102152   -0.0517091065
 C   -1.2312406650    2.0764360072    0.2358260960
 C   -0.6367088237    3.4605168461    0.5512804936
 N    0.6764460492    3.5223303026   -0.1280383542
 C    1.2352103189    2.1646252395   -0.0256018269
 C    1.9645889873    1.9662416278    1.2246990935
 C    2.5254255793    1.7758315156    2.2704147612
 H   -1.8486988292    2.0966621434   -0.6702099598
 H   -1.8358229181    1.6312911747    1.0302121582
 H   -1.2637024415    4.2917438941    0.2242341375
 H   -0.4704499808    3.5712917392    1.6280428025
 H    0.5291414653    3.7265754661   -1.1123242683
 H    1.8858798575    1.9410257510   -0.8764239335
 H    3.0391557398    1.6147629872    3.1859072444