20

 C   -0.5942281446    1.3946831825    0.0482996173
 C    0.1352782604    0.0457543281    0.0204975401
 C    0.7984578459   -0.2110093402   -1.3445050105
 C    1.1851902413   -1.6659516299   -1.4912656893
 C    2.5559928247   -2.0834304647   -1.9793598517
 C    2.1853329003   -2.2362299354   -0.5331072865
 O    2.8515238770   -1.4098574620    0.3952410527
 C    2.1603128350   -0.5760434720    1.2345540672
 N    1.0575422653    0.0222335343    1.1521168570
 H    0.1065517292    2.2135043762   -0.1471552582
 H   -1.3839272982    1.4286972117   -0.7092597438
 H   -1.0396719853    1.5631334471    1.0314618803
 H   -0.6135887150   -0.7426438750    0.1930791993
 H    0.1153208085    0.0761144708   -2.1522831899
 H    1.6772786560    0.4380727360   -1.4353788099
 H    0.3588799436   -2.3283226109   -1.7374016849
 H    2.6593563919   -2.9777629956   -2.5833674505
 H    3.2572546964   -1.2898987644   -2.2140949848
 H    2.0312164873   -3.2370540498   -0.1381401245
 H    2.7804926503   -0.4184268368    2.1182194708