15

 C    0.2519882719   -3.6443568630    0.0602919854
 C    0.1556418555   -2.4410030760    0.0435488679
 C    0.0480978958   -1.0848985861    0.0263109703
 C   -0.0472918448    0.1214866687    0.0113037982
 C   -0.1684027681    1.5926825633   -0.0140449429
 O   -0.7419546512    2.0890693389    1.1731020274
 C    0.3371610166    2.2506696315    2.0940050735
 C    1.5971027702    2.3389652358    1.1937433703
 O    1.0886448600    2.2171195978   -0.1348957268
 H    0.3352927284   -4.7028856602    0.0729210417
 H   -0.7919820448    1.9098259978   -0.8556922366
 H    0.1491101952    3.1605610455    2.6685552443
 H    0.3933164476    1.3979128966    2.7807479655
 H    2.1147237619    3.2984211621    1.2637399381
 H    2.3057423356    1.5320567371    1.4144021335