15

 C    0.0279145566    1.5746620804    0.0721088680
 C    0.0800486834    0.0638477010    0.0655309629
 C    1.3116793318   -0.7674250809   -0.2677146527
 C    2.5152956896   -0.1588058221    0.4112646955
 O    3.6265130965    0.1392301347    0.1291604791
 O    1.8996742953   -0.0577407768    1.6557247870
 C    0.7312934850   -0.7428209019    1.1541578355
 C    0.1234670110   -1.8435699527    1.9200029652
 O    0.4790501376   -2.2030169234    3.0113659251
 H    0.9081157465    2.0041336846    0.5540319137
 H   -0.0303860289    1.9570440054   -0.9510059613
 H   -0.8573231538    1.9181699529    0.6156011484
 H   -0.8171478988   -0.4189102764   -0.3216536057
 H    1.3223972668   -1.5575720677   -1.0050846848
 H   -0.7248291384   -2.3215577671    1.3795967144