19

 C   -0.0458841967    1.5656717192    0.1626678515
 C    0.0509078946    0.0722648447    0.0710657457
 C    0.5602128863   -0.7164990678   -1.1460754989
 C    1.3100394776   -1.6366331939   -0.1500248559
 O    2.1721155943   -2.4597649995   -0.2927876614
 C    0.7624595238   -0.9398145897    1.0539355207
 C    1.4530008743   -0.7999724834    2.3792709804
 C   -0.7585262740   -0.8668167537    0.9056158618
 O   -1.3752434130   -0.3621435492    2.0542661249
 H    0.9097779997    2.0443531998   -0.0755576419
 H   -0.7912711653    1.9536620187   -0.5429810899
 H   -0.3401823747    1.8734844284    1.1694129290
 H   -0.1938440389   -1.1761222948   -1.7944711942
 H    1.2754778495   -0.1655508246   -1.7649074344
 H    1.6346918645   -1.7900477248    2.8110997131
 H    2.4236035861   -0.3062636211    2.2693931674
 H    0.8419773771   -0.2301745263    3.0812865781
 H   -1.3007457805   -1.6920472218    0.4368530224
 H   -2.1883465048    0.0789846398    1.7863036017