21

 C   -0.0832173765    1.5520951252    0.0145823819
 C    0.0680808729    0.0308689316   -0.0281633505
 C    0.9773147598   -0.5458220669   -1.1280704574
 C    2.3795902436   -0.0400955830   -0.7002024788
 C    2.1648467980   -1.0107819721    0.4768934123
 C    1.4276908857   -1.9675068796   -0.5051446295
 C    0.4528407599   -2.7276361042    0.3451618414
 C    0.1627030124   -1.9655319478    1.4069471547
 C    0.8338176932   -0.6192449122    1.2046553063
 H    0.8633842833    2.0738415371    0.1775338749
 H   -0.5154229825    1.9311747718   -0.9184966037
 H   -0.7563562539    1.8399714970    0.8296937397
 H   -0.9344845334   -0.4020637549   -0.0950034219
 H    0.6264239836   -0.4765854664   -2.1580923043
 H    3.1688500067   -0.3981648975   -1.3671089823
 H    2.5265204547    1.0239635607   -0.5073267851
 H    2.9768945056   -1.3703379902    1.1116885251
 H    2.0564814232   -2.5338317300   -1.1929869567
 H    0.0452635477   -3.7028353370    0.1089834633
 H   -0.5457442974   -2.1841501729    2.1971348760
 H    0.9132928735    0.0262012213    2.0806035846