14

 O    0.5278736239    0.9240933772    0.6851478814
 C   -0.0435174011   -0.1792275871    0.0370570834
 C   -1.5861536131   -0.1455493498   -0.1978485044
 C   -1.3465932570   -0.5537053986   -1.6634870705
 C   -1.9445648955   -1.6393374225   -2.4596080102
 O   -2.1589793248   -0.2661053654   -2.7772226514
 C    0.1263228151   -0.2175109274   -1.5005461086
 O    1.0275450554    0.1094327869   -2.2174736828
 H    1.3022367622    1.1858447998    0.1716268534
 H    0.2690588785   -1.1298564542    0.4958190638
 H   -2.1925600269   -0.8149148999    0.4123703088
 H   -1.9606845241    0.8779769655   -0.1227008239
 H   -1.3285093123   -2.1930333560   -3.1659379100
 H   -2.8044116203   -2.1694754786   -2.0524381091