18

 C    0.0578688080    1.2999466820    0.2157397197
 O   -0.0437048033   -0.1133332966    0.0335598956
 C   -1.2969880796   -0.6172626674    0.0285879401
 N   -1.2678658596   -1.9978644899   -0.0694664229
 C   -0.0630039614   -2.7204141413   -0.4420582113
 C   -0.1997102696   -4.1436430466   -0.1184555458
 N   -0.3177426774   -5.2685449282    0.1144344680
 N   -2.3213444978    0.1239419224    0.1340018975
 C   -3.6288276496   -0.5017280262    0.1413953074
 H    1.1265410563    1.5182887526    0.2048040252
 H   -0.4534844041    1.8311321237   -0.5906405492
 H   -0.3884460442    1.6001140819    1.1669166956
 H   -2.1373343415   -2.4208878273   -0.3529340284
 H    0.1863632602   -2.6324428639   -1.5104888516
 H    0.7811547873   -2.3072150086    0.1139923756
 H   -4.3957992367    0.2672875290    0.2616470261
 H   -3.8542549367   -1.0331988873   -0.7990166340
 H   -3.7502015703   -1.2221102184    0.9651905023