21

 C    0.0374253235    1.2990066406   -0.2838450378
 O   -0.0093560186   -0.0319523227    0.1799563526
 C   -1.2950130721   -0.6089307795    0.1361371900
 C   -1.7921619524   -0.9564945475   -1.2896026903
 O   -2.7041094484   -2.0288979030   -1.1237518835
 C   -2.2267818573   -2.8450215318   -0.0638609790
 C   -1.0160338517   -3.7669964719   -0.3946767711
 C   -0.1117260011   -2.9142327183    0.5418421930
 C   -1.3122046481   -1.9704928368    0.8461334189
 H    1.0586914743    1.6573877392   -0.1334998647
 H   -0.2077483562    1.3797329620   -1.3532216819
 H   -0.6529665617    1.9481336892    0.2772857206
 H   -2.0214662704    0.0651816466    0.6172041146
 H   -2.3250741312   -0.1449252019   -1.7914964746
 H   -0.9253116952   -1.2402765361   -1.9087492106
 H   -3.0924998982   -3.3394574677    0.3812767415
 H   -1.1473251277   -4.8080540164   -0.0901257111
 H   -0.7441912714   -3.7516330265   -1.4532587751
 H    0.2501438790   -3.4500397172    1.4215343607
 H    0.7373157605   -2.4202079612    0.0676396889
 H   -1.5856401355   -1.8801812791    1.8977330188