21

 O    0.2094040186    1.3566790076   -0.1893923703
 C    0.0686735119   -0.0355900037   -0.0477050496
 C    0.1468896046   -0.6317833057    1.3975739341
 C   -1.3634744858   -0.2606645598    1.5306025551
 C   -1.3808406453   -0.6250807221    0.0134748363
 C   -1.0751628523   -2.1170461529    0.0624761419
 C   -2.1312785584   -3.1788854147   -0.0322511005
 C   -1.1211975326   -3.0034975486   -1.1478505520
 C    0.0757209016   -2.1427501659    1.1019796003
 H   -0.3583216946    1.7988276162    0.4496971647
 H    0.7375795932   -0.4727001992   -0.7944956278
 H    0.8967744539   -0.2885394760    2.1114674046
 H   -1.9818781726   -0.8596993226    2.2045237563
 H   -1.5421932904    0.7983938018    1.7357347831
 H   -2.1661635033   -0.2904956336   -0.6661080165
 H   -2.0380340932   -4.0523991950    0.6060637545
 H   -3.1565505174   -2.8754359977   -0.2211146525
 H   -1.4679345720   -2.5801805845   -2.0855889934
 H   -0.3505719495   -3.7595805096   -1.2616991873
 H    1.0118651510   -2.5302386965    0.6867434408
 H   -0.1716144375   -2.7302065374    1.9921584182