18

 C    0.1139057118    1.6142964768   -0.0782802802
 C   -0.0180853362    0.0886165062   -0.0761505527
 C    0.7842808321   -0.5629022454   -1.2063805428
 C    0.6909298526   -2.0985178603   -1.2466789837
 O   -0.6126282910   -2.5851205429   -1.5164364071
 C    1.5502067641   -2.6700991462   -2.4071057138
 O    2.5435788953   -2.1468971865   -2.8204302776
 C    1.2105664774   -2.6974003639    0.0037627739
 N    1.5957328150   -3.1742816964    0.9841335631
 H    1.1577073548    1.9186658213    0.0516418925
 H   -0.2425127246    2.0427870817   -1.0211293609
 H   -0.4682072167    2.0601699699    0.7332630194
 H    0.3177939233   -0.3087077711    0.8893759701
 H   -1.0788672495   -0.1783142079   -0.1747266857
 H    0.4310705818   -0.2029264565   -2.1793076016
 H    1.8435776646   -0.2961686129   -1.1347312909
 H   -1.1816600649   -2.3899380913   -0.7640692996
 H    1.1330045401   -3.6123685846   -2.8161092724