18

 C    0.0097014528    1.5561967045   -0.0514527510
 N    1.2380471512    0.7236124441    0.0551457354
 C   -0.0655360411    0.0908061225    0.0020135717
 C   -0.5252592360   -0.9439370045    1.0300649923
 C   -2.0358157706   -0.8476188427    1.2974633762
 C   -2.7629076230   -0.7774260511   -0.0318768083
 C   -2.0563920577   -0.8166975062   -1.1623075727
 C   -0.5551834501   -0.9617262943   -1.0003877615
 O   -0.3053528088   -1.9782450158    0.0206644364
 H   -0.2062689477    2.1592204396    0.8266683310
 H   -0.2126585649    2.0445012512   -0.9976638447
 H    1.7047266522    0.6671393887   -0.8475679476
 H    0.0846215466   -1.0913627223    1.9243518749
 H   -2.3737718333   -1.7162710796    1.8774841180
 H   -2.2565165478    0.0387461698    1.9077265202
 H   -3.8463761745   -0.7031415385   -0.0290289504
 H   -2.5049200491   -0.7546315473   -2.1478027232
 H    0.0010863617   -1.1437153683   -1.9236364966