25

 C    0.0616904745    1.5489995755    0.0729461284
 C   -0.0509482759    0.0186243397   -0.0460204577
 C   -1.5096622536   -0.4588985838    0.0615025771
 C   -2.1773337200   -0.1119490441    1.3887779639
 O   -3.4456420146   -0.7542050644    1.4055632437
 C    0.6792791370   -0.5176239131   -1.3113054952
 C    0.6715018185   -2.0537302907   -1.3643029532
 C    0.1228904759    0.0601030737   -2.6214695936
 O    2.0368663209   -0.0793714900   -1.1353370970
 H    1.0831529802    1.8727895875   -0.1322851557
 H   -0.6113786239    2.0584831089   -0.6259723695
 H   -0.2019864732    1.8838107814    1.0802769180
 H    0.5077939653   -0.4162316583    0.7946405507
 H   -2.1150525859   -0.0328058249   -0.7480942456
 H   -1.5686115186   -1.5467417739   -0.0413567071
 H   -1.5446389655   -0.4598056648    2.2228348377
 H   -2.2893180422    0.9768167874    1.4958989850
 H   -3.8987160992   -0.5008136952    2.2148737060
 H   -0.3210776746   -2.4600914989   -1.5754778594
 H    1.3396484543   -2.3997119182   -2.1618255017
 H    1.0297129854   -2.4743967169   -0.4200266607
 H    0.2075393258    1.1490355023   -2.6377293734
 H    0.6867448355   -0.3335164349   -3.4758870575
 H   -0.9261583311   -0.2109224350   -2.7727221279
 H    2.5352086450   -0.3555563793   -1.9114112654