21

 C   -0.0935207110    1.5086033325   -0.2540617119
 C   -0.0226096970    0.0151529901    0.0959019182
 C   -1.3760023559   -0.6258472593    0.0939168941
 C   -2.1175440267   -1.1777167200   -1.0887839727
 C   -1.8984887930   -2.0505767212    0.1452542690
 C   -1.2273961306   -3.3880866217    0.1059686325
 O   -2.1177862491   -4.4400353571   -0.2509815679
 C   -2.8161356250   -1.5309428586    1.2464197581
 O   -2.3189616166   -0.1751771873    1.0794536024
 H    0.8989238535    1.9665522310   -0.2118718140
 H   -0.4956625119    1.6577306218   -1.2611297098
 H   -0.7435995299    2.0364035852    0.4493066421
 H    0.6184918830   -0.5122030590   -0.6200263010
 H    0.4302502071   -0.1111835438    1.0866514365
 H   -3.1062590453   -0.7969737902   -1.3314899416
 H   -1.5014082023   -1.4445418323   -1.9436200421
 H   -0.3615273727   -3.3486594462   -0.5749979887
 H   -0.8466768194   -3.6570070159    1.0977169971
 H   -2.5205750357   -4.1978129302   -1.0917925649
 H   -3.8988757316   -1.6000423646    1.0904301224
 H   -2.5612295000   -1.9163818032    2.2409621823