17

 C   -0.0183155943    1.4581873709   -0.3891476347
 N   -0.0662272817    0.0113588048   -0.1842689670
 C   -0.2770473761   -0.4376571105    1.1895003541
 C   -1.3711188774   -0.5301144122    0.1849842756
 C    1.3684756282    1.9858459695   -0.2331837611
 N    2.1233951486    2.5428283302   -1.1264408563
 C    3.2979035649    2.8502072640   -0.4501974731
 C    3.1834215044    2.4528622604    0.8371050962
 O    1.9446077086    1.8982980714    0.9954279070
 H   -0.3326816389    1.6812112768   -1.4115872105
 H   -0.6938123882    1.9974914872    0.3005458768
 H    0.2808614181   -1.3213182634    1.4840075939
 H   -0.3728207726    0.3196235237    1.9650825383
 H   -2.2022867953    0.1658924175    0.2894376356
 H   -1.6293655601   -1.4814709941   -0.2703581271
 H    4.1290828561    3.3297544627   -0.9418841761
 H    3.8159510259    2.4775463912    1.7074516585