14

 O    0.0363286191    0.0904273565   -0.1210348188
 C    0.0058340360    1.2848402927   -0.0916456787
 C   -1.0772727160    2.3081745867    0.1084466812
 C   -0.0733658462    3.1451409142    0.8625699407
 C    1.0782230909    2.3855584907    0.0998239354
 C    0.7640053658    3.3430394379   -1.0711899751
 C    0.7718353479    2.8364589608   -2.4281631539
 C    0.7787200364    2.3978940418   -3.5471389524
 N   -0.5944768392    3.6260171109   -0.4242273220
 H   -2.1413944116    2.1940133147    0.2589155307
 H   -0.1550466146    3.6418814314    1.8184126529
 H    2.0844289670    2.1402945371    0.4265530393
 H    1.3222153683    4.2803928168   -0.9985326689
 H    0.7825298661    2.0094369479   -4.5359756804