17

 O    0.1624723493    1.3596381611    0.3242911859
 C   -0.0034287791   -0.0114709336    0.0814602447
 C   -1.4488727836   -0.5046211919   -0.1686460080
 C   -2.1045732455    0.2984978775   -1.3110469990
 C   -1.4314755834   -0.3347848684   -2.5662135309
 C   -0.4352346789   -1.3237567059   -1.9008976662
 O   -1.1642387550   -1.7883500473   -0.7569601483
 C    0.6272693105   -0.4386049053   -1.2554450702
 O    1.6592505490   -0.0070784142   -1.7018925941
 H    0.9894443608    1.6157471281   -0.1080214509
 H    0.4225270849   -0.6257887610    0.8908611740
 H   -2.0490580254   -0.6415448064    0.7292709566
 H   -3.1862153825    0.1562136427   -1.3194969728
 H   -1.8932452003    1.3641867576   -1.2052501697
 H   -2.1483277977   -0.8975180108   -3.1676953913
 H   -0.9323717782    0.3917941956   -3.2108393201
 H   -0.0810615652   -2.1512753778   -2.5119870296