17

 C   -0.0144115535    1.2896809704    0.0503060597
 O    0.0269360376   -0.1201440006   -0.0656263655
 C    0.6474367490   -0.5816588965   -1.1918485423
 C    0.6336715053   -0.1621184708   -2.6584997902
 C    0.8024706384   -1.6496745638   -3.0831536822
 C    2.1348522913   -1.7248356202   -2.3175961260
 C    1.9661347910   -0.2414610626   -1.8820978668
 C    0.8163264685   -2.0834562416   -1.6373795027
 O    0.3453265224   -3.2621414655   -1.1325317543
 H    0.9961091681    1.7199788449    0.0942997707
 H   -0.5576403497    1.7450627499   -0.7892585710
 H   -0.5390305694    1.5156019698    0.9804692716
 H    0.1893064969    0.6863184453   -3.1622749091
 H    0.4732849446   -2.2058931791   -3.9508988704
 H    3.0043678349   -2.3398339768   -2.5113906151
 H    2.6883379167    0.5417275135   -1.6923284542
 H    0.8469877279   -3.4775838562   -0.3373729123