16

 C   -0.1000499465    1.3721194615    0.1022306565
 N   -0.0256065272   -0.0748106504    0.0275046616
 C    0.6177139723   -0.5833457039   -0.9555701159
 N    1.2864419949    0.0451972597   -1.9646149267
 C    0.7012171968   -2.0911684517   -1.0416454710
 O    1.2364813246   -2.6291883385   -1.9806087109
 C    0.0689143596   -2.8566348011    0.1213110378
 C    0.1170143823   -4.3020396684   -0.0549400086
 N    0.1399687685   -5.4503933723   -0.1710295705
 H    0.8987838915    1.8342343758    0.1350152690
 H   -0.6323172507    1.8027382402   -0.7614147273
 H   -0.6410211449    1.6665983835    1.0038146133
 H    1.1104495384    1.0145377267   -2.1619926309
 H    1.6070459985   -0.5422400815   -2.7194386056
 H    0.5782942740   -2.5671913391    1.0469728001
 H   -0.9620889923   -2.5137533106    0.2509704692