15

 N    0.1723789687    1.4093531746    0.0236435646
 C   -0.0298569674    0.0142550949   -0.0123820082
 C   -1.1189638236   -0.7980556902   -0.0383795678
 C   -0.6899592953   -2.1740399638   -0.0703114061
 C    0.6713882011   -2.1725158754   -0.0630417243
 O    1.5436457862   -3.1844469675   -0.0836062939
 N    1.1111099452   -0.8377876843   -0.0274750724
 C    2.4238278605   -0.4459598231   -0.0104208962
 O    3.3595175681   -1.2298157606   -0.0259638668
 H   -0.2110040075    1.8793462023   -0.7886705520
 H   -0.2226880951    1.8385271678    0.8527559871
 H   -2.1440484010   -0.4581005018   -0.0353900131
 H   -1.3140002658   -3.0519400203   -0.0954694277
 H    2.4410728327   -2.7909630929   -0.0686690934
 H    2.5398384431    0.6449777001    0.0167334602