19

 C    0.7495681338   -0.3870062629   -1.6275946547
 C    0.1519788496   -0.1177775075   -0.2371221335
 C    0.0030353182    1.3275955305   -0.0040335290
 N   -0.1038247413    2.4613218890    0.1917986241
 N   -1.1816877801   -0.7323727958   -0.1584710978
 C   -1.8940122440   -0.7771903969    1.1886286964
 C   -2.7563427861   -1.9048201607    0.5646365946
 C   -1.2738511077   -2.2072019136    0.2267669186
 C   -0.9236537772   -1.8770413870    1.7064394890
 H    1.7204693676    0.1029218589   -1.7348911301
 H    0.8881583105   -1.4633332989   -1.7621465686
 H    0.0732748916   -0.0222776047   -2.4031363283
 H    0.8674384882   -0.4769928516    0.5198774349
 H   -2.2239068640    0.1368150143    1.6825114791
 H   -3.2503723703   -2.5865455607    1.2577065375
 H   -3.3807824637   -1.6087273764   -0.2777675877
 H   -0.8748709938   -2.9934462445   -0.4156725676
 H    0.1005011567   -1.5860191573    1.9403074987
 H   -1.3084723679   -2.5588435141    2.4690061644