17

 C   -0.1004513235    1.5339358987    0.1103481967
 C   -0.0008679701    0.0141045205   -0.0406538161
 C    0.7427500898   -0.4726921039   -1.3235373973
 C    2.2142103714    0.0059210665   -1.3605721048
 C    0.7535120293   -2.0076668863   -1.2697532369
 O    0.2083826812   -2.7438547751   -2.0413040509
 C    0.0328107363   -0.0113274493   -2.5209545780
 N   -0.5200271743    0.3951820351   -3.4500863606
 H    0.8812952480    2.0013385613    0.2269857977
 H   -0.5940762760    1.9851180518   -0.7551548287
 H   -0.6886393789    1.7793223727    0.9990913460
 H    0.5217460149   -0.4157114668    0.8226890368
 H   -1.0069347947   -0.4190340273   -0.0498250989
 H    2.7419675751   -0.3476804331   -0.4692775247
 H    2.7260775977   -0.3792099754   -2.2460139566
 H    2.2676975538    1.0954257131   -1.3845867419
 H    1.3360618598   -2.3910135624   -0.4008510118