17

 C   -0.5899386854    1.3386744399    0.0377510255
 C    0.2658829256    0.0965269255   -0.0120500879
 O    0.9965817500    0.0849981368   -1.2301395695
 C    2.0463346129   -0.8745737124   -1.1906832355
 C    3.1224485744   -0.3825966994   -0.1718199468
 C    2.1658994890   -0.8783578882    0.9583922623
 O    1.1271892056    0.0808645710    1.1174194776
 C    1.7567870713   -1.9517905965   -0.0986037302
 O    1.6371022479   -3.1389133733   -0.0940352582
 H    0.0463617032    2.2259933593    0.0039111714
 H   -1.2712257143    1.3531294597   -0.8158069277
 H   -1.1723333867    1.3500011487    0.9616613367
 H   -0.3484109368   -0.8215589827    0.0205097365
 H    2.3106230796   -1.1608241047   -2.2078505262
 H    4.0529399236   -0.9530860816   -0.2245928779
 H    3.3044181256    0.6920863099   -0.1800515031
 H    2.5413321944   -1.1681255320    1.9389543228