18

 N   -0.0575439098    1.5616749779   -0.0102735039
 C   -0.0620102067    0.1231927293    0.0036440959
 C    0.3738820904   -0.6575171019    1.2871037399
 O    0.2150094797    0.1361129413    2.4299274332
 C   -0.8606093432   -1.6063333041    1.1109702632
 N   -1.5870975632   -1.8509881847    2.3440241456
 C   -1.4700386018   -0.5801798798    0.0845683607
 C   -2.5377501156    0.2284817254    0.6429642172
 N   -3.4090639065    0.8177454918    1.1253122447
 H   -0.2441530569    1.8928003144    0.9338008725
 H    0.8618372013    1.9078816564   -0.2648667728
 H    0.4605696465   -0.2542335062   -0.8795722764
 H    1.3664741710   -1.1272765214    1.2630566765
 H   -0.4028833178   -0.3640314130    2.9966140898
 H   -0.5934110458   -2.5320544437    0.5943004252
 H   -2.5352041220   -1.4920894982    2.3132393171
 H   -1.6173422588   -2.8311574631    2.5907971935
 H   -1.8227974908   -1.0160003003   -0.8533761820