21

 O   -0.0513492365    1.4540493141   -0.0535109783
 C    0.0291750021    0.0386155202    0.0010001430
 C   -1.3911920927   -0.5103919127   -0.0052703469
 C   -1.4213757930   -2.0497106490    0.0549085420
 C   -2.7743679475   -2.5949551125    0.0479142452
 C   -3.9019033589   -3.0220931741    0.0401504310
 C   -5.2430021077   -3.5325410309    0.0381747589
 C   -5.8232617508   -4.1713608517   -1.2138079744
 C   -5.4962006693   -5.0306452033   -0.0282572277
 H    0.8429173348    1.8072124653   -0.0464943075
 H    0.5875943454   -0.3634140140   -0.8611463656
 H    0.5544053954   -0.2969200619    0.9110231982
 H   -1.9377018566   -0.0956737609    0.8479443016
 H   -1.9043829024   -0.1649429522   -0.9084708073
 H   -0.8595325568   -2.4583888213   -0.7965362587
 H   -0.8897257072   -2.3898981283    0.9546762366
 H   -5.9471703328   -2.9673812810    0.6424346132
 H   -6.8647012456   -3.9699194384   -1.4382717210
 H   -5.1756434597   -4.2303988110   -2.0803185763
 H   -4.6264696699   -5.6737879782   -0.0891947267
 H   -6.3109297304   -5.4245040783    0.5689610508