17

 O   -0.5520176273    0.7143976249    0.4506499874
 C    0.5134694385    0.7934058836   -0.1055631567
 C    1.4595007724    1.9676990125    0.0220160995
 C    1.3816553063    2.7300374379    1.3531108770
 C    1.4386467701    4.1789424181    0.9318026270
 C    1.4186387377    4.3409617640   -0.3914923822
 C    1.3930286963    3.0336551567   -1.1301464811
 C    2.7665938408    2.4481596887   -1.5394499505
 O    2.7980807106    1.5945521345   -0.3744613935
 H    0.8888632139   -0.0032966652   -0.7859868045
 H    0.4517158763    2.4883464396    1.8814673042
 H    2.2174605382    2.4378469011    1.9991952464
 H    1.4755774826    4.9871572800    1.6540858904
 H    1.4320261859    5.2944814488   -0.9078741726
 H    0.6002364587    2.9511703575   -1.8777548243
 H    2.7597419772    1.8637951820   -2.4682643956
 H    3.6060600617    3.1515106953   -1.5569346411