12

 O   -0.1912337624    0.2124829402    0.0955633959
 C    0.2442565987    1.2546396049    0.4601221336
 O    0.8496509333    2.1240694936   -0.4099974832
 C    1.3218477342    3.2994048875    0.0902081028
 N    1.8792589028    4.1053065958   -0.6945651404
 C    2.3931218280    5.3666587999   -0.1931251330
 C    2.2187727980    5.6200724394    1.2476599544
 N    2.0521732234    5.7600313112    2.3827208474
 H    0.2157266356    1.6346127581    1.4962556254
 H    1.1679593061    3.4404486961    1.1658876952
 H    3.4618321032    5.4234884031   -0.4308597089
 H    1.9157395091    6.1806805602   -0.7511276192