19

 C   -1.3411423594    1.6877623775    1.8593125145
 O   -0.0747271185    1.3414477589    1.3402254615
 C    0.5414004312    0.2480154566    1.9107712948
 C   -0.0705478609   -1.0111077941    2.4388521867
 C    0.8267740020   -0.1720744507    3.3502236151
 C    2.3259131078   -0.3329077821    2.9572422139
 O    2.4437121259   -1.2818455995    1.8787818356
 C    2.0685226657    0.0722570813    1.5792826751
 C    2.8234234838    0.8484527607    0.5542937436
 H   -1.3008255846    1.8570253859    2.9449328000
 H   -1.6390720175    2.6153685956    1.3661639478
 H   -2.0946326271    0.9164344350    1.6494679398
 H   -1.1209522007   -0.9365129195    2.7029237065
 H    0.2461510273   -1.9871664433    2.0909434918
 H    0.4844546866    0.2256534378    4.2957233951
 H    3.1895922543   -0.1956988453    3.5975374601
 H    2.5710435543    0.5075096856   -0.4558791666
 H    2.5690076007    1.9096963221    0.6219524437
 H    3.8995067490    0.7248870375    0.7015340111