17

 C    0.0243905032    1.5622811028   -0.0590542939
 C    0.0381764244    0.0310115675   -0.0060158344
 N   -1.2975599641   -0.5841693246    0.0761511790
 C    0.7652237652   -0.5616605186   -1.2282963516
 N    1.0456822863   -1.9838049676   -1.1251880865
 C    1.2027335599   -2.4445891728    0.0324495998
 O    1.1896251959   -1.7561469661    1.2272935291
 C    0.7517696273   -0.4519860546    1.2615404397
 O    0.9023854829    0.1836344982    2.2623045647
 H    1.0367340006    1.9778880027   -0.0815588754
 H   -0.5059406353    1.8951459025   -0.9574729150
 H   -0.4812526242    1.9705213877    0.8189923874
 H   -1.8411210407   -0.1309321141    0.8050955857
 H   -1.7937689465   -0.4403058871   -0.7989858360
 H    0.1544321774   -0.3886174112   -2.1226568690
 H    1.7107894821   -0.0283150136   -1.3951705545
 H    1.4162598257   -3.4926986911    0.2196891807