16

 O    0.0058574169   -0.0126515509    0.2584134837
 C   -0.0128566074    1.1797319894    0.0695596570
 N   -1.1492563280    1.9771834610   -0.0885463762
 C   -0.8281868545    3.3772552684    0.0255252930
 C   -0.7812413668    4.0551455825    1.4171806874
 N   -0.0092634246    3.1591192872    2.2992642411
 C    0.7136877062    4.0754982663    1.3967983352
 C    0.7411601120    3.3985164942    0.0041901229
 N    1.0968233239    2.0076067629   -0.1190219807
 H   -2.0041320428    1.5972309658    0.2854774082
 H   -1.3131084193    3.9959189826   -0.7330965760
 H   -1.4807760612    4.7770451390    1.8208715912
 H   -0.0021550466    3.5719864222    3.2303047287
 H    1.4040618690    4.8163213573    1.7815302642
 H    1.1883487703    4.0297822450   -0.7671225888
 H    1.9715147029    1.6510894272    0.2315229990