21

 C    0.1136638946    1.6333782924   -0.3964069339
 O   -0.3425023312    0.3017664800   -0.4766591957
 C    0.5913191499   -0.5963198427   -1.0286638975
 C    1.7966699308   -0.9351870411   -0.1295367757
 C    2.1970769510   -2.3565253184   -0.5418141353
 O    3.1918386734   -2.9369744441   -0.1940724652
 C    1.1174053254   -2.9048516287   -1.4819274054
 C   -0.0867493705   -1.9611654019   -1.3141527221
 C   -1.0186106887   -2.4095494269   -0.1805996412
 H    0.9686365448    1.7406367711    0.2869183943
 H    0.4108775721    2.0198001013   -1.3840458763
 H   -0.7149434286    2.2360854497   -0.0171496822
 H    0.9674709729   -0.1887441690   -1.9834487759
 H    2.6479598122   -0.2553841625   -0.2081790280
 H    1.4874202714   -0.9533882491    0.9230416763
 H    1.5265878872   -2.8562576850   -2.5002145030
 H    0.9069271622   -3.9566277718   -1.2726050433
 H   -0.6712672251   -1.8906636497   -2.2362947983
 H   -0.4788043613   -2.5492113933    0.7627404280
 H   -1.8035265903   -1.6710046116   -0.0083188009
 H   -1.4866304124   -3.3658388186   -0.4345748087