18

 N   -0.4485971255   -1.1100797300   -0.4834698902
 C   -0.1995704534   -0.0111938558   -0.2262760648
 C    0.1012950733    1.3863411428    0.1106800724
 C   -0.0866010527    1.7667909874    1.6005645612
 C    1.4570729074    1.8749680202    1.6218108997
 O    1.5116297362    1.6498592980    0.1774568499
 C    2.0819246530    3.1679492159    2.0324029024
 C    2.5808511506    3.3297469036    3.4513305917
 C    3.5628138411    3.2291207247    2.3166157141
 H   -0.3991882107    2.0346449446   -0.6173850033
 H   -0.6011251653    2.7187055937    1.7384725182
 H   -0.5352242357    1.0071059458    2.2391823855
 H    1.9392937810    1.0394277433    2.1471089290
 H    1.6391305967    4.0442690958    1.5666153788
 H    2.4360372578    4.2907126667    3.9310795999
 H    2.4893555051    2.4815424480    4.1219848261
 H    4.1337948440    2.3122474451    2.2163350720
 H    4.0982619172    4.1214764103    2.0141049875