21

 C   -0.2312941741    1.6256776259   -0.0562768323
 C    0.0251829688    0.1249234514   -0.0210822731
 C    1.1113917120   -0.5852265753   -0.8942607520
 C    2.4129085445    0.1404713921   -0.4960340720
 C    2.3654274493   -0.3155076859    0.9758065994
 C    2.5253430552   -1.8530116106    0.8222402095
 C    1.1320506571   -1.7601431866    0.1835459692
 C    0.7853933399   -0.5693050983    1.1200703172
 O    0.2656445874   -0.7892188572    2.3922673378
 H    0.6650342996    2.2145240725    0.1594870985
 H   -0.6106178815    1.9425609364   -1.0343007483
 H   -0.9870242165    1.8976884508    0.6893625455
 H   -0.9233536449   -0.4124198613   -0.1449350541
 H    0.9295855408   -0.7885827584   -1.9484559607
 H    3.3002284264   -0.2356489182   -1.0144717722
 H    2.3659435680    1.2209343231   -0.6468744372
 H    2.9232458552    0.2498942311    1.7237907625
 H    3.3755773773   -2.2219110203    0.2399158267
 H    2.4700210293   -2.3750789813    1.7802335347
 H    0.4592051795   -2.6021820632    0.0274480472
 H    0.4322163570   -0.0069680569    2.9287581440