14

 N   -0.1303201265    1.4148635930   -0.2415964868
 C   -0.0132551618   -0.0091319081   -0.0165132051
 C    0.8252784629   -0.4282130937    1.1793267455
 N    1.3988809730    0.4210638619    1.9493300309
 C    2.1463666515   -0.0787315582    3.0203993639
 O    2.7306125544    0.6224480430    3.8128634084
 C    2.1737284745   -1.5587645972    3.1222278951
 N    1.5849899569   -2.3732708938    2.3294353937
 O    0.8615169571   -1.7738061757    1.2871971285
 H   -0.5176489894    1.8596942747    0.5857145437
 H    0.7952848699    1.8198632345   -0.3491656755
 H   -1.0089510709   -0.4523658363    0.1098232742
 H    0.4133581141   -0.4954890931   -0.9026721963
 H    2.7346465943   -2.0199511910    3.9303927498