19

 C    0.2781046039    1.5059206365   -0.2367679814
 C   -0.1439203040    0.0684387083    0.0927611748
 C    0.5925456278   -0.5100966591    1.2818837600
 C    2.0279480053   -1.0017903268    1.1603488206
 C    0.9354493296   -1.9687762820    1.4979253471
 C    0.7300313762   -2.2331485491    2.9776081740
 O    0.5150680386   -0.9504503326    3.5898946394
 C    0.2776632840    0.0173182563    2.6529147916
 O   -0.1320375601    1.1022193409    2.9566776544
 H    1.3436365780    1.5541084382   -0.4850762456
 H   -0.2852928740    1.8872721516   -1.0936447402
 H    0.0976244564    2.1603223709    0.6184842792
 H   -1.2219775703    0.0376266279    0.2906055976
 H    0.0318005293   -0.5818387322   -0.7729959601
 H    2.4265749723   -1.0317104313    0.1519281888
 H    2.7497117472   -0.7304031200    1.9246936452
 H    0.6422211002   -2.7301714624    0.7853966522
 H   -0.1526118911   -2.8566871473    3.1598651742
 H    1.5938473105   -2.6963816578    3.4647206483