15

 O   -0.3175079745    0.5785892135   -0.8369973293
 C    0.1662122026    1.0494903472    0.1735639178
 C    1.2456611197    2.0301833796    0.1802559207
 C    1.7418526462    2.7791195712    1.3376824744
 C    2.5808675823    3.7535780317    0.9424558468
 C    2.8025568884    3.5961270279   -0.5296610123
 O    3.6211948440    2.3270723917   -0.6675477413
 C    2.4643420550    1.6504571364   -0.9549538296
 C    1.5800229168    2.8029537671   -1.0834858452
 H   -0.1819995105    0.7286902208    1.1809141101
 H    1.5105081477    2.5090586486    2.3613830591
 H    3.1634805177    4.4089805888    1.5746149800
 H    3.2617364946    4.3938754887   -1.1082896881
 H    2.4821117189    0.6350844635   -1.3257187555
 H    0.8429319010    3.0795664232   -1.8269901176