14

 C    0.0152757823    1.6087041726    0.2118921515
 C   -0.0642514166    0.0890932801   -0.0275177651
 C    0.7255464420   -0.6449924053    0.9724396932
 N    1.3607885769   -1.1960927269    1.7640755645
 C   -1.4770102518   -0.4376471641   -0.0479782337
 N   -2.5091679516    0.2974261410    0.2663467953
 O   -3.5896194527   -0.5728851798    0.0971328014
 C   -3.0698153966   -1.7348510883   -0.3023046652
 N   -1.7814577947   -1.7307133164   -0.4178320649
 H    1.0574283218    1.9327723522    0.1887108714
 H   -0.5414397950    2.1345281443   -0.5662074123
 H   -0.4148081356    1.8716656428    1.1797574567
 H    0.3721140293   -0.1496648967   -1.0059765028
 H   -3.7588298878   -2.5456112457   -0.4880225301