25

 C   -0.2849649110    1.4394161429    0.0536823043
 C    0.0659270787   -0.0548744344   -0.0065917259
 C    0.7829522023   -0.3984414737   -1.3205809452
 C    0.8368288740   -0.5381276735    1.2398401180
 C    2.2096241726    0.1251027716    1.4069094808
 C    0.0184010532   -0.5110782614    2.5737832616
 C    0.5045614655   -1.9389549560    2.8831266015
 O   -0.5116804784   -2.7790919405    3.3863547799
 C    0.9284172807   -2.0931761869    1.3969808708
 H    0.6084824296    2.0684321680   -0.0224857374
 H   -0.9467099835    1.7138864238   -0.7745112654
 H   -0.7968644532    1.6954548870    0.9870463290
 H   -0.8831420231   -0.6098784492   -0.0014805786
 H    1.7053209558    0.1795758062   -1.4417594659
 H    1.0437023281   -1.4607030717   -1.3713082587
 H    0.1424142303   -0.1717186562   -2.1792988108
 H    2.1230292595    1.2114424566    1.5114451411
 H    2.7180205436   -0.2467266315    2.3026101218
 H    2.8643222323   -0.0814074999    0.5540351515
 H    0.2476132548    0.2722984618    3.3006479185
 H   -1.0597823791   -0.5235246392    2.3884515901
 H    1.3756321616   -1.9377150324    3.5529616785
 H   -0.1360144646   -3.6538912724    3.5289852256
 H    0.1394843681   -2.6038811399    0.8361310373
 H    1.8898015623   -2.5698390391    1.1839632175