22

 C   -0.2643962954    1.4558507803    0.1053177196
 C    0.0550521098   -0.0351501791   -0.0359602273
 O    0.8356608833   -0.2924737326   -1.2033061852
 C    0.8452536909   -0.5512344178    1.1348451288
 C    2.3434791439   -0.2734036951    1.3892929860
 C    2.4872253975   -1.7204761206    1.9555208431
 C    0.9881887754   -1.9513854096    1.6889260069
 N    0.1343301764   -0.9672000815    2.3246196905
 C    0.4013114970   -0.4244400138    3.6475919232
 H    0.6566180660    2.0432778594    0.1757577429
 H   -0.8345927515    1.8162313410   -0.7592541369
 H   -0.8676641285    1.6365996428    1.0001587089
 H   -0.8881511073   -0.6016753425   -0.0690660054
 H    0.4044581342    0.1401877495   -1.9466446062
 H    2.8831994373   -0.1405721947    0.4513128346
 H    2.5835889642    0.5574161888    2.0597585625
 H    3.1167301380   -2.3494462457    1.3229696764
 H    2.8207397758   -1.8262025227    2.9924357469
 H    0.5360492370   -2.8797034303    1.3542984664
 H    1.4589041205   -0.2251268327    3.8678564022
 H   -0.1503314189    0.5140505833    3.7632685509
 H    0.0260682142   -1.1292096265    4.3962541311