18

 O   -0.2067028512    1.4126620042    0.1961175576
 N    0.0177441206    0.0226720101    0.1782002050
 C   -1.0703703868   -0.6171821499    0.0306202725
 C   -2.4858820454   -0.0544435704   -0.1366110914
 C   -3.2827427255   -1.2666615316   -0.5988968463
 C   -2.5653291869   -2.3763283488   -0.4419322972
 C   -2.2145486518   -3.6718159049   -1.1377780464
 C   -0.7439327547   -3.1024945805   -1.1582658451
 C   -1.1521487988   -2.1257597774    0.0099727725
 H    0.6866310926    1.7601998468    0.2881270588
 H   -2.8395327674    0.3999364709    0.7998896168
 H   -2.4958079119    0.7551372939   -0.8764705886
 H   -4.2334106486   -1.1752406856   -1.1116381418
 H   -2.2834597402   -4.5526356555   -0.4908760448
 H   -2.7027901457   -3.8886908036   -2.0901311163
 H    0.0638886128   -3.8062497485   -0.9474623078
 H   -0.5350612647   -2.5618761110   -2.0831063954
 H   -0.8807840064   -2.5666208282    0.9762749577