22

 C   -0.0244312512    1.5372094874   -0.0129548029
 C    0.0363648653    0.0015772234   -0.0493982892
 C    0.6691095864   -0.4989576800   -1.3560371842
 C    0.7364535732   -0.5408851656    1.1792297714
 C    2.2503875877   -0.2967843741    1.4771396998
 C    2.1828520475   -1.5786047421    2.3024239481
 C    0.9791921534   -2.0578066852    1.5872662965
 N    0.8582853305   -1.6574409450    3.0168647234
 C    0.1368770530   -0.4138626987    2.5956490878
 H    0.9810477892    1.9713103719   -0.0523997089
 H   -0.5866717979    1.9250754992   -0.8683094432
 H   -0.5100822870    1.8998674617    0.8987019941
 H   -0.9969979444   -0.3751762681   -0.0179419357
 H    1.6866250010   -0.1128746416   -1.4809408055
 H    0.7197444277   -1.5922812939   -1.3840856982
 H    0.0838467085   -0.1682024801   -2.2200637477
 H    2.8753613899   -0.4455232764    0.5928923847
 H    2.5250632101    0.6415562612    1.9717959160
 H    2.9913783013   -2.1482236619    2.7412911614
 H    0.6756946837   -3.0192512475    1.1936902942
 H    0.3651971709    0.4838419368    3.1835414257
 H   -0.9385460685   -0.6133265714    2.6267032423