17

 C    0.3036879577    1.5615035394    0.0036981848
 C    0.1137820262    0.0647025044    0.0848990037
 O    0.9523844438   -0.6748607014   -0.8484446393
 C    1.3680309338   -1.6031062078    0.1758687024
 C    2.8542021088   -1.5517426400    0.4631161048
 C    3.0022466198   -0.4461563054    1.5084355545
 O    4.0030347118    0.0421645171    1.9367461027
 O    1.7618990445   -0.0635525383    1.9540657134
 C    0.7092301782   -0.7306561339    1.2679432429
 H    1.3333435157    1.8427928702    0.2333424110
 H    0.0612275267    1.9072487998   -1.0055992681
 H   -0.3619318886    2.0682609790    0.7098105585
 H   -0.9411054788   -0.2036868239   -0.0697940206
 H    0.9620563360   -2.6055670311    0.0128806849
 H    3.2384117584   -2.4855069725    0.8863022256
 H    3.4439602702   -1.3119789553   -0.4236117152
 H    0.0264408459   -1.1614809901    2.0003831840