16

 C    0.1367018685    1.2987744094   -0.5798918153
 C    0.0117498293    0.0206976796    0.2182143827
 O    0.8800968694   -0.3877797212    0.9597529076
 C   -1.2565366710   -0.7377686447    0.0356637189
 C   -1.7239942888   -1.7682655776    1.0856464148
 C   -1.4228803106   -2.2348237420   -0.2853096251
 N   -2.4804423976   -1.8937367691   -1.2390760812
 C   -2.4146294661   -0.5215005380   -0.9316402975
 O   -3.0493653952    0.4182045815   -1.3187839624
 H    1.0298421740    1.8428457085   -0.2718022916
 H    0.2052460193    1.0571084033   -1.6477198886
 H   -0.7599414366    1.9151718458   -0.4623964246
 H   -0.9656280843   -1.9511693463    1.8409178989
 H   -2.7509257211   -1.7269141296    1.4351014152
 H   -0.6260332544   -2.9141871021   -0.5564684914
 H   -3.3501474948   -2.4069314675   -1.3286673404