16

 C    0.0498212597    1.5159157003    0.1648162982
 O    1.4689365701    1.5603088962   -0.2200618552
 C    1.3919089154    0.2181712681   -0.6704644623
 C    0.9130054094   -0.3884334549   -2.0094304984
 C   -0.3170433014   -0.8154877361   -1.2751564200
 N    0.9167382511   -1.7011473101   -1.3106129353
 C    1.6975801190   -1.1898277360   -0.0846598831
 C    0.6520234540   -0.9717925848    1.0224551387
 C    0.0032830134   -0.0125520650   -0.0223630891
 H   -0.0956459909    1.8901471120    1.1823077623
 H   -0.5650986580    2.0921159682   -0.5350318868
 H    1.1523492620   -0.2705317557   -3.0592865143
 H   -1.2413887381   -1.2586379470   -1.6294776964
 H    2.6530117175   -1.7018418066    0.0322305305
 H    0.0805294107   -1.8348856849    1.3709307242
 H    1.0679836162   -0.4243714637    1.8720499870