16

 C    0.2024494206    1.4553317224   -0.0215771075
 C    0.0116631417   -0.0323055515    0.0297652946
 N   -0.0659052148   -0.6394527095   -1.1052628083
 O   -0.2407046886   -2.0026088129   -1.1240869062
 N   -0.3389934751   -2.7666480796    0.0256708828
 C   -0.2640088048   -2.1794737476    1.1704697427
 C   -0.3750215392   -3.0423152173    2.3894866381
 C   -0.0786462132   -0.7338511339    1.3136772583
 N   -0.0124864192   -0.2155843648    2.4866585674
 H    1.1305221658    1.7456270215    0.4839161682
 H    0.2451482930    1.7860364427   -1.0596391606
 H   -0.6226195264    1.9704483092    0.4834278584
 H   -0.5081707697   -4.0853035407    2.1007226431
 H    0.5217993278   -2.9342244987    3.0069388153
 H   -1.2166224251   -2.7120932379    3.0058503059
 H    0.1173186172    0.7963571386    2.4358753276