20

 C    0.0574179804    1.5503277742    0.0670629537
 C    0.0614040775    0.0254375634   -0.0867056928
 C   -1.3248051605   -0.5917953801    0.0509041714
 C   -1.5418556103   -2.0939307243   -0.0221776786
 C   -1.4003146548   -2.8191033484    1.2960175875
 C   -0.6857137170   -2.1690970872    2.4280067640
 C   -1.1491339126   -0.9242111888    2.5553431099
 C   -2.1089038801   -0.6696846374    1.4241805920
 N   -2.6360154731   -2.0539746307    1.0126247327
 H    1.0617665921    1.9659686876   -0.0587069972
 H   -0.5945706952    2.0236294658   -0.6757810069
 H   -0.3024722703    1.8493340306    1.0578805983
 H    0.4589032711   -0.2431453805   -1.0745697168
 H    0.7401648384   -0.4216979600    0.6470913139
 H   -2.0072099609   -0.1318428943   -0.6726071987
 H   -1.6502603400   -2.6584613341   -0.9447878339
 H   -1.5102896330   -3.8990520294    1.2606835022
 H    0.0835975360   -2.6534093122    3.0149712818
 H   -0.8032638104   -0.1645527242    3.2446620940
 H   -2.8899947572    0.0702645700    1.5922788334