17

 C    0.0532754896    1.4840426349    0.0144220781
 C    1.2822465176    0.6542342486    0.0334917391
 C    1.9407059786    0.3376792024    1.3827799649
 N    0.8577946983   -0.3467014654    2.0641470405
 C    0.6371501466   -0.9208376659    3.2932349621
 C   -0.6168726123   -1.4917035776    3.2474068184
 C   -1.1742946236   -1.2664445724    1.9488521938
 C   -0.2281552116   -0.5577241626    1.2529020864
 N   -0.0539010189    0.0019202200   -0.0394798216
 H   -0.2577008301    1.9692743886    0.9358934618
 H   -0.2341632752    1.9918207291   -0.9011096888
 H    1.9002090483    0.5826987468   -0.8550368123
 H    2.8119328035   -0.3149448781    1.2492726287
 H    2.2650945554    1.2335986024    1.9239189830
 H    1.3782473352   -0.8917064346    4.0751861345
 H   -1.0902253816   -2.0241720722    4.0586671494
 H   -2.1408539998   -1.5782999841    1.5879950719