12

 O    0.3532740961    0.3984738000   -2.0926117402
 C    0.0606546182    1.2707749415   -1.3070794628
 C    1.0769926216    1.9233557875   -0.4885795204
 C    1.9693653998    2.4141614673    0.1640222683
 C    2.9668854135    2.9749827017    0.9076948738
 N    3.8131033620    3.4515044092    1.5446480310
 C   -1.3486115874    1.7407883541   -1.1171716044
 C   -1.8839972273    1.9717528361    0.2425347791
 O   -1.5225886193    3.0560335615   -0.5967825887
 H   -2.0226011958    1.4365859829   -1.9149161233
 H   -2.9507187145    1.8266445041    0.4015637308
 H   -1.2439464170    1.8150474841    1.1085137168