17

 C   -0.4512362037    1.3623608282   -0.0451893558
 C    0.1612695783   -0.0349054180   -0.0316253751
 C    1.1582901620   -0.3701650670   -1.1455808858
 C    2.0442272032   -1.4485005323   -0.4775689279
 O    2.0453464712   -1.1025300543    0.9274161615
 C    0.9788545270   -0.3049111557    1.2318120405
 O    0.7797027135    0.0910815161    2.3420721985
 C    1.5430792819   -2.8073208243   -0.6683683878
 C    1.1235643958   -3.9190627178   -0.8445531513
 H    0.3265551273    2.1313316559   -0.0942191580
 H   -1.1139492189    1.4918824190   -0.9053837383
 H   -1.0264065733    1.5265727214    0.8692771855
 H   -0.6411865005   -0.7855291463   -0.0301477308
 H    0.6984792331   -0.7303312117   -2.0661964798
 H    1.7720899301    0.5055616262   -1.3806557958
 H    3.0842620339   -1.3895591796   -0.8095939604
 H    0.7610092992   -4.9068430599   -0.9917256092