20

 C    0.0808667549    1.5109652790   -0.2207619650
 C   -0.0246712654    0.0154630618    0.1107286056
 C   -1.4312377179   -0.4903849569    0.1089888891
 C   -2.3678251293   -0.8673304276   -1.0131948802
 C   -1.9703131738   -1.9249072248   -0.0134031918
 C   -3.2183186380   -1.5116322752    0.8170561950
 C   -4.2124909585   -2.2885469987    1.6086912039
 C   -2.6970537527   -0.1222367992    0.9360071285
 N   -3.6097098143   -0.4807853289   -0.2141393685
 H    1.1227336045    1.8448694722   -0.2026621081
 H   -0.3283410975    1.7223213848   -1.2135622663
 H   -0.4761166136    2.1155610483    0.5026386284
 H    0.5565667291   -0.5672341430   -0.6160749849
 H    0.4350632868   -0.1782064883    1.0895757221
 H   -2.2843279866   -0.8126818763   -2.0921184662
 H   -1.4217814325   -2.8497066680   -0.1305263951
 H   -3.7475930733   -2.7492008098    2.4876412729
 H   -5.0153319640   -1.6275979667    1.9502539965
 H   -4.6627013501   -3.0837095617    1.0038546743
 H   -2.9324245378    0.6805391291    1.6267632198