21

 O    0.2241556087    1.0566656171   -0.6714794625
 C   -0.0617601277   -0.3024765711   -0.4203562739
 C   -1.4961417132   -0.4937296234    0.0948900670
 O   -1.4929048982    0.3042486178    1.2882302096
 C   -2.5716692690   -0.0120733817   -0.9241544482
 C   -3.2146546952   -1.2551374337   -1.5152719799
 C   -2.3260719926   -2.2981044818   -2.1461764847
 C   -2.7662002687   -2.4599702407   -0.7119912571
 C   -1.8300960990   -1.9865218517    0.3874266045
 H   -0.0660252704    1.5249186118    0.1213634331
 H    0.0920169405   -0.8416338314   -1.3587096778
 H    0.6263783045   -0.7269900683    0.3283443585
 H   -2.4018520148    0.4096108706    1.5855225736
 H   -3.3344708328    0.5691730871   -0.3897092131
 H   -2.1276654153    0.6615635672   -1.6628764494
 H   -4.2330385800   -1.1739331046   -1.8788984584
 H   -2.7863788301   -2.9553165510   -2.8762398712
 H   -1.2912186490   -2.0608054153   -2.3688885604
 H   -3.4529449036   -3.2669565790   -0.4816640363
 H   -0.9197256318   -2.5917907500    0.4740972863
 H   -2.3331092123   -2.0414312578    1.3595589903