23

 C   -0.1435891950    1.5732124996   -0.0358791570
 C   -0.1630514959    0.0737485727    0.2494421545
 C    0.7670442172   -0.3472223463    1.3808399235
 O    1.3452425972    0.4643053711    2.0676655913
 C    0.9408471252   -1.8511131581    1.5787993987
 C    1.5653872124   -2.2448029937    2.9224046378
 C    0.5995399022   -2.0121114712    4.0912657660
 C    2.0438070926   -3.6960616685    2.8749770424
 O    2.7159859029   -3.9864743828    4.0909066146
 H    0.8535348356    1.9001936745   -0.3428791264
 H   -0.8497944495    1.8258646147   -0.8316959538
 H   -0.4084873425    2.1409147554    0.8591670922
 H   -1.1740000866   -0.2610517409    0.5238420673
 H    0.0933844714   -0.5110352687   -0.6444210621
 H   -0.0278663831   -2.3469759958    1.4284629718
 H    1.5726160228   -2.1933412821    0.7441110383
 H    2.4474069746   -1.6128252542    3.0760931797
 H    0.3331574924   -0.9554287527    4.1719476850
 H   -0.3235811827   -2.5909654352    3.9572309117
 H    1.0587023336   -2.3269716040    5.0305110499
 H    1.1800674264   -4.3675302672    2.7288193149
 H    2.7153244124   -3.8349015451    2.0113726950
 H    2.9497010665   -4.9188278117    4.0922325647