19

 C    0.0713273404    1.5295571024   -0.0424529820
 C    0.2079139359    0.0206717482    0.0488248074
 O    0.4842826546   -0.4813147345   -1.2597006389
 C    0.6178986265   -1.8458152753   -1.3077459734
 C    1.8397514404   -2.6052167724   -0.8660622479
 C    1.3909522680   -2.6619043991   -2.3172005361
 C    0.1402818148   -3.5831127985   -2.4838313343
 O   -0.2201636876   -4.1513404531   -1.2122396239
 C   -0.6160336042   -2.8065213251   -1.5107806182
 H    0.9945272274    1.9760111254   -0.4227007505
 H   -0.7443045799    1.8029826124   -0.7178229757
 H   -0.1384324278    1.9520931885    0.9446597509
 H    1.0222640903   -0.2634802567    0.7309319985
 H   -0.7167170879   -0.4328666445    0.4367838390
 H    2.7072728626   -1.9705320861   -0.7130150014
 H    1.7747603328   -3.4795578424   -0.2308101744
 H    2.0067058530   -2.3204593355   -3.1378182673
 H   -0.1663161918   -4.1166964667   -3.3748842874
 H   -1.6660893875   -2.5464459269   -1.4454855542