18

 C   -0.2221315521    1.6382866182    0.0418682737
 C   -0.2148470068    0.1507138821   -0.2168992174
 C   -0.1849163449   -0.8166447217    0.9358713315
 C   -1.4373763903   -0.6712119620    0.1066313525
 N    1.1247526607    2.1462502638    0.2971539454
 C    1.8927075053    2.5439025662   -0.8784989091
 C    1.3321445540    3.5672310475    0.0462365934
 H   -0.6996825616    2.1625934736   -0.8083831983
 H   -0.8317181730    1.8525630586    0.9290158057
 H    0.3393718961   -0.1438655690   -1.1044506022
 H    0.3990915121   -1.7243231887    0.8327640722
 H   -0.1857314764   -0.4016529142    1.9381698685
 H   -2.2862462482   -0.1631804341    0.5533387133
 H   -1.7102130669   -1.4765859720   -0.5662837117
 H    2.9509588488    2.2995613260   -0.8611749131
 H    1.4189968962    2.4495168427   -1.8552209260
 H    0.4872597871    4.1515920365   -0.3165340191
 H    1.9724560800    4.0854071866    0.7545244706