15

 O    0.0559752870    1.4127047478    0.0042704217
 C   -0.0284344846    0.0267211682    0.0157556456
 C   -1.3878907125   -0.6716560182   -0.0769970468
 C   -1.6659712483   -0.7375437541   -1.5799165695
 O   -0.6058842017   -0.0478010695   -2.2587538564
 C    0.3110413173   -0.7208720590   -1.3234632468
 C    1.6394055980   -0.9343283536   -1.8022368955
 C    2.7681298503   -1.1263029843   -2.1683236074
 C   -0.8023187914   -1.7752115258   -0.9599065264
 H   -0.3081998430    1.6887133898   -0.8486117226
 H    0.5706225052   -0.3567139604    0.8439071817
 H   -2.1609498529   -0.7504575812    0.6754010560
 H   -2.6428552555   -0.7752502463   -2.0408370674
 H    3.7645474305   -1.2904462927   -2.4979008184
 H   -0.8165623085   -2.8534064508   -0.9108052977