21

 C   -0.2506025995    1.3393250086    0.1340683377
 O    0.3577421746    0.0851345349   -0.0940959597
 C    0.8419027650   -0.5207288492    1.0723115940
 C   -0.1753180599   -1.3214997586    1.9454429596
 C   -0.1470064816   -2.4065105655    0.8474718812
 C    1.3599827506   -1.9704700137    0.7840142560
 C    2.2744406378   -2.2841311979   -0.3731584795
 C    1.7930767206   -2.3486319890    2.2057917322
 O    0.6748294196   -1.8439258483    2.9764285353
 H    0.4483673023    2.0448526764    0.6083711834
 H   -0.5475515124    1.7357960899   -0.8396528133
 H   -1.1423216803    1.2569467860    0.7719289856
 H    1.5086879836    0.1555591540    1.6287182139
 H   -1.0811377661   -0.9073022681    2.3851474512
 H   -0.3758436447   -3.4308808446    1.1515898025
 H   -0.6926973534   -2.1217026129   -0.0509413550
 H    1.8773277994   -1.8609140395   -1.2998661218
 H    3.2749374683   -1.8651212302   -0.2141008505
 H    2.3835455124   -3.3658671991   -0.5090264459
 H    1.8975259569   -3.4310555568    2.3521362496
 H    2.7205596468   -1.8565378363    2.5236890933