17

 C   -0.0220275914    1.4651772464    0.0452077730
 C   -0.0015946705   -0.0197752684   -0.0267230681
 C    0.0081959275   -0.8895013606   -1.0410306815
 C    0.0142949733   -2.2354265808   -0.2993723902
 O   -0.9724282634   -2.0015765066    0.7630145362
 C    0.0003692838   -0.9911280436    1.1800441702
 C    1.1365821709   -1.9958168095    0.7751048597
 C    1.3442927669   -3.1340073778    1.7410173045
 O    2.4346428656   -3.5284712289    2.0749758058
 H    0.8483477023    1.8501574820    0.5914772291
 H   -0.0207074655    1.9129618978   -0.9520134111
 H   -0.9105859442    1.8239767454    0.5795734929
 H    0.0042928856   -0.7322928747   -2.1093582972
 H   -0.1110472390   -3.1723736327   -0.8400765146
 H   -0.1383385105   -0.6115311568    2.1924889854
 H    2.0923438731   -1.5908763448    0.4394234984
 H    0.4116151256   -3.5926633164    2.1293646176