19

 C   -0.0376314275    1.5636221442   -0.0007497256
 C   -0.0309516929    0.0217713380   -0.0520719111
 C   -1.4732162610   -0.5124898603   -0.0257608342
 O   -2.1420184468   -0.0283290948   -1.1808271475
 C    0.7741193277   -0.5282673158   -1.2070129781
 C    1.8379436193   -1.2328092903   -0.8190708857
 C    1.9646827025   -1.3138705221    0.6782853787
 C    0.7314905462   -0.5430378227    1.1693531054
 O    0.3939983946   -0.3995019553    2.3164416316
 H    0.9785092875    1.9636051038   -0.0634928054
 H   -0.6222880112    1.9619653867   -0.8326856457
 H   -0.4851489775    1.9022991803    0.9387609753
 H   -1.4571919543   -1.6134026269   -0.0120412433
 H   -1.9562483607   -0.1702495637    0.9008517101
 H   -3.0523203814   -0.3364018728   -1.1529329997
 H    0.4831592960   -0.3446391301   -2.2342972345
 H    2.5477580526   -1.7049068066   -1.4887323824
 H    1.9509788397   -2.3370086744    1.0754268816
 H    2.8791144572   -0.8505444172    1.0723192606