15

 C    0.0988826296    1.5128919625   -0.2129933782
 C    0.0346248567    0.0373701791    0.1033661730
 N    1.3067666176   -0.7062641375    0.1495066878
 C    0.4880336963   -0.5898023424    1.3758356824
 C    1.1703409769    0.1384488086    2.5115179423
 O    2.2853462371   -0.6001951037    2.9825158314
 H    0.9849605414    1.9787266027    0.2220681475
 H    0.1433098310    1.6645437303   -1.2967886722
 H   -0.7896320300    2.0317044887    0.1629217917
 H   -0.8004999171   -0.4741242796   -0.3753623718
 H    1.1998709998   -1.6275553576   -0.2648607969
 H   -0.0476069023   -1.4850717239    1.6886140470
 H    1.4693917330    1.1480176633    2.1972365532
 H    0.4861235896    0.2448498140    3.3601302539
 H    2.8269220402   -0.7711600645    2.2022805090