18

 O   -0.0248656783    1.3964380314   -0.0487092265
 C   -0.0211526053   -0.0013161872   -0.0077312924
 C   -0.4180965059   -0.7664307109   -1.2498590587
 C   -1.3548390220   -0.6660835237   -0.0589940901
 C   -1.5454299409   -1.8424557727    0.8705062838
 O   -0.3811628253   -2.6719187703    0.9787595411
 C    0.8602526755   -2.1107385176    1.0831102504
 N    1.8907210337   -2.8281981516    1.2475147797
 C    0.9637000469   -0.6072393111    0.9759307591
 H    0.7859373493    1.6834266044   -0.4844004281
 H   -0.6800208465   -0.1706924041   -2.1165425566
 H    0.0597683521   -1.7151662895   -1.4692446372
 H   -2.2226288601   -0.0231870688   -0.1643208439
 H   -1.8345506848   -1.4890839046    1.8706353754
 H   -2.3311235302   -2.5146173115    0.5136615739
 H    1.6216858483   -3.8121528096    1.3190632674
 H    2.0006130586   -0.3723465185    0.7214587373
 H    0.7656365648   -0.1624084242    1.9607077252