19

 C   -0.6869677478    1.3170621218    0.2480575986
 C   -0.0856410972   -0.0656982396    0.0078458720
 C    0.6519738874   -0.4180509682   -1.3373360233
 C    0.9742229078    0.7278899950   -2.3199773471
 C    2.3455570718    1.1947758599   -1.8904177786
 C    2.8917959371    0.4149908460   -0.9560134562
 C    1.9777395980   -0.7105188558   -0.5433073944
 C    1.2152015179   -0.3973295874    0.7642319665
 O    1.5161729361   -0.3972540398    1.9223989712
 H    0.0275927693    2.1137701511    0.0225943016
 H   -1.5828154347    1.4760076885   -0.3606296015
 H   -0.9709508027    1.4156522404    1.3000032957
 H   -0.8357433073   -0.8300818704    0.2477333367
 H    0.2074305580   -1.2796425591   -1.8355315344
 H    0.9857389708    0.3781674592   -3.3608394076
 H    0.2300418221    1.5324668100   -2.2825333414
 H    2.8244105150    2.0666734357   -2.3234374477
 H    3.8654134137    0.5593568310   -0.5022422908
 H    2.4384192050   -1.7023444084   -0.5894748092