14

 C    0.0193483489    1.4674702758    0.0088411724
 C   -0.0672033229   -0.0240083255    0.0081068389
 N   -1.1975650734   -0.6382332444   -0.1172572545
 C   -1.1504497904   -2.0100361937   -0.1034598227
 O   -2.3353344351   -2.6138970541   -0.2351107176
 C   -0.0062202652   -2.7372444868    0.0317125927
 C    1.2434335896   -2.0619696506    0.1703251905
 O    2.3531227611   -2.4877647563    0.2997021708
 O    1.1133209144   -0.6176978240    0.1466040058
 H    0.6693100531    1.8031409471   -0.8051627269
 H   -0.9744558690    1.8974584224   -0.1070974963
 H    0.4698907209    1.8138421950    0.9441292958
 H   -2.9963773364   -1.9117729554   -0.3149307764
 H   -0.0106776656   -3.8174210997    0.0378310775