17

 O    0.0464438176    1.4883327471   -0.0189316477
 C    0.0221498452    0.0852590800    0.0444643057
 C    0.1362244577   -0.6502497252    1.4158817468
 C   -0.9326657539    0.0928188112    2.2476572390
 C   -2.1261282981   -0.3109335363    1.3439516264
 C   -1.3505773219   -0.5719049118   -0.0215282912
 C   -0.7406413844   -1.8079598064    0.7817774244
 C   -2.0699323578   -1.8369412894    1.5166447684
 O   -2.8290148321   -2.6915728688    1.8702504157
 H    0.9597076374    1.7797890521   -0.1033974253
 H    0.6939055344   -0.3643241773   -0.6986302865
 H    1.1007229081   -0.8613915673    1.8766380406
 H   -1.0385211735   -0.2808251322    3.2699073491
 H   -0.7494869379    1.1680767853    2.2677675048
 H   -3.0552140693    0.2501345802    1.3966308515
 H   -1.9414752373   -0.6833278263   -0.9275801926
 H   -0.2593912242   -2.6682223350    0.3243819508