19

 C    0.0721975381    1.4065577430    0.1372762796
 O    0.0156793436   -0.0039369659   -0.0050021188
 C    0.6103642251   -0.5487150875   -1.1503979637
 C    2.0868281701   -0.2076089186   -1.2993034383
 C    0.2604635399   -2.0614594730   -1.1595512306
 N   -0.7790378578   -2.2212291268   -2.1732523184
 C   -0.8739241361   -1.0892936305   -2.7484458252
 N   -1.6592102954   -0.7782933535   -3.8276479506
 O   -0.0808836395   -0.0590398078   -2.3320824337
 H    1.0844486468    1.7600250664    0.3722298973
 H   -0.2855563421    1.9155435673   -0.7648451867
 H   -0.5854060724    1.6566320394    0.9726325855
 H    2.6312912163   -0.5299414579   -0.4070724499
 H    2.4994289620   -0.7226707241   -2.1696384936
 H    2.2415152348    0.8649342496   -1.4382740077
 H    1.1370241732   -2.6761663911   -1.3986450223
 H   -0.0986240227   -2.3549754353   -0.1689520836
 H   -2.3968520606   -1.4462194536   -3.9918617229
 H   -1.9496821335    0.1861613498   -3.8796422563