13

 O   -0.0477865514   -0.0964017599    0.0014189608
 C   -0.0358942676    1.1152733342    0.0053243251
 C    1.2518367565    1.9239583965   -0.0021952447
 C    2.4892092096    1.0131548594   -0.0158662713
 C    3.7304453163    1.7819924911   -0.0227396873
 N    4.7041493748    2.4039847741   -0.0283005216
 C   -1.2559025226    1.8998738496    0.0178009024
 C   -2.2532125341    2.5734118386    0.0282692866
 H    1.2407591464    2.5908685360   -0.8724848981
 H    1.2550916477    2.5840009337    0.8733992349
 H    2.4778033155    0.3518521742    0.8558487733
 H    2.4637355642    0.3589317105   -0.8926168783
 H   -3.1450314455    3.1527042921    0.0388885984