23

 C    0.0540238488    1.4828738895    0.1968554700
 C   -0.2720337315    0.0457086400   -0.2238629942
 C    0.6406280943   -0.4992771757   -1.3267397138
 C    0.5266754210    0.2573399238   -2.6439537797
 O    2.0321245158   -0.5160117737   -0.8697504243
 C    2.1071560984   -1.9543925421   -0.9332819055
 C    0.6751210890   -2.0360278869   -1.4412831055
 C   -0.3777811630   -3.0426900133   -1.0972848614
 C    0.1273595285   -2.9184347395   -2.5186167085
 H    1.1114737852    1.5666249850    0.4631295835
 H   -0.1542092343    2.2024586351   -0.6006502350
 H   -0.5416385356    1.7752365271    1.0668081036
 H   -0.1792157683   -0.6158312440    0.6446742473
 H   -1.3151456016   -0.0248431714   -0.5599675368
 H    0.8260302889    1.3013187369   -2.5165718310
 H    1.1759844147   -0.1925942721   -3.3992173298
 H   -0.5032839930    0.2408131013   -3.0176559015
 H    2.8860012320   -2.2949076025   -1.6288850253
 H    2.2922970038   -2.4020927051    0.0527613428
 H   -0.0809052749   -3.9125043799   -0.5191026931
 H   -1.3809416426   -2.6891377238   -0.8815097632
 H   -0.5360672281   -2.4796701539   -3.2571992723
 H    0.7674810223   -3.7037689849   -2.9090652963