19

 O    0.0466197649    0.6902130981    1.5928056931
 C    0.0288477267    1.3309150277    0.5699454349
 C   -1.2718650440    1.5640742004   -0.2008269385
 O   -1.2445880798    2.8247278341   -0.8389848841
 C   -1.3853565134    2.8305271318   -2.2504968841
 C   -0.2260847658    2.1653668257   -3.0027461340
 C    1.1593749573    2.4532245365   -2.4087395566
 O    1.5001868831    1.5514027149   -1.3642249839
 C    1.3004033850    1.9499886245   -0.0226743825
 H   -1.4101464094    0.7378588528   -0.9116346745
 H   -2.0992280839    1.5241303664    0.5170256159
 H   -2.3428483766    2.3741061051   -2.5460521956
 H   -1.4340627970    3.8926281836   -2.5128499746
 H   -0.3440492364    1.0764289906   -3.0383868035
 H   -0.2601473554    2.5126502421   -4.0429276432
 H    1.9195759217    2.3030877474   -3.1833688756
 H    1.2348275701    3.4939127298   -2.0631480746
 H    1.2487934053    3.0430647567    0.0737289170
 H    2.1431377777    1.5811832119    0.5698797544