14

 O   -0.9545544467    0.9425773922   -0.1366458521
 C    0.1397829576    0.8842752242    0.3591076615
 C    1.2721105116    1.8050693668    0.0068331884
 C    1.1512171929    2.5882333532   -1.2901195418
 C    1.2610555440    1.7398249590   -2.4719121913
 C    1.3606588333    1.0375310067   -3.4407232873
 C    2.0540595228    2.3297010033    1.1498666878
 O    2.5594542120    1.2790428864    0.3431833989
 H    0.4088241114    0.1413170301    1.1421921416
 H    0.1788113195    3.0945796678   -1.2875445800
 H    1.9258164587    3.3622673655   -1.3129873153
 H    1.4424285949    0.4168202372   -4.2983232274
 H    2.5398361292    3.2976753068    1.0360971943
 H    1.7861463088    2.0559399507    2.1697514328