21

 C    0.2446714695    1.5640225281   -0.1944034985
 C    0.6993962597    0.1088794375   -0.2238029513
 N    0.0517445369   -0.6165209203   -1.3299854135
 C    0.3970761476   -1.9766419549   -1.4601566148
 C   -0.1426409438   -3.1252931651   -0.9169977718
 C    0.5912830367   -4.2267719489   -1.4341039766
 C    1.5605943280   -3.7173452783   -2.2655503659
 N    1.4372074504   -2.3488329815   -2.2907074202
 C    2.2560862369   -1.4398082010   -3.0628872723
 H    0.4693373156    2.0612123885   -1.1426416882
 H   -0.8362788361    1.6358190301   -0.0251421534
 H    0.7420399986    2.1090630656    0.6131711490
 H    1.7826375607    0.0583432950   -0.3820390798
 H    0.5035343882   -0.3709478675    0.7491059029
 H   -0.9548051769   -0.5238197530   -1.2525750684
 H   -0.9751991828   -3.1605255613   -0.2302916046
 H    0.4286049127   -5.2720862210   -1.2203277442
 H    2.3288479711   -4.2067603477   -2.8431975486
 H    2.4694131484   -1.8732269256   -4.0435762478
 H    1.7042687931   -0.5071810074   -3.1924274363
 H    3.2082043755   -1.2208321614   -2.5641648957