15

 O   -0.2343033345    1.4621982160   -0.1179263074
 C   -0.1545243437    0.0719309718   -0.1691087162
 C    0.7168651657   -0.4395749222    0.9853777241
 O    1.2611914169    0.3328771195    1.7303304925
 C   -1.5527837386   -0.5417282643   -0.0117754513
 O   -1.7763031770   -1.7168214633   -0.1368064833
 C    0.4631363304   -0.4474865837   -1.4777877301
 C    0.6268273926    0.4432404246   -2.6298845788
 O    1.7404096140    0.0782451011   -1.8036305837
 H    0.3906309732    1.7402610218    0.5726227293
 H    0.8105904056   -1.5367066904    1.0753039095
 H   -2.3300950850    0.2105499498    0.2363410594
 H    0.3359458994   -1.5184784190   -1.6280771583
 H    0.6333061578    0.0195354652   -3.6323008766
 H    0.3094402131    1.4775878731   -2.5378467790