19

 C    0.1223564828    1.5249022043   -0.1253764321
 C    0.0861947708   -0.0050283073   -0.1203248495
 C   -1.3022118410   -0.5641934953    0.2088991951
 O   -2.2528472617   -0.1147803532   -0.7696208408
 C   -2.9913266269   -1.2175516117   -1.3022235074
 C   -2.3373291939   -2.4424114615   -0.6964692813
 C   -1.4015035380   -2.0649209978    0.1627561262
 C   -4.4205282923   -1.1213923782   -0.9785231658
 C   -5.5937582963   -1.0578804560   -0.7263425090
 H    1.1209370957    1.8945009371   -0.3766715403
 H   -0.5861003638    1.9222088391   -0.8567149919
 H   -0.1474354751    1.9292665656    0.8567772956
 H    0.3930227839   -0.3975221369   -1.0970675012
 H    0.7960462606   -0.3976261053    0.6194924446
 H   -1.6062967788   -0.1828104844    1.1994198223
 H   -2.8868681296   -1.2043386318   -2.3983814543
 H   -2.6494721318   -3.4480036266   -0.9436647622
 H   -0.7762953842   -2.7119005694    0.7652734484
 H   -6.6296136806   -0.9943950407   -0.5007009966