19

 C   -0.0365120992    1.4073124857   -0.0589580654
 N   -0.0645708910   -0.0448526417   -0.0575133817
 C    0.4985098210   -0.6470831885   -1.0146307051
 N    0.5846008319   -2.0117808231   -1.2011989562
 C    1.3605300505   -2.2916655111   -2.3339654846
 C    1.6530552080   -3.6873417155   -2.7573149223
 C    1.6867931143   -1.1065359405   -2.8731381049
 C    2.4398487324   -0.6916416136   -4.0796879132
 O    1.1557053863   -0.0806056719   -2.0897500972
 H    0.9571330947    1.8202504482   -0.2846914059
 H   -0.7358595941    1.8313123339   -0.7944275284
 H   -0.3394269030    1.7698842647    0.9273967592
 H    0.3250571199   -2.6598811411   -0.4794115466
 H    2.2060196354   -4.2351664947   -1.9841609503
 H    0.7308032745   -4.2461188423   -2.9573198288
 H    2.2560593333   -3.6954540437   -3.6671969363
 H    1.8093754036   -0.1131190894   -4.7655549029
 H    3.2972897352   -0.0608134053   -3.8167324635
 H    2.8128664765   -1.5666848204   -4.6166796361