16

 C   -0.0223400909    1.5550729939    0.0895525853
 C    0.0732260799    0.0466609257    0.0448503551
 C    1.3120029810   -0.7354402125   -0.2843160079
 C    2.5386724150   -0.1136026629    0.3774490662
 O    1.8770575424   -0.0483278153    1.6690422255
 C    0.7525601816   -0.7440611902    1.1508775449
 C    0.1072124449   -1.8257497955    1.9044449103
 O    0.3902677131   -2.1593396935    3.0278117210
 H    0.8123485446    1.9848521312    0.6471200049
 H   -0.0247016761    1.9772042913   -0.9205752101
 H   -0.9466548824    1.8636313444    0.5872471937
 H   -0.8183424220   -0.4582671620   -0.3236548155
 H    1.3289011509   -1.5440359883   -1.0031139744
 H    3.3938949537   -0.7952800218    0.4232273828
 H    2.8637482259    0.8711575639    0.0248283715
 H   -0.7027050316   -2.3264011882    1.3234155168