23

 C    0.0759519876    1.6037199818    0.0140717013
 C    0.0110606722    0.0690154742    0.0312194998
 C    0.6634355645   -0.4820047446   -1.2600697377
 C    1.0366674551   -1.9714617843   -1.2949957753
 C   -0.1101270041   -2.9594176060   -1.0741235958
 O   -0.8630214496   -2.7634751793    0.1167732735
 C   -0.1574646977   -2.7652910664    1.3348529383
 O   -0.1454296936   -1.5167228744    1.9576201747
 C    0.6168907415   -0.4824849965    1.3462403175
 H    1.1113912668    1.9575620903    0.0960435585
 H   -0.3338088448    2.0062134859   -0.9183692564
 H   -0.4918000600    2.0355608272    0.8445784011
 H   -1.0402239135   -0.2302989309    0.0487577494
 H   -0.0038656264   -0.2570957428   -2.1024918532
 H    1.5834125400    0.0881461563   -1.4504811665
 H    1.4735246701   -2.2032539590   -2.2749269395
 H    1.8356158472   -2.1699579881   -0.5716435434
 H   -0.8446352012   -2.8708804674   -1.8821486980
 H    0.2867102926   -3.9867024392   -1.1061527500
 H   -0.6952583807   -3.4183941407    2.0300419545
 H    0.8657916694   -3.1508039165    1.1895297208
 H    1.6592340265   -0.8093485928    1.2021587499
 H    0.6352597578    0.3113998834    2.0988130063