23

 C    2.7429983259    0.2753089306    0.9590625007
 C    1.5136908291   -0.5451685684    0.5325768576
 C    0.2165834323    0.0469568885    1.1093271911
 C    1.4492439719   -0.7116151222   -0.9856797840
 C    2.3011238892   -1.7946321486   -1.6550868375
 C    0.8200982198   -1.9567626437   -1.6372041281
 C    0.1335352617   -3.0410437037   -0.8358032050
 C    1.2897390826    0.5058058103   -1.8230196575
 O    1.1803944232    1.6420155580   -1.4278673246
 H    3.6681165622   -0.1665749620    0.5740842046
 H    2.6731417853    1.3004333294    0.5889552130
 H    2.8169392936    0.3095414275    2.0509946321
 H    1.6348062106   -1.5498165891    0.9556193748
 H    0.0562936428    1.0618114125    0.7395620603
 H   -0.6540068892   -0.5585510188    0.8376788155
 H    0.2698598312    0.0845841121    2.2023345598
 H    2.8007056842   -1.5601249153   -2.5895726754
 H    2.8893320366   -2.4043505597   -0.9764112514
 H    0.3261688545   -1.7493051276   -2.5844908065
 H    0.6590629560   -3.2652371744    0.0954660971
 H   -0.8955053760   -2.7644416246   -0.5851022815
 H    0.0953500331   -3.9665952027   -1.4206246874
 H    1.2757472596    0.2880993918   -2.9191422776