17

 C    0.0288037436    1.5382246837   -0.0412321328
 C    0.1024129106    0.0312388858   -0.0086113318
 O   -0.9717723440   -0.6206352897   -0.6177986306
 C    1.3514287802   -0.7566765335   -0.1623504686
 O    2.4711325116   -0.0094507857    0.3692309865
 C    1.9284720795   -0.0994385153    1.6546372553
 O    2.4239952914    0.2691703695    2.6694575003
 C    0.6795526467   -0.8000283669    1.2001048171
 C   -0.1019613416   -1.8296717011    1.9571165871
 H    0.9386759437    1.9964240004    0.3482675998
 H   -0.1170355007    1.8752895692   -1.0722932088
 H   -0.8164008847    1.8946085824    0.5593737834
 H   -1.7888125433   -0.2855671444   -0.2308681779
 H    1.5533407131   -1.5287200425   -0.8922650868
 H   -0.5088762504   -1.4007786555    2.8788726633
 H   -0.9314351154   -2.1967172587    1.3481713006
 H    0.5232328497   -2.6835327579    2.2359452641