17

 N   -0.0780495616    1.2703452468    0.1894332534
 C    0.0132686049    0.0229680913   -0.0100575444
 O    1.2145158689   -0.5874841593   -0.2217459805
 C    1.2137740601   -1.9015145142   -0.7985309065
 C    0.1041357083   -2.7609007824   -0.2454087639
 C   -0.1402520421   -2.7003710824    1.2880886510
 C   -1.4286349070   -1.9662364726    0.9448157934
 C   -1.2158737491   -0.8202827978    0.0199378925
 N   -1.2691757912   -2.1899458728   -0.5432943917
 H    0.8477190773    1.7012090785    0.1413938882
 H    1.1183409110   -1.8188350063   -1.8896836544
 H    2.1959287033   -2.3229230179   -0.5665885229
 H    0.1741945209   -3.7718362784   -0.6513320993
 H   -0.3238975936   -3.6884789457    1.7126371221
 H    0.5908116237   -2.1728440521    1.9058900729
 H   -2.3860032228   -2.1009370877    1.4376914800
 H   -2.1044578410   -0.2433349770   -0.2086674599