19

 C    0.0180341715    1.4443335611   -0.0346993653
 N   -0.0289572460   -0.0038748602    0.0504402530
 C   -1.3936919098   -0.5645872188    0.0067177100
 C   -1.2945809599   -1.8019621251    0.8937048064
 N   -0.1951632436   -2.6849449825    0.3381695178
 C    0.7263479165   -2.0888997871    1.3289978210
 C    0.5751927407   -0.5624756970    1.2491833508
 C   -0.3731772880   -1.3529492958    2.0828798135
 O   -0.6952748294   -1.0892338769    3.3969873652
 H    1.0578145320    1.7855432045   -0.0142487468
 H   -0.4161848362    1.7669071857   -0.9867980360
 H   -0.5312876325    1.9573822394    0.7778578522
 H   -2.1376831970    0.1348004339    0.4301162538
 H   -1.6840758500   -0.8099581637   -1.0199372806
 H   -2.2374063754   -2.3084462017    1.0997802268
 H   -0.3853188794   -3.6415615060    0.6315970145
 H    1.6508546522   -2.5686282492    1.6310979264
 H    1.3588397211    0.0147385216    1.7258284735
 H   -0.9439169069   -1.9168891722    3.8250388438