13

 O   -0.0191710526   -0.0962648521    0.0038035661
 C   -0.0332878078    1.1275370973    0.0095048289
 C   -1.2573144183    1.9323377816    0.0310100217
 C   -1.2225539641    3.2849260577    0.0371701871
 N   -0.0392599715    3.9721624665    0.0237897401
 C    1.1595426452    3.2926401558    0.0035591137
 C    1.1964661954    1.9343877535   -0.0036406913
 C    2.3370691623    4.1046377012   -0.0089941235
 N    3.2751205913    4.7818241724   -0.0188269289
 H   -2.2068767243    1.4123219825    0.0419842403
 H   -2.1124170055    3.9026375734    0.0528547436
 H   -0.0339813102    4.9788438129    0.0286614658
 H    2.1481489202    1.4191545972   -0.0195104336