18

 C    0.7959377309    0.1000189051    1.2680947336
 C    0.0026211622    0.2341832819   -0.0147760295
 O    0.2819691803    1.0377214330   -0.8739322593
 C   -1.2305792237   -0.6694355143   -0.1544609143
 C   -1.7479333241   -0.8462127542   -1.5653580179
 C   -1.9323520501   -2.1388651651   -1.8285513060
 C   -1.4916871894   -2.9683245165   -0.6699768530
 C   -0.0418296178   -2.8519071355   -0.3401837943
 N   -1.0304921561   -2.0380040231    0.3881465129
 H    1.5389024621    0.8965579318    1.3239740852
 H    0.1302808927    0.1337186626    2.1366763799
 H    1.2947864776   -0.8740220759    1.3001053819
 H   -1.9973478678   -0.1838530631    0.4749755273
 H   -1.9014694901   -0.0130881343   -2.2371871544
 H   -2.3111889306   -2.5612090805   -2.7507660702
 H   -2.0634179910   -3.8381186333   -0.3581503774
 H    0.4458517062   -3.6032713165    0.2750699145
 H    0.5911481188   -2.3757068019   -1.0858274090