14

 C   -0.0121104901    1.5102194586    0.0750050677
 C   -0.0186473749   -0.0109460248    0.0467128741
 O   -0.0386323284   -0.6815409568    1.0565171671
 C   -0.0016486284   -0.6319853563   -1.2822054866
 C    0.0193483970   -0.1073411969   -2.5274961278
 N    0.0270591734   -1.1660612245   -3.4067241070
 C    0.0109536624   -2.3684634952   -2.7066990775
 O    0.0109469399   -3.4875661319   -3.1287519679
 O   -0.0072631574   -2.0112024916   -1.3785782405
 H    0.8823853512    1.9080991341   -0.4158251451
 H   -0.8864892037    1.9164140211   -0.4444431972
 H   -0.0274184079    1.8359745318    1.1151649846
 H    0.0293567207    0.9197386698   -2.8503771684
 H    0.0413528261   -1.1300227574   -4.4113904956