15

 O   -0.8277564568    0.9126676288    0.5720352170
 C    0.1701348471    0.8746986626   -0.0987459955
 C    1.3480031407    1.8304102000    0.0632088699
 C    1.3725563883    2.5223755671    1.4278488573
 C    2.7091474040    3.2338834226    1.5820952614
 O    3.8116974289    2.3384932397    1.3472648348
 C    3.6143545945    1.3791151834    0.4185794840
 N    2.5695710360    1.0887551474   -0.2349601862
 H    0.3158601194    0.1310885890   -0.9113262917
 H    1.2066373376    2.5811261586   -0.7344441177
 H    0.5470858407    3.2308977264    1.5315016708
 H    1.2546519421    1.7724083292    2.2165639044
 H    2.7952607578    4.0699452364    0.8764350844
 H    2.8565500181    3.6217479073    2.5922908581
 H    4.5335788918    0.8157766316    0.2684175491