14

 N    0.3660095501    1.5606706943   -0.0739559324
 C    0.1467536011    0.1039245906   -0.0512784954
 C    0.7701127974   -0.5225678466   -1.2119367327
 C    1.2672915552   -1.0362835218   -2.1767088992
 C    0.8057996112   -0.4180572897    1.2683059749
 O    2.1187963137    0.0444524802    1.3816065327
 C   -0.0313064407    0.0201813758    2.4143089432
 N   -0.6983709856    0.3903739584    3.2824928034
 H    0.3138840722    1.9131047405   -1.0221304186
 H   -0.3463510973    2.0295462846    0.4775525163
 H   -0.9181751821   -0.1719940805   -0.0320049203
 H    1.7106035141   -1.4962956271   -3.0256541376
 H    0.8252282135   -1.5118602694    1.2573621102
 H    2.0883402273    0.9532182406    1.0343040655