13

 C    0.0739709349    1.5540400775    0.0142073670
 C    0.1001800671    0.0457869855   -0.0018780403
 O    0.7772724676   -0.4267728625   -1.1477911106
 C    1.4184340408   -1.6297078874   -0.7762155829
 C    1.5861136940   -1.5162747793    0.7352759509
 O    2.2380926868   -2.1872944073    1.4763799251
 O    0.8236614531   -0.4629598154    1.1305032618
 H    1.0952863089    1.9418214637    0.0084421378
 H   -0.4522085005    1.9169339202   -0.8724381980
 H   -0.4457885002    1.9125720289    0.9057621958
 H   -0.9154401561   -0.3800087530    0.0467232816
 H    0.8175211677   -2.5209159591   -1.0149704181
 H    2.3841000658   -1.7107589017   -1.2795291201