16

 O   -0.0782256903    1.3835391871   -0.0356046769
 C    0.0189882939    0.0098963835   -0.0388226256
 C    0.4049135346   -0.9821931741    1.1120541198
 C   -1.0199909717   -1.0298417335    1.6720063151
 C   -1.1777433667   -0.9532354087    0.1495098987
 N    0.0226863654   -1.9197886532   -0.0568494081
 C    0.6567128978   -0.9446470061   -1.0671170123
 C    0.1448389539   -0.9969251139   -2.4184047582
 C   -0.2839778668   -1.0191456463   -3.5417000991
 H    0.8081646820    1.7619231797   -0.0169602672
 H    1.3686267396   -1.0967498515    1.6117974631
 H   -1.3220385553   -1.9693986146    2.1406918699
 H   -1.3534479332   -0.1613234780    2.2427535562
 H   -2.0643416211   -1.0391246141   -0.4770558275
 H    1.7510672035   -1.0120134393   -1.0504279691
 H   -0.6630357055   -1.0453031669   -4.5334686987