21

 C   -0.3845387659    1.8258313933   -0.0059239610
 C   -0.1970421926    0.3063466257   -0.0282020662
 C   -1.5217032363   -0.4602804193    0.0381131439
 C   -1.3334383134   -1.9878718942    0.0271685556
 N   -2.5971634090   -2.6831787034    0.1979002536
 C   -3.2606832748   -3.0362690352   -0.8390239012
 N   -2.9641429762   -2.9154714708   -2.1711110200
 C   -4.5615975723   -3.7338608889   -0.5730916108
 O   -5.3158377832   -4.0820388237   -1.4502091093
 H    0.5765855495    2.3471601861   -0.0518990067
 H   -0.9877168060    2.1636126210   -0.8560533989
 H   -0.8951368198    2.1473017571    0.9084067296
 H    0.3484923240    0.0174109275   -0.9366192723
 H    0.4375903492    0.0023828545    0.8144021442
 H   -2.0694306410   -0.1869621528    0.9478674024
 H   -2.1637791775   -0.1648999068   -0.8032096907
 H   -0.8014645832   -2.2900765793   -0.8907801205
 H   -0.6863427760   -2.2653860690    0.8676926315
 H   -2.3147369595   -2.2158836778   -2.4842042644
 H   -3.7228247415   -3.1481907211   -2.7953985422
 H   -4.7597171045   -3.8878070030    0.5036839834