11

 N   -0.1239424818    1.2659905656    0.0118486083
 C   -0.0053896033    0.0195995441    0.0016065158
 O   -1.1739929511   -0.7228200759    0.0085377708
 C   -1.1218786291   -2.0483231193    0.0004936342
 N   -2.1578850755   -2.8278346138    0.0030265709
 C   -1.5517788147   -4.0580483748   -0.0078528185
 N   -0.2476241396   -4.0618686025   -0.0165086236
 O    0.0581882036   -2.6741316052   -0.0107377056
 H    0.7928573143    1.7090990327    0.0047751975
 H    0.8978607975   -0.5894856856   -0.0128591223
 H   -2.1051871402   -4.9862468853   -0.0093461375