15

 O   -0.0076200559    1.4460372066   -0.0114939687
 C    0.0785160587    0.0218287425   -0.0011428029
 C    0.6886825167   -0.4899521758   -1.2331172374
 C    1.2102655757   -0.8566829189   -2.2514921178
 C    0.7974569670   -0.4664633664    1.2349127180
 C    1.2171664397    0.2945349020    2.2942570364
 N    1.7812401930   -0.6015096349    3.1767342848
 C    1.6735909228   -1.8401903805    2.6193602878
 N    1.0842518513   -1.7947638410    1.4477094461
 H    0.8524327300    1.7764926896   -0.2947930102
 H   -0.9634779185   -0.3221686242    0.0379974321
 H    1.6629792364   -1.1993106863   -3.1489206353
 H    1.1515511397    1.3481952000    2.5003360832
 H    2.1960239433   -0.3780380820    4.0656468919
 H    2.0413957301   -2.7286905308    3.1107483019