18

 C   -0.0338798617    1.5146645701    0.0998842515
 C    0.0043892170    0.0280374977   -0.0354378889
 C   -0.0077030718   -0.8009413126   -1.1343950302
 C   -0.0666740905   -0.3880936349   -2.5756234715
 C    0.0472067882   -2.1543820126   -0.6414900994
 C    0.0575684146   -3.3898827466   -1.4096239195
 O    0.1052061784   -4.5076728568   -0.9340281953
 C    0.0905267978   -2.0900801915    0.7407918089
 N    0.0643171643   -0.7808264635    1.0909260959
 H    0.8562981736    1.9046486771    0.6093576046
 H   -0.0791682051    1.9872439489   -0.8830093915
 H   -0.9101910228    1.8540285546    0.6664325169
 H    0.8066230180   -0.7406476358   -3.1361686463
 H   -0.9530147559   -0.7912461424   -3.0786409467
 H   -0.1013600060    0.6995918024   -2.6792995449
 H    0.0175166757   -3.2513135625   -2.5136336726
 H    0.1369847336   -2.8842280558    1.4675873610
 H    0.0857053528   -0.4366638760    2.0363100081