16

 N    0.1605061816    1.3596347454   -0.0785634666
 C   -0.0335821433   -0.0098405018   -0.0101949882
 C   -1.1017914894   -0.8357755549    0.1415381366
 N   -0.6387862578   -2.1461758137    0.2520496245
 C    0.6457167394   -2.0568518152    0.1609345106
 O    1.0972513796   -0.7733996884   -0.0005238629
 C    1.6418853814   -3.1369925818    0.1914401812
 C    1.5081851446   -4.2122853410    1.2203624046
 N    1.2046633826   -4.4916264901   -0.1853905051
 H    0.8882142949    1.6251859412   -0.7313196461
 H   -0.6944828643    1.8603793987   -0.2786300312
 H   -2.1506712169   -0.5913512573    0.1727467198
 H    2.6290842994   -2.8511220651   -0.1584737360
 H    2.4017119200   -4.6958792345    1.6057365852
 H    0.6852709952   -4.1148222047    1.9223039776
 H    0.1948045330   -4.4607242968   -0.3211047638