14

 O    0.1404348019    1.3616744131   -0.0605288714
 C    0.0849986556    0.0156503383   -0.0685127035
 C    0.1539671504   -0.8062211124   -1.1634681001
 N    0.0437416981   -2.0890662754   -0.6356727514
 C    0.0699259951   -3.3280786445   -1.3791359829
 C    1.3940028613   -3.6439360190   -1.9376334328
 N    2.4258817450   -3.9003362349   -2.3875036985
 C   -0.0763405237   -1.9603140819    0.7125745141
 N   -0.0604946301   -0.6991576625    1.0873847890
 H    0.0718585466    1.6312271372    0.8636669709
 H    0.2758292488   -0.6201561280   -2.2155120517
 H   -0.2349790154   -4.1391946513   -0.7115836672
 H   -0.6559040025   -3.2926562581   -2.1994690546
 H   -0.1769559710   -2.8159629605    1.3637585399