21

 O    0.0454692936   -0.0549827399   -0.6169321979
 C    0.0400634681    1.0568595106   -0.1546846456
 C    1.2688119494    1.9374702111    0.0039252698
 C    1.2816360011    2.9564727246   -1.1196293440
 C    0.8998392560    4.2228444152   -0.9279966444
 C    0.8846649084    5.2751108573   -2.0064521316
 C    1.6527189311    4.8361723566   -3.2612723774
 C    1.3230624108    3.3828132489   -3.6189801645
 C    1.7126483572    2.4378725258   -2.4745286947
 H   -0.9114687766    1.5501441036    0.1498147634
 H    1.2193313043    2.4422290646    0.9748019307
 H    2.1577063222    1.2989832411   -0.0316919434
 H    0.5835379912    4.5381737157    0.0649847187
 H   -0.1589240509    5.5105978925   -2.2656638653
 H    1.3016948334    6.2106210889   -1.6123900302
 H    1.4222866664    5.5046849720   -4.0973450511
 H    2.7308366150    4.9242919212   -3.0742659685
 H    0.2460208082    3.2932812861   -3.8114685733
 H    1.8328538676    3.0846317651   -4.5411118967
 H    2.8029144813    2.2864351482   -2.4637918643
 H    1.2856358124    1.4404257807   -2.6365796197