18

 O   -0.0690717922    1.3679969441    0.2979937455
 C    0.0263165934    0.0210030965   -0.1853082158
 C   -1.3579566709   -0.5879848164   -0.0463586288
 C   -1.5256598064   -2.1111329258   -0.1087673426
 C   -0.8431653563   -2.7922466744    1.0467673539
 C   -2.1641667207   -2.1258949362    1.2885206475
 C   -1.9799295428   -0.6132402108    1.4004698822
 O   -1.1508878521   -0.1954950571    2.4601389730
 H    0.8042018392    1.7688402643    0.2521213616
 H    0.3506771728    0.0052022143   -1.2364821466
 H    0.7610186188   -0.5444146036    0.4015219661
 H   -2.0392366500   -0.0781066215   -0.7334461274
 H   -1.8349415719   -2.6624670401   -0.9885041172
 H   -0.8754095266   -3.8765724663    1.0169578140
 H    0.0546830146   -2.3854091354    1.4998188641
 H   -3.0321670779   -2.6736433161    1.6331586153
 H   -2.9437865436   -0.0872195955    1.4191618477
 H   -0.7878240472    0.6581028498    2.1863582175