15

 C    0.0004836989    1.4515394772    0.0299084744
 N   -0.0268705335    0.0048957943    0.0376482352
 C   -0.1398921724   -0.8338367867   -1.0536513171
 N   -0.1390885366   -2.1276453414   -0.7617062215
 C   -0.0184283024   -2.1104871146    0.5942713543
 C    0.0529912210   -0.8424047060    1.1218566459
 N    0.1737310881   -0.8210423604    2.4797799697
 C    0.1754681618   -2.1103851179    2.7822410017
 N    0.0619968863   -2.9455310686    1.6875975166
 H    0.9373920476    1.8238257502    0.4551917376
 H   -0.0844537919    1.8027023603   -1.0002948330
 H   -0.8314815780    1.8580923184    0.6128168742
 H   -0.2205806200   -0.4283147890   -2.0516424220
 H    0.2563760635   -2.5077475305    3.7826335982
 H    0.0454596976   -3.9506206052    1.7056024456