18

 C   -0.6755055324    0.9053020123   -0.9569116054
 C    0.0535201751   -0.0670414880   -0.0451254443
 C    1.3990511378   -0.5686028578   -0.4610305977
 N    1.2870158676    0.3904989641    0.6451389235
 C   -0.8072447242   -0.9189280028    0.7422916976
 C   -1.5587463346   -1.6215432466    1.3662998025
 C   -2.4541199388   -2.4785006579    2.1460253832
 C   -3.5216074033   -3.0891197098    1.3506440808
 C   -4.4021107138   -3.5946687999    0.7100312242
 H    0.0381061445    1.4843184611   -1.5525735814
 H   -1.3407182401    0.3715426649   -1.6422603062
 H   -1.2858415043    1.6006337194   -0.3719746234
 H    1.7116989432   -1.5662103966   -0.1690383918
 H    1.7813176004   -0.2298192931   -1.4210862328
 H    1.5160242540    1.3263603599    0.3162464434
 H   -1.8689606104   -3.2705209358    2.6337111584
 H   -2.9014918903   -1.8971459836    2.9643229518
 H   -5.1788582804   -4.0403132999    0.1396481177