22

 C   -0.0542110192    1.5855451109    0.0728206607
 C   -0.0078217465    0.0561625166    0.0194819418
 C    0.7015802881   -0.4822549127   -1.2278309858
 C    0.7525462500   -2.0124037772   -1.2892029299
 C    1.4624657827   -2.5439379120   -2.5375821729
 C    1.5056511138   -4.0848860424   -2.5848689106
 C    2.1793582017   -4.6034434157   -3.7691724843
 C    2.7393916996   -5.0044408598   -4.7544743447
 H    0.9550651209    2.0122246125    0.0738249600
 H   -0.5836961638    1.9958284131   -0.7943640650
 H   -0.5659513449    1.9398386702    0.9731270658
 H    0.4970721535   -0.3273715848    0.9161247910
 H   -1.0300251264   -0.3436490876    0.0546243188
 H    0.1970914318   -0.0990643257   -2.1258448644
 H    1.7247402907   -0.0827488572   -1.2640469635
 H    1.2577023714   -2.3958870576   -0.3914812960
 H   -0.2707008358   -2.4122166782   -1.2536852208
 H    0.9601630417   -2.1751165410   -3.4397613755
 H    2.4882760643   -2.1587536480   -2.5777248461
 H    2.0081157830   -4.4631599637   -1.6845998674
 H    0.4815434600   -4.4795163980   -2.5458275182
 H    3.2320266936   -5.3698550218   -5.6208652529