19

 C   -0.1037195150    1.5364280390    0.0265967125
 C    0.0379514271    0.0153113526    0.0308926062
 C    0.7072899566   -0.5031032774   -1.2522749763
 C    1.0005925464   -1.9878066304   -1.1767775086
 O    1.0368862847   -2.7489031629   -2.1168945662
 N    1.2871480184   -2.4076431339    0.1138606327
 C    1.2863437216   -1.5585639749    1.2307244778
 C    1.9663478004   -2.1192789657    2.4480940327
 N    0.7461834405   -0.4072507806    1.2432282046
 H    0.8813103706    2.0120082126   -0.0254638934
 H   -0.6970081197    1.8743099626   -0.8289973201
 H   -0.5902613749    1.8712955830    0.9461366927
 H   -0.9724255868   -0.4226447877    0.0873509019
 H    0.1029709929   -0.3144784843   -2.1419742048
 H    1.6692504786    0.0096132211   -1.3962960634
 H    1.6161490048   -3.3587781208    0.2016607184
 H    1.4905682005   -3.0562049858    2.7615602140
 H    3.0201783585   -2.3391002128    2.2433242017
 H    1.8972609048   -1.3970509136    3.2603830875