17

 O    0.0991811313    1.3713953309    0.1009563748
 C    0.0733816002   -0.0383681857   -0.0732475038
 C   -1.3358164265   -0.5671091455   -0.0887464210
 C   -2.0559307461   -0.9476915082    1.2027611444
 C   -1.7303873471   -2.0016576894    0.1555741054
 N   -2.7031972794   -2.2947090744   -0.8545375109
 C   -3.0861516205   -1.1359425214   -1.5381471164
 O   -4.0331427290   -1.0141760694   -2.2795387021
 N   -2.1544558521   -0.1659459236   -1.1951931863
 H   -0.2899276400    1.5642412750    0.9611393099
 H    0.5505625632   -0.2258740944   -1.0398599586
 H    0.6564548773   -0.5573268854    0.7029416239
 H   -1.4607005766   -0.9739114571    2.1100914305
 H   -3.0904986156   -0.6485899893    1.3306534884
 H   -0.9957175452   -2.7705493238    0.3687546573
 H   -3.4153287448   -2.9944427918   -0.7182492406
 H   -2.3464018991    0.8001549834   -1.4012498749