18

 C   -0.3745815273    1.4773017863    0.2166645546
 C    0.1433807476    0.0608139444   -0.0693163959
 C    0.9463980089   -0.5059086739    1.0713708461
 C    2.2784176598    0.0987660724    1.4903700363
 O    2.9761654522   -0.9299187125    2.2145368776
 C    2.3468203092   -2.1396089511    2.0903630467
 N    2.8265507307   -3.2553004487    2.4319669231
 C    1.0094670029   -1.9187065809    1.4724508230
 O    0.2287051409   -0.9655451129    2.2225536646
 H    0.4468048317    2.1875805640    0.3583644947
 H   -0.9850448632    1.8401219500   -0.6146709125
 H   -0.9898393497    1.4869773501    1.1210415560
 H   -0.6999067364   -0.6110625827   -0.2585336519
 H    0.7634293075    0.0601490736   -0.9743400070
 H    2.8773108917    0.3908863638    0.6192231936
 H    2.1598222504    0.9612186219    2.1523171780
 H    3.7739101433   -3.1430311372    2.7985689913
 H    0.4733250499   -2.7357343666    1.0046485118