16

 C    0.0205596103    1.4993084436    0.1477593478
 C   -0.0253205243   -0.0173785091   -0.0758273691
 O    0.7198276783   -0.7102397603    0.9247032823
 C   -1.4403178710   -0.5486722632   -0.0123808808
 C   -2.1661766772   -0.5790642558    1.3031313570
 N   -1.9295848031   -0.9276037851   -1.1297419694
 O   -3.2619293104   -1.3487040628   -0.9988197661
 H    1.0559367208    1.8582599537    0.1065204954
 H   -0.5460144880    2.0217468590   -0.6286099430
 H   -0.3929879719    1.7642564722    1.1254626838
 H    0.3612329963   -0.2456374335   -1.0782320460
 H    1.5877798868   -0.2984769347    0.9813310860
 H   -2.9215022746    0.2139306168    1.3488476835
 H   -2.6986815505   -1.5268062646    1.4145588242
 H   -1.4635820662   -0.4559511110    2.1275696780
 H   -3.4698830252   -1.6387458853   -1.8931567335