21

 O   -0.1262850429    1.4379700518   -0.1213774639
 C   -0.0249452301    0.0311825349   -0.0341629740
 C   -1.3963481256   -0.6215920590    0.0322048979
 O   -2.0763903267   -0.2490542068   -1.1621931285
 C   -3.4012382492   -0.6263087274   -1.2275087140
 C   -4.5814904652   -0.2122503377   -0.2882115015
 C   -5.1927424261   -1.0869910172   -1.4196774334
 C   -4.3107181034   -0.2956433352   -2.4306410510
 C   -4.0010937306   -2.0709184686   -1.2387688566
 H   -0.7566301307    1.6097909943   -0.8309887463
 H    0.5296432934   -0.3878796874   -0.8890207147
 H    0.5372305654   -0.1989340890    0.8769210794
 H   -1.3078211019   -1.7157943186    0.1050411994
 H   -1.9464488178   -0.2542250352    0.9099904087
 H   -4.5954553259   -0.6391032037    0.7179545372
 H   -4.8535849820    0.8464388070   -0.2847628849
 H   -6.2397257732   -1.3533258138   -1.5376403815
 H   -4.5591100134    0.7584316919   -2.5794074594
 H   -4.0732335486   -0.7959984536   -3.3728634201
 H   -3.7470876907   -2.6978413142   -2.0974575069
 H   -3.9713245246   -2.6317472925   -0.3008811459