16

 N    0.0804421672    1.0523123961    1.3661380524
 C    0.0457837349   -0.0252021203    0.4644034134
 C   -0.9631783684   -0.3527935053   -0.4113306209
 C   -2.2719184845    0.3150833365   -0.7173673994
 C   -3.2657018584   -0.5993547679   -1.2753042034
 C   -4.0499062154   -1.3700634955   -1.7615233266
 N   -0.5251339797   -1.5102323134   -1.0308776251
 C    0.6757898024   -1.8340862396   -0.4904397936
 N    1.0586681789   -0.9506566852    0.4089937903
 H    0.9482127191    1.0211242880    1.8887134116
 H    0.0142305468    1.9531302052    0.9066035094
 H   -2.6539966474    0.7619748362    0.2100053531
 H   -2.1418927202    1.1538792199   -1.4192611866
 H   -4.7683545879   -2.0353300665   -2.1727775447
 H   -1.0647039792   -2.0416820787   -1.6946895677
 H    1.2252718218   -2.7156485395   -0.7834781421