16

 C   -0.0204652314    1.5608646208    0.0559134576
 C   -0.0082767257    0.0634821915    0.0307287536
 C    0.0102263438   -0.7731299956   -1.0743637329
 N    0.0214887452   -0.4483330676   -2.4315699323
 C    0.0374723115   -1.3452243886   -3.4595172101
 O    0.0442778163   -2.5532856219   -3.3263547367
 N    0.0163238539   -2.0497634362   -0.6240315162
 N    0.0030202851   -2.1169008924    0.7228345966
 C   -0.0120793071   -0.8462250701    1.1125816752
 H    0.8720656780    1.9960512498   -0.4117486362
 H   -0.8960041740    1.9819014612   -0.4548028831
 H   -0.0485896120    1.9231539140    1.0868788412
 H    0.0170857358    0.5339357652   -2.6593785430
 H    0.0431677215   -0.8441218443   -4.4435390933
 H    0.0278870825   -2.8698119063   -1.2109214389
 H   -0.0252066236   -0.6081492195    2.1669461988