15

 O   -0.1923013164    0.3802413364   -0.7234476441
 C    0.2082520732    1.0378928854    0.2092716596
 C    1.3009394686    2.0367006561    0.1209534875
 C    1.6715448610    2.9803349376    1.2932264673
 N    2.8682682201    3.6696809824    0.7475812139
 C    2.7924968553    3.4948400183   -0.5093812029
 N    3.7093347694    2.4883751728   -1.0910231017
 C    2.3674626355    1.7079764774   -1.0738361152
 C    1.4856327231    2.8704065853   -1.1152285528
 H   -0.2313067585    0.9163669193    1.2246301738
 H    0.8229354737    3.6263649576    1.5648123525
 H    2.0060773313    2.4659295749    2.1999083815
 H    3.8361673021    2.6536883917   -2.0965786289
 H    2.2964147915    0.7443172305   -1.5664518970
 H    0.7480390301    3.2360691643   -1.8171171032