16

 N   -0.2184065002   -1.1208726413    0.3070664320
 C   -0.1209867764    0.0107555685    0.0954621992
 C    0.0289494104    1.4415505703   -0.1772888536
 C    1.4689382032    1.8920650201   -0.0767598442
 C    2.0686269176    2.3970304313    1.1732258573
 N    1.8256094779    3.3566684477    0.0747488688
 C    2.9551441612    3.1303585663   -0.9012625207
 C    2.5405605826    1.6545952774   -1.1408500962
 H   -0.3678604739    1.6506453850   -1.1780885388
 H   -0.5838173464    2.0079373666    0.5322388158
 H    1.4120019677    2.5516091689    2.0239363697
 H    3.0930234931    2.1368526319    1.4321216704
 H    2.8309426723    3.7751476699   -1.7726263522
 H    3.9432311208    3.3053641481   -0.4645899858
 H    3.2688028933    0.8666704861   -0.9333467433
 H    2.1237519868    1.4928404132   -2.1372751283