19

 C    0.2288506546    1.6197713403    0.0266980196
 C    0.1918985040    0.0875114999    0.0800907294
 C    0.5550585360   -0.5393907544   -1.2433259668
 C   -0.4192774659   -0.4305275294   -2.4524697618
 C   -0.1871252507   -1.9333074736   -2.7153610176
 O   -0.6228066679   -2.7107683885   -3.5134237008
 C    0.7601937783   -2.0722395757   -1.5170793575
 C    2.2087265445   -1.6533722010   -1.8576372448
 O    1.9179854783   -0.2554288709   -1.6547850685
 H    1.2195362292    1.9668471932   -0.2794369262
 H   -0.5019779879    2.0112899500   -0.6888478392
 H    0.0021861173    2.0500916330    1.0061711836
 H    0.8918355281   -0.2746093679    0.8423286483
 H   -0.8066180106   -0.2610033775    0.3729413348
 H   -1.4605861922   -0.2314732019   -2.1745301892
 H   -0.1210611151    0.2570769528   -3.2471615874
 H    0.6034307509   -2.8880602971   -0.8122131340
 H    2.9477835155   -2.0176764309   -1.1343191035
 H    2.5623425235   -1.8713363803   -2.8717792985