14

 O    0.2173385425    1.2698593744   -0.2203718826
 C    0.1017954240   -0.0618933638    0.0407534395
 C   -0.4791127132   -0.6237414522    1.2669571574
 O   -0.9753203324    0.1162112052    2.2971723410
 C   -1.3389763608   -0.7790245890   -0.0910330100
 C   -2.4616044574    0.1419589808   -0.2018248115
 O   -2.4542125643    1.2580829658    0.3124659316
 C   -1.4237579582   -2.0581597402   -0.7171256450
 N   -1.4674651771   -3.1023674329   -1.2161740258
 H   -0.5866729309    1.7237697875    0.0838112130
 H    0.8792225249   -0.6376138325   -0.4510685752
 H   -0.0954335320   -1.5803920709    1.6065853364
 H   -1.4645421194    0.8747526613    1.9362043971
 H   -3.3371978958   -0.2061926434   -0.7753320361