19

 N    0.2414861327    1.3562102712   -0.2147173247
 C   -0.0226082581   -0.0252210277   -0.0809775403
 C   -1.1804953213   -0.7585129993    0.0509690126
 C   -0.8070419171   -2.1342855802    0.0838601465
 C    0.5634414246   -2.2110103582   -0.0176849045
 C    1.4856637764   -3.3857170952   -0.0516246936
 C    2.0072119647   -3.7103199008   -1.4553312514
 O    2.8845032222   -4.8199958889   -1.3441607297
 N    1.0249043820   -0.9128287622   -0.1266356969
 H   -0.5866018563    1.8435636633   -0.5351607096
 H    0.5189595821    1.7809502203    0.6664312883
 H   -2.1769306173   -0.3518006051    0.1362711065
 H   -1.4703695484   -2.9800770796    0.1892430361
 H    2.3517470847   -3.2300008044    0.6051160070
 H    0.9597124362   -4.2657108868    0.3307718889
 H    1.1546511862   -3.9284969057   -2.1162112515
 H    2.5252779548   -2.8315083962   -1.8737389122
 H    3.1775470693   -5.0624004248   -2.2271965803
 H    1.9797823928   -0.6361754695   -0.2798332514