18

 C   -0.0024203217    1.5727410617   -0.0327052844
 C    0.0396185048    0.0580680337    0.0464111521
 O    0.7747993020   -0.4567509987   -1.0891185870
 C    1.4929465106   -1.5764877870   -0.6406134851
 C    2.5269362348   -1.3914224380    0.4818479775
 N    2.2331323128   -0.1012751491    1.1390773252
 C    0.7857942672   -0.5389021799    1.2410041906
 C    1.1573486925   -1.9805785749    0.7543214050
 O    0.7365847459   -3.1959058342    1.2482955089
 H    1.0092978333    1.9726060992    0.0579350136
 H   -0.4293258160    1.8903530250   -0.9879340236
 H   -0.6247485268    1.9792455060    0.7715733068
 H   -0.9840280233   -0.3555390978    0.0232845527
 H    1.7096695688   -2.3114926415   -1.4075762534
 H    3.5213928834   -1.8211852229    0.4430634030
 H    2.6351486560   -0.1282765626    2.0736901651
 H    0.3174455751   -0.4064513619    2.2155926925
 H    0.0080890106   -3.5158721871    0.7038328107