17

 C   -0.2519403875    1.4988864104   -0.0138532456
 C    0.0969681191   -0.0005638170    0.0273435973
 C    0.8231094278   -0.4597991373   -1.1985854511
 C    2.0954806768   -0.8685994281   -1.3330012500
 C    2.3806118193   -1.3275586979   -2.7335985649
 O    1.5778518365   -2.4641420899   -3.1174306205
 C    1.1513309959   -1.1453646833   -3.5060003161
 C    0.1360651098   -0.5506927283   -2.5333657488
 O   -0.9897852172   -0.1993699371   -2.7926647897
 H    0.6532813083    2.1105896359   -0.0804697011
 H   -0.8830226535    1.7215559139   -0.8772469828
 H   -0.7926235481    1.7895711288    0.8915421598
 H    0.6985163411   -0.2239634975    0.9148521717
 H   -0.8335144546   -0.5749130041    0.1150561183
 H    2.8261752050   -0.9286302484   -0.5344109891
 H    3.3739673174   -1.2845143891   -3.1674585488
 H    1.0925937339   -0.9418775011   -4.5701441186