18

 C   -0.2052107195   -1.3218156023   -0.0435401065
 C   -0.1158874480   -0.1228552011    0.0212955905
 C   -0.0518030140    1.3258793664    0.0247927465
 C   -0.3064932039    2.0879307960    1.4022416220
 C    1.2157174252    2.3057124696    1.3917863133
 C    2.5013403164    3.1696597456    1.2477481743
 C    2.6817357779    1.8139387671    0.4316564294
 C    2.1402966625    1.0651716884    1.6558447197
 N    1.2717059774    2.1134192902   -0.0950305139
 H   -0.2696685753   -2.3809041946   -0.0898440019
 H   -0.6921328817    1.6906433647   -0.7826740091
 H   -0.8973894164    2.9914866226    1.2414971265
 H   -0.7180395353    1.5019406022    2.2248896981
 H    2.3909149155    4.0685775063    0.6415703942
 H    3.1563688862    3.3011298905    2.1121338307
 H    3.5158355892    1.5559321962   -0.2249693848
 H    2.7509136356    1.0855596011    2.5631593165
 H    1.7127188280    0.0805700609    1.4839398547