13

 O   -0.0278439707   -0.0572818790   -0.0017779250
 C   -0.0307418780    1.1417292125    0.0079958007
 N    1.1474554506    1.9077116962    0.0005366298
 C    2.4190886450    1.3797385230   -0.0183098833
 N    3.3431186986    2.3065049936   -0.0212969627
 C    2.6651426839    3.5010339176   -0.0039586999
 C    1.3044898161    3.3073440372    0.0099735985
 C    0.2344399162    4.2981588263    0.0300193540
 O    0.4428095076    5.4909282784    0.0370340778
 H   -0.9426547390    1.7580165143    0.0234246758
 H    2.5734854502    0.3121530888   -0.0286566768
 H    3.1776835036    4.4505474312   -0.0021562268
 H   -0.8042083641    3.9036803200    0.0382392680