20

 C   -0.2564009317    1.4550494168    0.2778725662
 C   -0.0483743451   -0.0544695438    0.2538716773
 O   -0.1045723467   -0.7005585401    1.2766705015
 C    0.2625551170   -0.7340482479   -1.0588450709
 C   -0.6640492988   -0.4246580975   -2.2025186560
 N    0.7095605965    0.0645452816   -2.2165483837
 C    0.8679483151   -2.1019327830   -0.9262257247
 C    1.5053930222   -2.7854426241   -2.1055093129
 C    2.3657969470   -2.2728878489   -0.9778665097
 H    0.7170099842    1.9580592344    0.2229720357
 H   -0.8672930127    1.8273202016   -0.5495841225
 H   -0.7248064160    1.7233385161    1.2254130026
 H   -0.8744326010   -1.2255523068   -2.9051167901
 H   -1.4787706970    0.2778631907   -2.0503990605
 H    0.7432447343    1.0538679903   -1.9884026633
 H    0.3396965477   -2.7263691396   -0.2154916389
 H    1.3631703021   -3.8556318936   -2.2072883428
 H    1.5492687541   -2.2371169980   -3.0397310467
 H    2.9611192990   -1.3896350665   -1.1819552581
 H    2.8234075797   -2.9832563218   -0.2989581025