21

 C   -0.0408211206    1.4504492760   -0.2960696466
 C    0.1392258796   -0.0344131736   -0.0664184016
 C    1.4348816678   -0.7653303582   -0.0735040353
 C    2.5753464683    0.0412772092    0.5580682591
 C    1.7463801112    0.1876883493    1.8741519512
 C    0.6114582412   -0.6400017128    1.2483535227
 C   -0.1784838185   -1.7307201801    1.8698749633
 C   -0.0261323526   -1.9308343647    3.3683823849
 O   -0.9098569299   -2.4422353348    1.2079997033
 H    0.7656426546    2.0493967094    0.1340400493
 H   -0.0740055376    1.6666321396   -1.3694947978
 H   -0.9824119398    1.7980460991    0.1415998975
 H   -0.6626984471   -0.6461517196   -0.4724077538
 H    1.5591395040   -1.6784041573   -0.6440380708
 H    3.4774843578   -0.5551520276    0.7061166338
 H    2.8554735076    0.9650773498    0.0428987295
 H    2.2258701837   -0.3143824378    2.7166078436
 H    1.4878531085    1.2045233830    2.1863091203
 H   -0.1838968590   -0.9904042238    3.9079040184
 H   -0.7408161564   -2.6814091878    3.7075119871
 H    0.9894744372   -2.2674647075    3.6069468119