19

 C   -0.3765715844    1.4809755575   -0.1522864272
 C    0.0377904087    0.0284175935   -0.0440837960
 O    1.1649013306   -0.3079871527   -0.9651874454
 C    2.0581458836   -0.1356149895    0.1882723404
 C    2.9232855081   -0.9446830401    1.2322301692
 C    1.9947888275   -0.1276225393    2.2777970198
 C    0.9501023325   -0.4404886020    1.1387385672
 C    0.9903156046   -1.9876049691    1.1860208323
 O    2.4072233935   -2.2494827028    1.2907205351
 H    0.4478010219    2.1601383945    0.0806034187
 H   -0.7184326056    1.6954070200   -1.1689056653
 H   -1.2003635700    1.6879256602    0.5388491221
 H   -0.8107472474   -0.6334988645   -0.2450990525
 H    2.3976952182    0.9049908493    0.2023032632
 H    4.0126542839   -0.9530913864    1.2739080884
 H    1.8737125595   -0.6197385784    3.2457600906
 H    2.2511476103    0.9241191012    2.3943558957
 H    0.4730092142   -2.3863843638    2.0663968395
 H    0.5988595704   -2.4596032377    0.2813014542