19

 C    0.0326923842    1.4332269985   -0.1954600713
 C   -0.1389853354   -0.0863352558   -0.1293698990
 C   -1.4855520696   -0.4919859739    0.4815737576
 N   -1.6650463184   -1.9314960105    0.5687274432
 C   -2.5478581031   -2.6174944465   -0.2171415305
 O   -3.3046108185   -2.0877724183   -1.0036667727
 C   -2.4602524953   -4.1413404276   -0.0515102646
 O   -3.7269409322   -4.6948206007   -0.3067435612
 H    0.9981684778    1.7043874010   -0.6322848518
 H   -0.7512960757    1.8926246579   -0.8069353287
 H   -0.0194494123    1.8836171928    0.8021484832
 H   -0.0646113850   -0.5198179437   -1.1334743084
 H    0.6762282255   -0.5263683205    0.4608269670
 H   -1.5906825338   -0.0508399102    1.4815664196
 H   -2.3107464171   -0.1219650468   -0.1317880224
 H   -1.0857721254   -2.4478637047    1.2107889895
 H   -1.7000925617   -4.4958133282   -0.7670705500
 H   -2.0959359263   -4.3910115824    0.9596035563
 H   -3.6178900776   -5.6397965807   -0.4439614361