15

 O   -0.0735788369    0.0279410548   -0.2344955508
 C   -0.0539129030    1.2036155818   -0.0386146813
 C   -1.0653406571    2.2945538224    0.3594843067
 O    0.0122979603    3.2663346094    0.3576178573
 C    0.9757504595    2.2994127927   -0.0493941225
 C    2.4086405865    2.3190949252    0.3595765630
 C    2.0477691846    2.6066612829   -1.0919753917
 C    2.3462359420    1.6733994562   -2.1344111675
 C    2.5996637469    0.8903824138   -3.0109649763
 H   -1.8339006321    2.5162809012   -0.3891407213
 H   -1.5224264773    2.1778135183    1.3478442518
 H    2.7297663466    3.1614050075    0.9620933802
 H    2.8733307405    1.3656070233    0.5845923067
 H    2.0667121964    3.6577057263   -1.3684843245
 H    2.8159715130    0.1931476342   -3.7820311499