22

 C    0.0578366703    1.6064898547   -0.0674597853
 C    0.0336122357    0.0757538443    0.0406993577
 C    0.6877426531   -0.5774776138   -1.1827784497
 C    0.7071070816   -0.4044750332    1.3350951861
 C   -0.0623159985   -0.0429683017    2.5982390334
 O   -1.2415740953    0.2354127741    2.6149083382
 N    0.7212604711    0.0018775348    3.7537569701
 C    1.4007704902   -1.1334797576    4.3514732725
 C    0.2489414419   -0.4559677092    5.0366086651
 H    1.0883850230    1.9818158507   -0.0983951083
 H   -0.4426129390    1.9399265321   -0.9823910989
 H   -0.4513320135    2.0703158576    0.7811431098
 H   -1.0146177653   -0.2404888948    0.0905359734
 H    1.7460926344   -0.3004497512   -1.2623217931
 H    0.6330160680   -1.6705385963   -1.1334904045
 H    0.1939587609   -0.2588739250   -2.1064915975
 H    0.7962846142   -1.5006997541    1.3211877828
 H    1.7315507709   -0.0222456055    1.4167042351
 H    1.2205066131   -2.1184283694    3.9264126720
 H    2.4192115707   -0.9602527223    4.6885477018
 H    0.4369312191    0.2053986287    5.8773332055
 H   -0.7091931065   -0.9683347828    5.0538126840