18

 C   -0.0141961090    1.5672359873   -0.0133003678
 C   -0.0404109231    0.0388709524    0.0287176402
 N   -1.3964396013   -0.4973219711    0.0297994339
 C   -2.1248613961   -0.7806078847    1.1632290394
 N   -1.6952399697   -0.6131340388    2.3476884035
 C   -3.4538611546   -1.3017812251    0.6404939413
 O   -3.3461534477   -1.2381099646   -0.7835574118
 C   -2.1134234250   -0.7552052920   -1.1280590714
 N   -1.6793818467   -0.5687959884   -2.2990334832
 H    1.0212224117    1.9212223276   -0.0131720272
 H   -0.5021707841    1.9339855672   -0.9200368689
 H   -0.5194660918    1.9872688127    0.8606075971
 H    0.4648078430   -0.3796362181   -0.8444781367
 H    0.4397938472   -0.3321110440    0.9371286596
 H   -2.3925380126   -0.8983931207    3.0329884811
 H   -3.6323474406   -2.3370470003    0.9503915280
 H   -4.2926987471   -0.6814090317    0.9732892308
 H   -2.3779990125   -0.8382950776   -2.9874627980