19

 C    0.0814298031    1.4910426673    0.0578971847
 C    0.0217886506   -0.0334819820   -0.0257849500
 C    0.7815677747   -0.6342484922   -1.2484961134
 C    1.3595182445   -1.9340909053   -0.6961122082
 C    2.6013543254   -1.8352560785    0.1715047144
 C    1.2345266135   -1.8286447522    0.7963664064
 O    0.7223899519   -0.5600704629    1.1227727501
 C   -1.3748105041   -0.5006424185   -0.0088442942
 C   -2.5146974906   -0.8824759877    0.0032201347
 H    1.1253931114    1.8147841293    0.0810074870
 H   -0.4156278544    1.9388558257   -0.8067951132
 H   -0.4169435353    1.8412521985    0.9646062484
 H    0.1084100599   -0.8061350277   -2.0902063919
 H    1.5627952983    0.0601891368   -1.5752801985
 H    1.1561207660   -2.8632021883   -1.2136462427
 H    3.2094573656   -2.7274983468    0.2801678784
 H    3.1508796685   -0.8995218241    0.1788089835
 H    0.8894665528   -2.6381900391    1.4308088514
 H   -3.5214080518   -1.2206890522    0.0212566231