16

 C   -0.4353608290    1.3777986681    0.1735409234
 C    0.0195651591   -0.0347312010   -0.0614190440
 N   -0.1099701320   -0.5408127487   -1.2442042295
 C    0.1069543080   -1.8556545493   -1.5699492149
 C    0.0431937637   -2.9580157528   -0.7828498014
 C   -0.0535865545   -2.9629489767    0.6723127569
 N   -0.5494316938   -3.9565915675    1.3126562295
 C    0.6699817696   -1.8358956199    1.3289666891
 N    0.6630063117   -0.5943268758    1.0309014779
 H   -1.1068321049    1.4161772667    1.0385321056
 H    0.4214693749    2.0164043701    0.4122233905
 H   -0.9477293340    1.7593020617   -0.7091277389
 H    0.2283238170   -2.0103434203   -2.6402351849
 H    0.0772289640   -3.9366393276   -1.2527127756
 H   -0.4338143399   -3.8293391459    2.3222862524
 H    1.2889407001   -2.1305727311    2.1834176539