14

 O    0.0688329161    1.4627322616    0.0774442657
 C    0.0492783812    0.0615256055   -0.0308908893
 C   -1.4219186644   -0.4289269714   -0.1264910940
 O   -2.3079746548   -0.0799310186    0.5978599280
 C   -1.5354224973   -1.4033787822   -1.3088084615
 C   -0.2050563338   -1.2800250921   -1.9887482755
 C    0.6484183098   -0.4942071859   -1.3149095361
 C    1.9764905791   -0.1670826641   -1.6961466292
 N    3.0658242388    0.1351989168   -1.9495422262
 H    0.9457536528    1.7381116306    0.3645435578
 H    0.5105060105   -0.4167008193    0.8484908859
 H   -1.7299034556   -2.4174938500   -0.9344337848
 H   -2.3851773268   -1.1460238112   -1.9516011686
 H    0.0298293743   -1.7732166297   -2.9243171922