16

 C   -0.1817845185    1.4211090569   -0.0291744587
 C    0.0187539024   -0.0919983050    0.0400075041
 C    0.7228187320   -0.6505031943   -1.2023332059
 O    0.6643010251   -0.1291847565   -2.2818343918
 N    0.7427935340   -0.5138420742    1.2287311486
 N    2.0353663376   -0.2436790041    1.3849550475
 C    2.3237201200   -0.7711484111    2.5759895010
 C    1.1607119278   -1.3523016798    3.0992448460
 N    0.1669708144   -1.1793132204    2.2253410888
 H    0.7831253446    1.9304645540    0.0219150431
 H   -0.6575960642    1.6750339670   -0.9780679861
 H   -0.8098877409    1.7621140898    0.7967202319
 H   -0.9482158208   -0.6046339650    0.1072436521
 H    1.2727798503   -1.5995267124   -1.0288685114
 H    3.3200502046   -0.7125591913    2.9837871856
 H    0.9973334916   -1.8709379436    4.0301573652