18

 C    0.0147790836    1.5756851904    0.1448460347
 C    0.0110287270    0.0483487101    0.0338643477
 C   -1.4254066820   -0.5272069375    0.0443749572
 C   -2.1659208106   -0.1881430301    1.2559652856
 N   -2.7370931154    0.0859401091    2.2227091017
 C    0.7192165643   -0.4537531519   -1.2530534401
 O    0.0398415708   -0.0237634976   -2.4312479772
 C    2.1350359698   -0.0834933667   -1.2738364904
 C    3.2895478575    0.2504829514   -1.3004625773
 H    1.0375396850    1.9611902682    0.1462729365
 H   -0.5261349541    2.0303345285   -0.6924311526
 H   -0.4739477059    1.8978236149    1.0675903908
 H    0.5587245489   -0.3739926004    0.8843655615
 H   -1.9701802933   -0.1531454859   -0.8287399543
 H   -1.3971252080   -1.6195670583   -0.0458647133
 H    0.6465694252   -1.5490574979   -1.2725636913
 H    0.3533945177    0.8609527092   -2.6467938146
 H    4.3144349395    0.5295527744   -1.3273727645