21

 C    0.1506888578    1.4880715214    0.0582753575
 C    0.0528222765   -0.0130103134    0.0162379920
 C    0.5833841339   -0.9663748121   -1.1005144797
 C   -0.0671756760   -1.8999532702   -0.0392882509
 C   -0.1454986943   -3.4132112885   -0.0959750872
 C   -0.9044361470   -3.9929973174    1.0778726164
 O   -0.4554461433   -4.7844984737    1.8662212311
 C    0.6372494684   -1.0298855018    1.0452702454
 C   -1.2456350907   -0.8776663152    0.0207842439
 H    1.1962889523    1.8147393104    0.0443911382
 H   -0.3534084814    1.9405858042   -0.8027436287
 H   -0.3129561992    1.8879485074    0.9667683965
 H    0.0850235544   -0.9094414553   -2.0735257683
 H    1.6700547900   -1.0350267332   -1.2113040915
 H   -0.6765798415   -3.7070575002   -1.0134798381
 H    0.8537569940   -3.8590949521   -0.1196429102
 H   -1.9514575382   -3.6222495031    1.1744562003
 H    1.7278101539   -1.1039686949    1.0974484794
 H    0.1901878280   -1.0295211300    2.0441920840
 H   -1.8405366964   -0.8579889152    0.9391819639
 H   -1.8825817413   -0.8116728069   -0.8671568943