16

 C    0.1169296758    1.4385256757   -0.3300997251
 C    1.4418557474    1.9765981878    0.2787969340
 N    2.1267308982    0.7451790184    0.6307055058
 C    3.3739401042    0.3500625160    1.0533244316
 C    3.2451862355   -0.9986308267    1.2919025393
 N    1.9590072500   -1.4341112501    1.0410883366
 C    1.3231727725   -0.3537086313    0.6511493147
 C   -0.0772645409    0.0143472968    0.2660459112
 H   -0.7230707126    2.1046245700   -0.1244811842
 H    0.2253907623    1.3681650306   -1.4159046404
 H    2.0212068099    2.5717685402   -0.4326490342
 H    1.2676386798    2.5902131714    1.1715032513
 H    4.2078104073    1.0276634520    1.1277265646
 H    4.0123697260   -1.6829854882    1.6225848433
 H   -0.7328055018    0.0315520566    1.1454825680
 H   -0.5193050037   -0.6819870391   -0.4503369064