20

 C   -0.3322949962    1.5606308008   -0.0223662232
 N   -0.1801511501    0.1228093580    0.0286425963
 C   -1.3201657663   -0.6924138489    0.5030671951
 C   -0.3327009912   -1.5464696433    1.2992421649
 C   -0.5489404626   -2.3519117567    2.5376494969
 C   -0.1486759454   -3.0342340518    1.2481382511
 C    0.7301017781   -0.4557273279    1.0326305341
 C    2.0499066638   -0.9520481208    0.4849483297
 O    2.9682275477   -1.3183496990    1.1742603682
 H    0.6170185110    2.0254690502   -0.3085596235
 H   -1.0759694521    1.8261677645   -0.7808647729
 H   -0.6530380944    2.0008242386    0.9405084431
 H   -2.0176637794   -0.1348672077    1.1496816858
 H   -1.8909200964   -1.1807559425   -0.2956483536
 H    0.1942763454   -2.2822533245    3.3253311506
 H   -1.5680646812   -2.4742358353    2.8912559329
 H   -0.8964526933   -3.6165837651    0.7193583439
 H    0.8603529736   -3.4267391861    1.1783017140
 H    0.9111506568    0.1740365492    1.9184497095
 H    2.0820795921   -0.9994959717   -0.6272454127