22

 C   -0.1006992916    1.4834611392    0.0785985238
 C   -0.1031607232   -0.0257902471    0.0192769510
 C   -0.9108935782   -0.6871123010   -1.0968062389
 C   -1.3579116401   -2.0555705223   -0.5329094514
 C   -1.2199415030   -1.8931565718    1.0025783079
 N   -0.3160867817   -0.7682028021    1.2836080645
 C    1.0077112522   -0.8135975178    0.6266995189
 C    1.6555034203   -2.0552576958    0.0331635924
 O    3.0596024813   -1.8389689401    0.1044012078
 H    0.3844710940    1.9084691262   -0.8076380132
 H   -1.1234000596    1.8757329083    0.1221178383
 H    0.4357341781    1.8364038147    0.9628745899
 H   -1.7779999744   -0.0552265653   -1.3194259638
 H   -0.3439879367   -0.7825140475   -2.0291291025
 H   -2.3813177009   -2.3059279146   -0.8245543428
 H   -0.7218755852   -2.8635420811   -0.9024579511
 H   -2.1861862080   -1.6394920097    1.4520354136
 H   -0.8691256752   -2.8052954427    1.4967143425
 H    1.7506102814   -0.2531977866    1.1918052504
 H    1.3668093063   -2.9486352206    0.6107528277
 H    1.3440902372   -2.2211365392   -1.0079082712
 H    3.4977969772   -2.6055208232   -0.2765876439