20

 C   -0.4948031111    0.6636981796    0.1001807100
 O    0.7606418069    0.1056885766   -0.2741721170
 C    0.6984106420   -0.9362181748   -1.1273714210
 N    1.7664392615   -1.5111651087   -1.4769927396
 C    1.7395840604   -2.6307599639   -2.4100323785
 C    2.3444812391   -3.8430371516   -1.6795310929
 O    1.5406876184   -4.2451485691   -0.5682306740
 C    0.3979853507   -2.9879826546   -3.0760565238
 O   -0.6153784279   -3.3879754466   -2.1686503815
 H   -1.0639999227    0.9964375727   -0.7759039113
 H   -1.0982848384   -0.0523143413    0.6707297154
 H   -0.2717984279    1.5257286465    0.7298720417
 H   -0.3127800410   -1.2113307386   -1.4447129194
 H    2.4370521312   -2.3832313647   -3.2247137503
 H    2.3903993999   -4.7073075113   -2.3489005575
 H    3.3623441783   -3.6004463780   -1.3504599253
 H    1.5508728041   -3.5040151854    0.0504348873
 H    0.0113200136   -2.1189590305   -3.6226039081
 H    0.5931957865   -3.7733061245   -3.8257225303
 H   -0.1808667035   -3.9439631020   -1.5040147839