21

 C    0.0622985677    1.5671066515    0.0056657454
 C    0.0372654063    0.0410567779    0.0095169789
 C    0.7307824144   -0.5325656571   -1.2318051525
 N    0.9120034612   -1.9784451322   -1.1609780285
 C    1.2953881792   -2.6383372734   -2.3970656797
 C    0.8844275645   -2.7040049364    0.0016085137
 O    1.0888848132   -3.9065911064    0.0422922360
 C    0.5362004639   -1.9374642846    1.2816955904
 N    0.6250708447   -0.4822436357    1.2416203850
 H    1.0925522345    1.9414488546    0.0369537783
 H   -0.4114721134    1.9695241913   -0.8949975593
 H   -0.4642512297    1.9531377786    0.8814841933
 H   -1.0087736895   -0.2969323807   -0.0000708496
 H    0.1422674774   -0.3030114076   -2.1307944309
 H    1.7093597750   -0.0399640021   -1.3657246451
 H    2.2363320612   -2.2261838478   -2.7853184781
 H    1.4224953438   -3.6997310757   -2.1899245808
 H    0.5216635637   -2.5014747186   -3.1622878676
 H   -0.4894717428   -2.2274758777    1.5486485326
 H    1.1798617568   -2.3326919480    2.0710308834
 H    1.6004065876   -0.1981068002    1.2902842853