20

 C   -0.1479249000    1.4021274247   -0.3866754360
 C    0.0387582050   -0.0462341640    0.0482157431
 C    1.4115036665   -0.7055619868   -0.2124659647
 O    1.5780896263   -1.0333267833    1.1837368349
 C    0.3332747906   -0.3846527653    1.5381328691
 C    0.5454831438    0.7569979655    2.5191825881
 O    0.8339456071    0.2718176967    3.8274325892
 C    2.1140737188   -0.0855646768    4.0787364689
 N    2.4133331447   -0.5689895587    5.2051132681
 H    0.6721786909    2.0434880833   -0.0485038271
 H   -0.1839926253    1.4666766822   -1.4793248662
 H   -1.0847785384    1.8202154604   -0.0041166907
 H   -0.7871444723   -0.6510027402   -0.3344398931
 H    1.4105104614   -1.6012201178   -0.8441024481
 H    2.1933872214   -0.0213481915   -0.5689448710
 H   -0.3623624738   -1.1022526044    1.9911047415
 H    1.3465421329    1.4215450206    2.1722430387
 H   -0.3725506564    1.3443293748    2.6180641263
 H    2.7912514514    0.0916272113    3.2358141272
 H    3.4107905454   -0.7696120907    5.2371350018