19

 C    0.0134379391    1.3734166160   -0.1078614226
 O    0.0480197545   -0.0331672823   -0.0547580900
 C    0.6238335688   -0.5256132636    1.1321350755
 C    0.5774796754   -2.0489301064    1.0698241037
 C    1.3008379945   -2.7321133992    2.2528502670
 C    0.6356954138   -2.4761060584    3.6209454828
 C    1.3944755646   -4.1756444031    2.0059235556
 N    1.4582463325   -5.3136676295    1.8143293297
 H    1.0241702939    1.8091410714   -0.0630347149
 H   -0.4494529979    1.6526009316   -1.0571403118
 H   -0.5801728211    1.7994922384    0.7165439139
 H    1.6686927401   -0.1783406745    1.2298897323
 H    0.0752325195   -0.1433659025    2.0089676356
 H   -0.4656419429   -2.3807518269    1.0355091663
 H    1.0415995206   -2.3633739484    0.1301807930
 H    2.3318673243   -2.3549941124    2.2915526339
 H    0.6579207124   -1.4113160167    3.8646599115
 H   -0.4065748981   -2.8076879190    3.6105572637
 H    1.1577402459   -3.0175161345    4.4135218246