16

 O    0.0180571098    0.0507823121    0.0494984989
 C   -0.0362267967    1.2496139190    0.0624162874
 C   -1.2260062666    2.2101329207   -0.0320073845
 C   -0.8549457279    3.2515312126    1.0641523485
 C    0.2884249463    3.5461127153    0.0574403722
 N   -0.7176945010    3.2307708049   -1.0201630962
 C    1.1107990141    2.2685627587    0.1248752793
 C    2.4314706620    2.0176930069    0.7007896278
 O    2.2464880937    2.0918657946   -0.7175270959
 H   -2.2215857380    1.7930962495   -0.1676606955
 H   -1.5839728638    4.0612671260    1.0994422466
 H   -0.5960432201    2.8936893797    2.0623041169
 H    0.8149913206    4.4980964508    0.0043640085
 H   -0.2947053187    2.8186060195   -1.8546623754
 H    2.9892060554    2.8421999040    1.1430812904
 H    2.6588119110    1.0250460955    1.0858583710