19

 C   -0.6893309292    1.1141368168    0.1707197126
 C    0.0831651313   -0.1681710051   -0.0358187251
 C    0.9067245615   -0.4688596115   -1.2844643509
 C    1.3208469577    0.6863675096   -2.1942457081
 C    2.4753353073    1.3467816779   -1.3835505717
 O    2.2588446365    1.0127216317   -0.0254220921
 C    1.5877145305   -0.2258863679    0.0342932576
 C    3.8215579136    0.8407090064   -1.8889041750
 O    4.5385286675    0.0834799039   -1.2931884838
 H   -1.5849139463    1.1487512215   -0.4591589767
 H   -1.0125051039    1.1977217363    1.2134750624
 H   -0.0786534323    1.9932891034   -0.0472666473
 H   -0.4077880280   -1.0519135209    0.3661661144
 H    0.8501024300   -1.4621131659   -1.7129167094
 H    1.6567834748    0.3238117247   -3.1704649053
 H    0.5144023787    1.4026445810   -2.3739932765
 H    2.4705711753    2.4406811134   -1.4755472560
 H    2.1177723722   -0.9891447106    0.5929097242
 H    4.0858732128    1.2222322353   -2.9052717433