16

 C    0.2885326504    1.4929851972   -0.0152830055
 C   -0.1126695125    0.0095569972   -0.0450702375
 O   -1.5163808437   -0.1309110791   -0.0170529294
 C    0.5163432858   -0.7649921516   -1.2084257368
 C    1.8525334647   -1.2300693961   -0.6096084244
 O    1.6238883725   -1.3628397689    0.8125576994
 C    0.4977978273   -0.7110074269    1.1664005538
 O    0.0395152973   -0.7179579459    2.2754808879
 H    1.3725558946    1.6293874555   -0.0941010532
 H   -0.1922943095    2.0072845170   -0.8518011849
 H   -0.0464726003    1.9530041020    0.9186240224
 H   -1.7679469306   -0.1245919500    0.9175179817
 H   -0.1239151282   -1.6197634156   -1.4412578008
 H    0.6503610898   -0.1697857344   -2.1138167802
 H    2.1866255458   -2.2014465895   -0.9780308251
 H    2.6563547166   -0.5017884109   -0.7608933576