14

 N    0.0034529540    1.3325677961    0.0997225065
 C   -0.0487957349   -0.0230981595    0.0277887955
 N   -1.1460969990   -0.6773027452    0.0025883526
 C   -1.1185951830   -2.1192489788   -0.0180722321
 C    0.2181348784   -2.8472917366   -0.0160302117
 O    0.3330499601   -4.0484591539   -0.0230317339
 N    1.3401919486   -2.0177780373   -0.0102290470
 C    1.3345839797   -0.6406535221   -0.0012321231
 O    2.3500419314    0.0209231339   -0.0257029657
 H    0.8956289412    1.7692945198   -0.0635301769
 H   -0.8443326290    1.8531072584   -0.0461637201
 H   -1.6839277167   -2.5078787619    0.8397918629
 H   -1.6673057265   -2.4833477261   -0.8973137761
 H    2.2453878658   -2.4743382168   -0.0264080008