23

 C   -0.0549231730    1.6367354044    0.0982131863
 C    0.0251115543    0.1186381507   -0.0876590443
 C   -1.3531722869   -0.5519399339   -0.0412302653
 C   -1.3381859343   -2.0947878053   -0.0089379521
 C   -0.6342788880   -2.6951043165   -1.2299762103
 O   -0.5930572208   -2.5617333943    1.1243626832
 C   -2.7951310324   -2.6149632314    0.0839864102
 C   -2.8963221207   -4.1225453613    0.1848231663
 O   -3.6688780802   -4.7958995415   -0.4499204083
 H    0.9380724946    2.0944486820    0.0541832430
 H   -0.6703744874    2.1022043211   -0.6798441812
 H   -0.4980043885    1.8960814543    1.0664302066
 H    0.5127916259   -0.1014996689   -1.0441460810
 H    0.6600759006   -0.3218994893    0.6889100411
 H   -1.8881854838   -0.2047006658    0.8563957876
 H   -1.9595994127   -0.2197355461   -0.8937569574
 H    0.4115676797   -2.3838491304   -1.2637528896
 H   -0.6551065334   -3.7878042237   -1.1886619267
 H   -1.1268404017   -2.3787906198   -2.1540255598
 H   -0.9487377912   -2.1333338530    1.9112315905
 H   -3.2515785009   -2.1984660977    0.9954783932
 H   -3.3975673440   -2.2804938078   -0.7657235288
 H   -2.1957123852   -4.5804413157    0.9150705067