22

 O   -0.0930209244    1.2365999628   -0.9621768652
 C    0.0009354448    0.2723834357    0.0734336251
 C   -1.3205004329   -0.4320413687    0.2758986463
 N   -1.7102960129   -1.3077662661   -0.8535991797
 C   -1.4623110259   -1.8936913993    0.4830083049
 C   -0.2983356534   -2.8948428947    0.5924183812
 C   -0.8803832415   -4.1217034331    1.3417325434
 C   -2.4071708773   -3.9897387474    1.1895856377
 C   -2.6280272050   -2.4719841970    1.2841419218
 H   -0.4301904819    0.7571590167   -1.7288188633
 H    0.7875908677   -0.4653556420   -0.1412763404
 H    0.2904136287    0.8162911846    0.9791001126
 H   -2.1027999917    0.1994058580    0.6968333285
 H   -2.7108633737   -1.2321419371   -1.0225284251
 H    0.0366650069   -3.1577403338   -0.4142870654
 H    0.5630037750   -2.4753620012    1.1202878952
 H   -0.4927766929   -5.0694796646    0.9593953948
 H   -0.6155554192   -4.0726663710    2.4042871146
 H   -2.7217451854   -4.3504489428    0.2028284387
 H   -2.9642699293   -4.5558354353    1.9409706604
 H   -2.5535877169   -2.1534916935    2.3324713136
 H   -3.6014854785   -2.1362298103    0.9120724002