21

 O   -0.3051893937    1.3747496328    0.0317992452
 C    0.0285915051   -0.0053272695    0.0492314486
 C    0.7355654257   -0.4364498289   -1.2559269782
 C   -0.0392131673   -0.1609023933   -2.4582094015
 C   -0.6857167814    0.0568141035   -3.4473472842
 C    0.8675783306   -0.3683963245    1.2831331023
 C    0.1661779096   -0.0436981488    2.5838483495
 C   -0.7373383474   -1.0628728590    3.2333625035
 C    0.5868685126   -0.7100660058    3.8674015963
 H    0.5100005168    1.8770147932   -0.0815315973
 H   -0.9367500871   -0.5204403347    0.1076001695
 H    1.7084853978    0.0737038100   -1.3149960660
 H    0.9619673342   -1.5090258602   -1.1994651875
 H   -1.2578632246    0.2550314993   -4.3193189674
 H    1.1140340947   -1.4380324367    1.2531730766
 H    1.8267112854    0.1696962825    1.2254888661
 H   -0.1560320988    0.9899887906    2.6579181386
 H   -1.6475540786   -0.7189694701    3.7116806638
 H   -0.8266167613   -2.0365192911    2.7614933998
 H    1.3821075480   -1.4473735105    3.8198622900
 H    0.5822598496   -0.1243336289    4.7800959324