16

 N   -0.0693740902    1.2787185123    0.0106880634
 C   -0.0161760490    0.0204465463    0.0036714533
 O    1.1413634330   -0.7186441134   -0.0071700469
 C    0.8401283352   -2.1300415698   -0.0129661697
 C    0.0169715778   -2.4375365562    1.2362210446
 O   -1.2036211800   -1.6904830219    1.1675548947
 C   -1.2333470353   -0.8858748657    0.0061758303
 O   -1.2177272252   -1.6781211254   -1.1639368220
 C    0.0020259192   -2.4241026970   -1.2554286824
 H    0.8706225181    1.6818607017    0.0072144321
 H    1.7942496220   -2.6584389525   -0.0215414849
 H   -0.2197924717   -3.5073169433    1.2879288242
 H    0.5688773373   -2.1523235193    2.1397592986
 H   -2.1601820670   -0.3180572852    0.0147954956
 H    0.5430226828   -2.1289444694   -2.1623689067
 H   -0.2352721770   -3.4932983012   -1.3159501140