15

 O   -0.0355574653    1.5104675010   -0.0419860229
 C    0.0683345344    0.1067655371   -0.0281109467
 C    0.0707163932   -0.5989455319    1.3457036929
 C   -1.4677415079   -0.3906014955    1.5149438531
 O   -1.7523842001   -1.7920423775    1.7955317992
 C   -0.7138406904   -1.8302324348    0.7616171878
 C   -0.2202982574   -3.0738077588    0.2655093783
 C    0.2078756549   -4.1125239627   -0.1628816010
 C   -1.2928394252   -0.5960380639   -0.0228326689
 H    0.8456702963    1.8822909167    0.0631676026
 H    0.7981413389   -0.2626120183   -0.7597193792
 H    0.8245432735   -0.6359215339    2.1317437609
 H   -2.0158306506    0.3723628413    2.0599235129
 H    0.5802851590   -5.0341142319   -0.5375420614
 H   -2.0731664932   -0.6235584669   -0.7816187275