15

 C   -0.2424475705    1.5045787132    0.1026323681
 C    0.1139305918    0.0388079935    0.0258221279
 O    1.2635816131   -0.2137262770   -0.8646480239
 C    2.0582185803   -0.6503917392    0.1599929949
 O    3.2013743515   -0.9637573134    0.1337107809
 C    0.9201471875   -0.5689501793    1.1992707858
 O    1.1551708554    0.2709754770    2.3018721367
 C    1.0221417473   -0.2476634238    3.5507601530
 O    1.1997966414    0.4024835120    4.5300320193
 H    0.6058389952    2.0992100129    0.4482261673
 H   -0.5522335706    1.8642227177   -0.8820319551
 H   -1.0720324216    1.6506656084    0.8011525794
 H   -0.7279750073   -0.5754113147   -0.3034143030
 H    0.5758881691   -1.5597776120    1.5164582764
 H    0.7341251873   -1.3162289654    3.5371019623