18

 N   -0.1307401661    1.1669874859    0.8497432355
 C   -0.0970744198    0.0877101042    0.2157937608
 C   -1.1081375268   -0.9869949530   -0.1232513312
 C    0.0844409965   -1.6624253724   -0.8346990301
 C    0.0283125421   -1.8114556674   -2.3425592467
 C    1.4027471560   -2.1472730249   -2.9472620533
 C    1.3733550030   -2.1219812553   -4.4583330630
 O    1.6966799424   -3.0357645145   -5.1712060359
 O    0.9503857246   -0.5436206020   -0.4305844171
 H    0.7849657657    1.6192048584    0.8655746266
 H   -1.5190209352   -1.5153257435    0.7380330291
 H   -1.9221890364   -0.6611428690   -0.7738501331
 H    0.4390673694   -2.5808379312   -0.3561229467
 H   -0.6956426106   -2.5987150512   -2.5874013406
 H   -0.3530295462   -0.8780557508   -2.7760621261
 H    2.1195278095   -1.3848763164   -2.6122754208
 H    1.7615858911   -3.1270813901   -2.6191248215
 H    1.0126413107   -1.1581416368   -4.8902965857