16

 O    0.0311107222    1.4227706353   -0.0128565303
 C   -0.0287177753    0.0419062866   -0.0658489065
 C   -0.4433912198   -0.6466666011   -1.3434082611
 C   -1.2801367793   -0.8051025164   -0.0934047126
 N   -1.1235959506   -1.9863403310    0.7898362522
 C   -0.1660403990   -3.0013650885    0.3687959576
 C    0.2439301719   -1.9499908183    1.3489799796
 C    0.8911174885   -0.6690987703    0.8992935149
 O    1.8521061676   -0.1288345791    1.3955776940
 H    0.8261581198    1.6252612068    0.5029284810
 H   -0.8555172530    0.0399681454   -2.0763020133
 H    0.1304352788   -1.4571376499   -1.7757402165
 H   -2.2746552882   -0.3761593869   -0.0737250678
 H   -0.3658435344   -3.9979924660    0.7523873996
 H    0.2467470590   -2.9871697546   -0.6329474928
 H    0.3784548518   -2.2022066121    2.3964500820