17

 O    0.0462838770    1.4596129939   -0.1385335454
 C   -0.0080957341    0.0866857028   -0.3895619649
 C   -1.2729171931   -0.5199077393    0.1937998394
 O   -2.0552226258    0.2082070593    0.7796920850
 C   -1.5675378467   -1.9853765992    0.0595620381
 C   -2.3619699523   -2.6042018578    1.2322637253
 C   -3.0679516260   -2.3465203253   -0.0317032546
 C   -0.6554981822   -2.9214237496   -0.6416844542
 O    0.3908506241   -2.6395822189   -1.1714855866
 H   -0.7633085058    1.6633465869    0.3550813012
 H    0.0197871395   -0.1338473825   -1.4671695030
 H    0.8597130084   -0.4412610806    0.0332396126
 H   -2.1073426343   -3.6237253487    1.5001224587
 H   -2.5267470712   -1.9222478424    2.0571926028
 H   -3.7226046987   -1.4854907977   -0.0843710072
 H   -3.3231013908   -3.1799157799   -0.6769298891
 H   -1.0302737981   -3.9718019410   -0.6444965583