15

 C    0.0183363180    1.4571656170   -0.0064379956
 C    0.0317007552   -0.0347115981   -0.0165020845
 N    0.0120813786   -0.7957386942   -1.1021885537
 C    0.0348594346   -2.0821070777   -0.6502611236
 O    0.0237196247   -3.1381703448   -1.5005583930
 C    0.0689013227   -2.1423461448    0.7200448783
 N    0.1018494497   -3.1687058115    1.6834557589
 N    0.0659818006   -0.7996930319    1.1019483908
 H    0.9106201821    1.8725121558    0.4766319214
 H   -0.0098504591    1.8117727066   -1.0376255369
 H   -0.8569719803    1.8563892905    0.5193934505
 H   -0.0013834140   -2.7620038597   -2.3884928160
 H    0.9210530527   -3.7586889893    1.5785967684
 H   -0.7107732550   -3.7733826862    1.6187748362
 H    0.0865744894   -0.4901009019    2.0594972888