14

 C   -0.0120246201    1.5221082274    0.0075424271
 C   -0.0005709362    0.0153218107    0.0138985095
 C   -0.0926816001   -0.7178452842   -1.1719273045
 N   -0.0892556610   -2.0509490473   -1.2449476125
 C    0.0097000188   -2.7251330751   -0.0979990643
 C    0.1074597215   -2.1055585234    1.1457755625
 C    0.1019229354   -0.7178126805    1.1982479193
 H    0.9049915869    1.9308586442    0.4463570058
 H   -0.0980719955    1.9120791819   -1.0101281439
 H   -0.8514583613    1.9180400231    0.5899344032
 H   -0.1743850033   -0.1898325290   -2.1209791477
 H    0.0110658604   -3.8099182927   -0.1753229288
 H    0.1859490664   -2.7001388753    2.0495058276
 H    0.1766158279   -0.2029549197    2.1521814168