15

 C   -0.0553577247    1.4031828442    0.1363987956
 N    0.0123157153   -0.0314900226   -0.0521707936
 C   -1.0525052461   -0.6835019235    0.0223360885
 O   -1.0337178972   -2.0349973297   -0.1749699881
 C   -2.2766428762   -2.7026451025    0.0166260705
 C   -2.2440616342   -3.9830080570   -0.6810270167
 C   -2.2483177843   -5.0339951091   -1.2576846709
 C   -2.5578008902   -2.8898690122    1.4603233289
 N   -2.7876888055   -3.0001500561    2.5863418601
 H    0.5931403095    1.6882846827    0.9715083949
 H    0.3329883403    1.9049474238   -0.7563739249
 H   -1.0700994067    1.7816801920    0.3371998089
 H   -2.0504187136   -0.2674124760    0.2283087996
 H   -3.0959855880   -2.0920350364   -0.3936795846
 H   -2.2418667183   -5.9670851376   -1.7666182682