19

 C   -0.0728152581    1.4736503434   -0.3451744893
 C   -0.0311872779    0.0448265560   -0.0678024585
 C    0.0145968628   -1.1361645572    0.1614410069
 C    0.0354699011   -2.5701136897    0.4386008108
 C   -1.3367467516   -3.2061515872    0.2387609554
 C   -1.7549650255   -3.7677779606   -1.0735594775
 C   -1.5334250210   -4.7178109751    0.1023368447
 C   -0.3881085750   -5.6523435212    0.0551882649
 O   -0.3825616274   -6.7481938901    0.5609137149
 H    0.8923309929    1.8342591718   -0.7177411699
 H   -0.8283318775    1.7101778125   -1.1026144321
 H   -0.3154456815    2.0487887781    0.5551933710
 H    0.7774100562   -3.0560424580   -0.2060888154
 H    0.3720953281   -2.7435580958    1.4693451922
 H   -2.1159931001   -2.7248557655    0.8219995296
 H   -2.7735563690   -3.6344798147   -1.4184904933
 H   -1.0131852505   -3.7972318237   -1.8665120306
 H   -2.4086371333   -5.1360095446    0.5877301254
 H    0.4983810375   -5.2832032683   -0.5113269092