23

 C    0.0170642132    1.4819425271   -0.0606509325
 C    0.0947422750   -0.0413091226    0.0517868425
 C    0.7161297951   -0.5388955336    1.3793054160
 C   -0.0742329274   -0.1166896687    2.5389947526
 C   -0.7429303083    0.2124353360    3.4857107310
 C   -1.5393089940    0.6109776046    4.6383539646
 C    0.9000355562   -2.0533577484    1.3678877954
 C    2.1141014449   -2.6606629909    0.7127879333
 C    1.9602748827   -2.7011486442    2.2149025085
 H    1.0139315454    1.9341722333   -0.0044830040
 H   -0.4308900296    1.7829572968   -1.0127080785
 H   -0.5861582635    1.9045348438    0.7481260525
 H   -0.9079949619   -0.4744861083   -0.0466918432
 H    0.6956393215   -0.4485186029   -0.7697538921
 H    1.7166089736   -0.0868453065    1.4645655990
 H   -1.5795385716   -0.1856794471    5.3897330690
 H   -1.1224175633    1.5007890804    5.1234688684
 H   -2.5704938793    0.8451291264    4.3510140368
 H   -0.0319844685   -2.6024980859    1.2634509308
 H    1.9956084114   -3.5822610598    0.1536531337
 H    2.8577033751   -1.9861785554    0.2995959416
 H    2.5979489987   -2.0525900793    2.8067940184
 H    1.7364254047   -3.6512981047    2.6869095563