15

 O    0.2187402196    1.3853516570   -0.0140898801
 C    0.1307055351    0.0001114099    0.1384617840
 C   -0.0142871886   -0.4019702257    1.6124484196
 O   -1.3186748013   -0.9857542104    1.3869992154
 C   -1.2887317697   -0.6598424990   -0.0192693800
 C   -2.3524810385    0.2144782107   -0.4664493826
 C   -3.2135783683    0.9515790263   -0.8866071585
 C   -4.2584557877    1.8283319634   -1.3473103189
 O   -4.2582365059    2.3827712838   -2.4226887255
 H    0.1272622217    1.6059709612   -0.9476569493
 H    0.9090573319   -0.5319596453   -0.4214458040
 H    0.7038855518   -1.1385571208    1.9871520260
 H   -0.0573301075    0.4600502314    2.2861919627
 H   -1.2848092936   -1.5713177631   -0.6331194837
 H   -5.0866890791    1.9626344505   -0.6228865450