19

 O    0.4734856407    1.2140555888   -0.3239193364
 C    0.1033462696   -0.1006098788   -0.0143057792
 C    0.1895217387   -0.4788385404    1.5398448389
 C   -1.3390335680   -0.1235961240    1.6213741645
 C   -2.7631962183   -0.8106978093    1.6011829725
 C   -2.9353774827   -0.0649973818    0.1859094680
 C   -1.4247445245   -0.4196918509    0.1432822246
 O   -1.4651815614   -1.8752829391    0.0928431456
 C   -2.4185372586   -2.2103399472    1.1179862037
 H    0.0315765037    1.8142644560    0.2864891692
 H    0.6385530635   -0.7462631330   -0.7122891175
 H    0.4406183438   -1.5267411508    1.6943099689
 H    0.8568661438    0.1553306392    2.1288183820
 H   -1.4645461950    0.9413659689    1.8335128457
 H   -3.4913778537   -0.7010809620    2.4051697813
 H   -3.6063937843   -0.5215473167   -0.5462529237
 H   -3.1413008448    0.9994434337    0.3024405674
 H   -1.9506294880   -2.8375028212    1.8865299523
 H   -3.2696854945   -2.7509487413    0.6872255422