18

 C    0.2069357846    1.5844343472   -0.0315629302
 C    0.0302564176    0.0610924602    0.0072151938
 C    0.5795109497   -0.6011657520   -1.2366192315
 O    2.0013076065   -0.8020623367   -1.2811392428
 C    1.1532435123   -1.9450033950   -1.1772955193
 C    1.1766897119   -2.6946205729    0.1323304821
 N    1.0558835413   -1.8086874006    1.2728512838
 C    0.6130487193   -0.5160628513    1.3050875184
 O    0.6450111439    0.1324363899    2.3347667407
 H    1.2649058514    1.8426932861   -0.1335970203
 H   -0.3358659479    2.0120188314   -0.8802014734
 H   -0.1634383447    2.0283317976    0.8926402096
 H   -1.0467938964   -0.1655080039    0.0399286077
 H    0.1525783245   -0.2532203874   -2.1780173882
 H    1.1286540837   -2.5820715134   -2.0612644895
 H    0.3650780153   -3.4388619936    0.1102903753
 H    2.1168984284   -3.2540556480    0.2152641984
 H    1.4289448386   -2.1219622875    2.1569027954