18

 O    0.0060729844    0.0542624667   -0.0616573932
 C   -0.0157292681    1.2522131047    0.0306941282
 C   -1.2083383407    2.1971410254    0.0609820916
 C   -0.7421814037    3.2540491804    1.0752289650
 N    0.7495403606    3.2056734238    1.0337616082
 C    1.1500767165    2.2348421919    0.0140708867
 C    1.1309500535    2.8281824277   -1.4278881592
 O   -0.0705910640    3.5473923890   -1.6477794276
 C   -1.2408361781    2.7965427054   -1.3765289636
 H   -2.1523713777    1.7034779516    0.2950378361
 H   -1.1174403155    4.2508725914    0.8216038590
 H   -1.0964006982    3.0076071619    2.0831865245
 H    1.1250422499    4.1235998543    0.8294578113
 H    2.1122261957    1.7618970744    0.2258841891
 H    1.9446192622    3.5489299032   -1.5588691878
 H    1.2603832883    2.0208482207   -2.1668104441
 H   -1.3697500252    1.9842827720   -2.1092479150
 H   -2.0780580797    3.4931440855   -1.4795265394