17

 C    0.0998630997    1.6269251144    0.0008136953
 C    0.0908362550    0.1261602920   -0.0029670158
 C    0.4478051821   -0.8668290227   -1.1418811902
 C    0.7092631406   -1.8706146563   -0.0759098642
 C    0.7794713947   -0.7798667065    1.0684778540
 C   -0.3149388804   -0.7992757587    2.1987207603
 N   -1.5287207199   -1.1545835400    1.3863559876
 C   -1.1371813079   -0.8001381236    0.2283459476
 N   -0.6863208021   -1.7513935655   -0.7881778756
 H    1.1141229698    2.0197730653   -0.1307994133
 H   -0.5232858153    2.0298478783   -0.8045356983
 H   -0.2909460800    2.0165017248    0.9463327847
 H    0.8283703436   -0.7527928550   -2.1476199078
 H    1.1668510361   -2.8504848594   -0.1153791943
 H    1.8113567276   -0.5576981801    1.3577900388
 H   -0.1995810374   -1.5884499889    2.9480885710
 H   -0.3370209861    0.1639942719    2.7301172501