17

 C    0.0055354748    1.4573451262   -0.0195510639
 O    1.4591264682    1.4046521765   -0.0445539290
 C    1.4764455520   -0.0026068868    0.3368248342
 C    1.7338468755   -1.0083865301   -0.7597328099
 C    0.6332953676   -2.0882369555   -0.6569960914
 C   -0.2584891557   -2.1756463057    0.5963696098
 O   -0.8904801700   -0.8800683423    0.7222162755
 C   -0.0409505132   -0.0584379787   -0.0177410978
 C    0.3365048794   -0.7925160491   -1.3251015938
 H   -0.3656310022    1.9107552815    0.9091789363
 H   -0.4098267651    1.9846936152   -0.8841617442
 H    1.8912539344   -0.1372365948    1.3399933252
 H    2.6521024900   -1.2026942440   -1.3021635924
 H    0.7937918022   -2.9834803191   -1.2453293858
 H   -1.0431726707   -2.9292258093    0.4783244276
 H    0.3067502401   -2.3975040343    1.5103592652
 H   -0.0207995374   -0.6223214397   -2.3311655954