20

 C    0.0541608502    1.4881769189    0.1224164653
 C   -0.1180847448   -0.0129876893   -0.1401798665
 C    0.6527977871   -0.4849331516   -1.3445498879
 C    0.1320928263   -0.2950935837   -2.8422309070
 C    1.2224358406   -1.3302386553   -3.1412254363
 C    2.4293643893   -0.8036410432   -3.4288428832
 C    3.1823693785   -0.6456541763   -2.1138863034
 N    2.1254652918   -0.8467427055   -1.0788005422
 C    1.2172153050   -1.8106205751   -1.6711581480
 H    1.1064618418    1.7266513876    0.3043266201
 H   -0.2841190979    2.0851786539   -0.7313389481
 H   -0.5221282560    1.8022264204    0.9979294667
 H    0.2139742592   -0.5835909353    0.7327626439
 H   -1.1801228815   -0.2461187727   -0.2933280658
 H   -0.9093856321   -0.6381631763   -2.8662562573
 H    0.2206823347    0.6745880488   -3.3393339976
 H    2.5788384299   -0.0893319567   -4.2338813168
 H    3.9893695421   -1.3555374670   -1.8886962635
 H    3.6094852641    0.3633919608   -2.0703708525
 H    1.0349659918   -2.7993698923   -1.2639593196