17

 N    0.6654460251   -0.3910293156    1.3101410131
 C    0.0487804441    0.0958555882    0.0763688925
 C    0.7255111656   -0.3798761818   -1.2325519590
 C    0.0431049818    0.1321287435   -2.5294552319
 N   -0.0989810637    1.5788431036   -2.6726647081
 C    0.7879611763   -0.3990137536   -3.6848377203
 N    1.4063753960   -0.8296481712   -4.5602940886
 C   -1.3789235909   -0.2678530311    0.0711753600
 N   -2.4956935484   -0.5581120051    0.0103334175
 H    0.6939909271   -1.4067388236    1.3114534134
 H    1.6264565567   -0.0663934040    1.3575819157
 H    0.0901308681    1.1914940804    0.1091997361
 H    1.7661587449   -0.0357213175   -1.2118051647
 H    0.7464050211   -1.4754185281   -1.2465059013
 H   -0.9668656210   -0.2928343043   -2.5764784744
 H   -0.8036947586    1.9364311776   -2.0384387168
 H    0.7761314756    2.0601716328   -2.4932427931