13

 N    0.3256503349    1.2362756945   -0.1188922546
 C    0.0186537184    0.0138365208   -0.0177978143
 N   -1.2911599275   -0.4620780244    0.0309960239
 C   -2.4598611396    0.2645713359   -0.0219030245
 O   -2.5973160265    1.4482029461   -0.1180381563
 O   -3.4914564377   -0.6571475647    0.0591080808
 C   -4.7712106619   -0.1667284440    0.0276585251
 N   -5.7179146408   -0.9910999445    0.1005291399
 H    1.3390427725    1.3372548244   -0.1350622420
 H    0.7226133462   -0.8245966916    0.0446488722
 H   -1.4164942954   -1.4588176877    0.1124026086
 H   -4.8024247666    0.9196006326   -0.0600099813
 H   -6.6075153259   -0.4955782974    0.0663076125