18

 O    0.3611458589   -0.0404615868    0.0528048728
 C    0.1020120155    1.1400750431    0.0411937528
 C   -1.2307920305    1.7754776038    0.0059842498
 C   -1.1087991053    3.1079120102    0.0452868454
 C    0.3218790451    3.5771036321    0.1225328591
 C    1.1543154283    2.2810231215    0.0484617846
 N    2.0475570241    2.1334688802    1.1864386355
 C    3.1025910522    1.1334519416    1.0516570722
 C    3.4280736533    2.5845944581    1.0015147926
 H   -2.1481699757    1.2026527144   -0.0345562620
 H   -1.9373398934    3.8087024225    0.0318225887
 H    0.5550931257    4.2854393739   -0.6807337801
 H    0.5125254076    4.0961542979    1.0690575819
 H    1.6954323920    2.2223426663   -0.9135249697
 H    3.3096335563    0.5516540888    1.9444515779
 H    3.1513399393    0.5698864807    0.1240912411
 H    3.7021055715    3.0030595039    0.0342223282
 H    3.8769266452    3.0827523378    1.8557189692