22

 C    0.0162726816    1.4640272870   -0.3240607028
 C   -0.0359784278   -0.0401337189   -0.0703146942
 C    0.6773677009   -0.4845477483    1.1806773346
 N    2.1878004182   -0.1314304599    1.1822888315
 H    2.2310213940    0.8350571078    0.8495111220
 C    2.7724164219   -0.1862371249    2.5519326188
 C    2.9570922887   -0.9730515570    0.2211033459
 C   -1.5640673582   -0.5776948864    0.0875114138
 O   -2.3890046308    0.0609871283   -0.5686505079
 O   -1.6519709281   -1.5643418574    0.8429657107
 H    0.9874597737    1.8371352157   -0.6927235047
 H   -0.7473591210    1.6923367407   -1.0711102403
 H   -0.2447876004    2.0293736374    0.5800471593
 H    0.3523329165   -0.5820476137   -0.9434554197
 H    0.2743452794    0.0225645831    2.0609219408
 H    0.5909835155   -1.5604028073    1.3287849442
 H    2.6533239612   -1.2012052983    2.9339522686
 H    3.8307525186    0.0792284659    2.5169403490
 H    2.2307757678    0.5097191158    3.1927505597
 H    3.9956901205   -0.6394287593    0.1931888437
 H    2.9027169116   -2.0094235894    0.5574424423
 H    2.5009396061   -0.8828015607   -0.7632296552