17

 C    0.1067632914    1.6480497349    0.0267271541
 C    0.0571595000    0.1291252537    0.0121680304
 C    1.0621301427   -0.6400325303   -0.8907738770
 C    1.2487678706   -1.6854522226    0.2412721594
 O    2.5913819976   -2.0668514587    0.4225022141
 C    0.6249177987   -0.6482229816    1.2333605973
 C    0.3887663895   -2.8679962726    0.0732433561
 N   -0.2758772854   -3.8088373795   -0.0275742494
 H    1.1207593671    2.0065852769    0.2364440151
 H   -0.2018468583    2.0631209490   -0.9388681253
 H   -0.5591413209    2.0589930956    0.7932213270
 H   -0.9622338557   -0.2100123368   -0.1980187223
 H    0.7295466234   -1.0030162343   -1.8639353210
 H    2.0041413440   -0.0962045820   -1.0039556592
 H    2.6396905608   -2.7133736910    1.1363543398
 H    1.4420574450   -0.1033644027    1.7151968894
 H   -0.0701446105   -1.0179259780    1.9892513614