18

 C    0.0370385564    1.5306713880   -0.1981621212
 C   -0.0643434546    0.0432317137    0.0581370543
 C   -1.2075064638   -0.6497094051   -0.6528877082
 O    1.1816626070   -0.6883613252    0.0306483991
 C    0.4868259362   -0.5922621160    1.2687203782
 C    1.1687899904    0.1775074875    2.3926854119
 O    0.2365834406    0.6439380713    3.3515228144
 C    2.2118137935   -0.6592301717    3.0225347379
 N    2.9903844715   -1.3381313603    3.5401167183
 H    0.9415407221    1.9652086008    0.2298484475
 H    0.0580601556    1.7194997263   -1.2764447309
 H   -0.8313151510    2.0514460707    0.2178224326
 H   -1.1175159712   -0.5139235440   -1.7357491148
 H   -1.2087208726   -1.7216824344   -0.4420261177
 H   -2.1689633919   -0.2288313025   -0.3404290710
 H    0.0290190858   -1.5255368947    1.6077523776
 H    1.6549672822    1.0662032724    1.9844896002
 H   -0.1266546161   -0.1159600770    3.8211243817