19

 C   -0.1504688091    1.4049778988   -0.0990686233
 C    0.1767297552   -0.0728725977   -0.0322028943
 C    1.5489583931   -0.6825801360   -0.1483586445
 C    0.7522843966   -0.8026813588    1.1510707464
 C    1.7847564930    0.0595776713    1.9172533923
 C    2.5006050172   -0.7069950663    2.9903144833
 O    3.0838112585   -1.7530716508    2.8005274166
 C    2.6207633227    0.1647044198    0.5532603263
 O    3.9028058534   -0.3816935342    0.5689556297
 H    0.5886432950    2.0278127522    0.4109784833
 H   -0.1976559201    1.7413836245   -1.1402218718
 H   -1.1241501923    1.6067883884    0.3602178352
 H   -0.5668878497   -0.6889428119   -0.5361169912
 H    1.7908699626   -1.4434898507   -0.8813235674
 H    0.2756760912   -1.6756098016    1.5810572712
 H    1.4073281510    1.0008795638    2.3277998325
 H    2.4737438933   -0.2655565526    4.0095260206
 H    2.7321302019    1.1911719610    0.1906937164
 H    3.8544486864   -1.2306286991    1.0352027189