15

 O    0.0086844711   -0.0349150823    0.4094326035
 C   -0.0216054149    1.1539926671    0.1611550245
 C   -1.3380067417    1.8760730930   -0.0948901521
 C   -1.2361460239    3.3364726803   -0.3883897262
 C   -0.0707659563    3.9916023175   -0.4293499657
 C    1.2577347564    3.3218071020   -0.1833620915
 N    1.1152196918    1.9075913888    0.0975419376
 C   -0.0149003251    5.3900122211   -0.7138001771
 N    0.0678341530    6.5225411436   -0.9411286912
 H   -1.8414551544    1.3520853375   -0.9176341084
 H   -1.9791329818    1.7026672557    0.7790753236
 H   -2.1584958199    3.8783085820   -0.5750819049
 H    1.9012680960    3.4722513712   -1.0623563660
 H    1.7624878055    3.8269190357    0.6529830265
 H    1.9591287143    1.3814559967    0.2747908675