16

 C   -0.0374692899    1.4802032596    0.0026246594
 C    1.4368486831    1.8890163094   -0.0369943413
 N    2.1881143766    1.4898462243    1.1645559621
 C    2.2801770353    0.6560629232   -0.0705728532
 C    1.3354126311   -0.4766519034   -0.0524363631
 C    1.2015005878   -1.8402484192   -0.0509099520
 N   -0.1318334420   -2.1814610356    0.0268847806
 C   -0.7940780958   -1.0421033973    0.0789712638
 N    0.0506484530    0.0211219321    0.0248653718
 H   -0.5433564914    1.8605525979    0.8949764200
 H   -0.5730451684    1.8280725650   -0.8873651527
 H    1.7104689065    2.7944615815   -0.5668780950
 H    3.0233682752    2.0683351610    1.2372605980
 H    3.2173771579    0.6068181463   -0.6110586890
 H    1.9715102122   -2.5945933042   -0.0984668898
 H   -1.8663533111   -0.9380076605    0.1495160305