22

 C   -0.0360821934    1.5105345131    0.0302860420
 C    0.0606659086   -0.0221360532    0.0191801992
 C    0.6773067552   -0.5349573201   -1.2930153294
 C    0.7176183448   -2.0535824910   -1.4080489136
 O    1.2247278883   -2.3682969163   -2.6956987988
 N    0.7521937043   -0.5366639194    1.2050504746
 C    2.1515851024   -0.2126767978    1.4355159069
 C    0.0867966151   -1.2823041774    2.1356691302
 O    0.5602627175   -1.7325476156    3.1584978707
 H    0.9460911880    1.9791002273   -0.0852470117
 H   -0.6633275891    1.8535233309   -0.7978105355
 H   -0.4773063490    1.8638723140    0.9665767711
 H   -0.9593193391   -0.4211071761    0.0866817624
 H    0.0883293092   -0.1409763619   -2.1287146868
 H    1.6917539018   -0.1403062184   -1.4221962121
 H    1.3501966299   -2.4774551034   -0.6140379033
 H   -0.2968222136   -2.4633754352   -1.2664497334
 H    1.3080957349   -3.3240372217   -2.7603915864
 H    2.3028208669    0.8682861596    1.5247230792
 H    2.4438579868   -0.6919089096    2.3698604931
 H    2.7865989535   -0.5868227746    0.6253029293
 H   -0.9709096728   -1.4434308232    1.8477691024