18

 C    0.3148418375    1.4498614541   -0.1718716905
 C   -0.0633648441   -0.0086820396    0.1365683094
 C    0.6028973125   -0.5422775702    1.3588786540
 N    0.0369103186   -0.9434126389    2.4594079927
 C    1.0901026488   -1.3182561159    3.2793896754
 N    0.8572997264   -1.8719104137    4.5312903499
 C    2.2704160212   -1.1188207419    2.6353442755
 N    3.5894002787   -1.3288874201    3.0171640828
 O    1.9474120031   -0.6186792883    1.3654599643
 H    1.3943080454    1.5505047144   -0.3140704655
 H   -0.1832231621    1.7903093317   -1.0842672218
 H    0.0173317521    2.1122351840    0.6465874177
 H   -1.1403789885   -0.1046922898    0.2937478666
 H    0.1993105245   -0.6411204458   -0.7207211595
 H    0.0283593352   -1.4931774072    4.9692680562
 H    1.6633574904   -1.8111773768    5.1389157135
 H    4.0487463488   -2.0765117479    2.5057834359
 H    4.1650492214   -0.4955844882    2.9507495235