16

 C   -0.0767657788    1.5042862282    0.0201446133
 O   -0.0225721386    0.0777065054   -0.0833301811
 C   -1.2559596894   -0.5649330038    0.0009368515
 C   -1.0828294730   -2.1121118113    0.1504203477
 N   -1.8522603012   -2.0138714639    1.3975949302
 C   -1.8975983913   -0.6314141451    1.4184673985
 N   -2.2422413757    0.2886335291    2.2096373605
 C   -2.1867525136   -0.1603941802   -1.0654122632
 N   -2.9075191126    0.1594467386   -1.9100611672
 H    0.9595090478    1.8431423709   -0.0192076450
 H   -0.6330021153    1.9369973942   -0.8206421165
 H   -0.5402053173    1.8116107536    0.9620194162
 H   -1.5451190855   -2.7310632478   -0.6212394847
 H   -0.0258863390   -2.3641402469    0.2732409601
 H   -1.8294805235   -2.6435405812    2.1858052884
 H   -2.5585591631   -0.0704766798    3.1120139914