13

 N    0.0776969981    1.4939238809    0.1091510662
 C    0.0256786214    0.0484587678    0.0067299848
 C   -1.3988408926   -0.5634661876   -0.1494874209
 O   -1.0124391903   -1.1700075602   -1.4177313662
 C    0.2501726523   -0.6258317583   -1.3667454136
 N    1.1998028184   -0.6248796530   -2.1771767787
 C    0.8172178545   -0.5593493548    1.0763408238
 N    1.4394751541   -1.0507026155    1.9160728310
 H    1.0450896396    1.8020382852    0.1483983230
 H   -0.3272661647    1.9083391711   -0.7259703489
 H   -1.6930925149   -1.3153584102    0.5831427790
 H   -2.1817104123    0.1862269455   -0.2845590446
 H    0.9850296165   -1.1400882708   -3.0321696849