19

 C    0.1657203064    1.5243061698    0.0195295394
 N    1.2969048510    0.5972924895   -0.0645657395
 C   -0.0719646332    0.0480369942    0.0382263183
 C   -0.4187419291   -0.6898110487    1.2669238757
 C   -1.3558222099   -1.6382511899    1.3923440791
 C   -1.4819388123   -2.1570287888    2.8102600137
 C   -0.3728284660   -1.4106309351    3.5453496448
 N    0.9792450151   -1.7179079687    3.0330634878
 C    0.2762662971   -0.4851869635    2.5775897326
 H    0.1083535316    2.0949379418    0.9426173000
 H   -0.1446533000    2.0715439766   -0.8672231701
 H    1.6304120053    0.5270588460   -1.0217900606
 H   -0.5169696163   -0.3576320697   -0.8684929695
 H   -1.9538753447   -2.0284861033    0.5754499849
 H   -2.4686557244   -1.9328880831    3.2379631067
 H   -1.3470194274   -3.2439236730    2.8681946208
 H   -0.4898376048   -1.1583606546    4.5938125021
 H    1.6574931579   -1.4526393112    3.7458521238
 H    0.6907212938    0.4773341817    2.8541729200