19

 C   -0.0640418733    1.5976219068   -0.1005604887
 C    1.4225415962    1.9265190725    0.0833563655
 O    2.4147054059    1.9153559749   -0.9751731813
 C    2.1723643193    0.7131879237   -0.2504154686
 C    1.1842537524   -0.2405111183   -0.9315301497
 C    0.0005117099    0.0344843216    0.0121895737
 C    0.4858069142   -0.4333057214    1.3906150553
 C    1.7784362376   -0.4779154250    1.7513305971
 C    2.9225123730    0.0574691592    0.8813776914
 H   -0.6621587702    2.0713140021    0.6822980465
 H   -0.4710289422    1.9002778306   -1.0711022523
 H    1.7169139771    2.5455166352    0.9266601540
 H    0.9907078395    0.0765393361   -1.9590270862
 H    1.5104479713   -1.2828143287   -0.9223753301
 H   -0.9399347985   -0.4592673645   -0.2537420943
 H   -0.2681446338   -0.7785059897    2.0935711079
 H    2.0495492950   -0.8682820569    2.7292758622
 H    3.6030472088   -0.7464997989    0.5706250586
 H    3.5159914579    0.7829112309    1.4507373789