14

 C    0.1097491850    1.5552336412   -0.0056606551
 O    1.2518007822    0.6782774731   -0.0356108639
 C   -0.0243360031    0.1001136502    0.0119671892
 C   -0.5101477066   -0.8611242149    1.1492781998
 N   -1.0238650319   -1.6791985209    0.0238414772
 N   -1.7154339839   -2.7437604555   -0.3916347963
 N   -1.7216493233   -2.6365127934   -1.7048720431
 C   -1.0580291998   -1.5115421538   -2.1156824833
 C   -0.6030627410   -0.8831690820   -0.9763052913
 H   -0.0193307448    2.1201996090    0.9157177626
 H   -0.0827080183    2.1003765058   -0.9273313235
 H    0.2890369335   -1.3446530505    1.7135284483
 H   -1.2917116651   -0.4845462645    1.8114944792
 H   -0.9650584329   -1.2685881838   -3.1601363298