18

 C   -0.0563756727    1.4824185288   -0.3016281606
 N    0.0292565242    0.0524262903   -0.0565175868
 C   -1.1893373711   -0.6760060618    0.2802213746
 C   -1.2102443291   -2.0537676311   -0.3852907173
 C    0.0820426135   -2.8307785864   -0.1592848516
 O    0.1979758931   -3.9955506491   -0.4483925534
 C    1.2173010153   -2.0194159259    0.4490319965
 C    1.2584024323   -0.5483391258    0.0352623197
 O    2.3096423309    0.0270785391   -0.1749530770
 H    0.9413117822    1.8385421081   -0.5554587727
 H   -0.7427108252    1.6901046732   -1.1301700991
 H   -0.4133392207    2.0187771641    0.5870350639
 H   -1.3023925068   -0.7735297147    1.3712615115
 H   -2.0392562474   -0.0836462986   -0.0680180001
 H   -2.0542278451   -2.6573102165   -0.0388450489
 H   -1.3244172934   -1.9385090028   -1.4704328859
 H    1.0746307799   -2.0478947948    1.5405954811
 H    2.1796080003   -2.4820974562    0.2327824759