20

 C    0.0156563536    1.4294354705    0.0007508385
 C   -0.0631191540   -0.0645441926    0.0139942167
 N   -1.1528788645   -0.7156439038   -0.0663513422
 C   -0.9971075100   -2.1809165158   -0.0342007716
 C   -2.3414299340   -2.8633967614   -0.1352180064
 C   -0.0069267285   -2.5310154387    1.1245324695
 C    1.0941960901   -2.0839816810    0.1355782313
 C    0.1674535830   -2.5592818037   -1.0070286338
 O    1.1665189208   -0.6458467405    0.1223278633
 H    0.6319909773    1.7705638112   -0.8373339363
 H   -0.9869321336    1.8463075777   -0.0869851490
 H    0.4881470839    1.7938045353    0.9186456133
 H   -2.8431623226   -2.5815549635   -1.0665932637
 H   -2.2331589453   -3.9525193140   -0.1111851887
 H   -2.9879003099   -2.5570607008    0.6935478697
 H   -0.1069085217   -1.9823986420    2.0635839028
 H    0.0461246825   -3.6061601812    1.3112975353
 H    2.1193162783   -2.4413928355    0.2242064149
 H    0.2478889384   -3.6388333841   -1.1543920183
 H    0.2225315863   -2.0357041961   -1.9639152751