19

 O   -0.1213321882    1.4331979883    0.0840503212
 C    0.0468002384    0.0187742213   -0.1083275352
 C   -1.3547766558   -0.5573457399    0.0056471071
 O   -2.1652991536   -0.0552873093   -1.0398840179
 C   -1.5528884407   -2.0667298697    0.1171640015
 C   -0.9385158730   -2.6162423303    1.3751500978
 C   -2.2559534721   -1.9081217879    1.4732179953
 C   -2.0470875805   -0.3970542287    1.4180117348
 O   -1.2892138064    0.1349520252    2.4804895365
 H    0.7156338838    1.8723542098   -0.0917992477
 H    0.4574154288   -0.1960858245   -1.1042569535
 H    0.7152967739   -0.3976702785    0.6529987062
 H   -2.0176562446    0.8989974063   -1.0545881806
 H   -1.8332330796   -2.6880185437   -0.7240083672
 H   -0.9888445784   -3.6963647574    1.4669244381
 H   -0.0507516125   -2.1761410487    1.8174612295
 H   -3.1495903245   -2.3999260721    1.8354425537
 H   -2.9943161766    0.1391618789    1.2734235902
 H   -0.9624378986    0.9911403410    2.1764096304