17

 C    0.0121512339    1.3951617161   -0.2638916279
 C   -0.0118224041   -0.0889964082   -0.0842332295
 N    0.4162525480   -1.0836853178   -1.1101383666
 C   -0.0468192768   -1.9364947312    0.0320392747
 C    0.5459420564   -0.9509710420    1.0867324142
 N   -0.7075632728   -0.7974323616    1.8982037695
 C   -1.2063011389   -0.9953884048    0.5032357183
 C   -2.6210166849   -0.9359411763    0.0680167249
 O   -3.0037995371   -1.3740855650   -0.9925055744
 H    1.0263346143    1.7260293203   -0.5093704809
 H   -0.6534559193    1.7078390608   -1.0750751062
 H   -0.3060266909    1.8865738309    0.6600503205
 H   -0.2681875331   -1.1224577022   -1.8693667074
 H   -0.0309685500   -3.0272773464    0.0161561926
 H    1.5483177860   -0.9329470844    1.5141122028
 H   -0.8702657487   -1.6410033277    2.4547599648
 H   -3.3080905221   -0.4136260607    0.7705647007