23

 C   -0.0073153276    1.4960082999   -0.1803501303
 N   -0.0056206199    0.0558961056    0.0703115854
 C   -1.3280977475   -0.5609759352    0.0502591922
 C   -1.9295598034   -0.5126586123   -1.3067855700
 N   -2.3344040794   -0.4493527907   -2.3887561762
 C   -1.3256908892   -2.0150405583    0.6233947615
 C   -0.8490701274   -1.9519787566    2.0846815225
 C   -2.7584063265   -2.5748075419    0.5739191507
 C   -0.3889173703   -2.9185862206   -0.1984990574
 H    1.0242392505    1.8577319607   -0.1762436219
 H   -0.4743787689    1.7864024263   -1.1346523009
 H   -0.5427773518    2.0038600913    0.6291169677
 H    0.5909485754   -0.4052271539   -0.6079660708
 H   -1.9736679625    0.0428728648    0.7012390711
 H   -1.5405988494   -1.3644769588    2.6992507647
 H   -0.8015059881   -2.9595929303    2.5095377129
 H    0.1389723327   -1.4932951611    2.1558243500
 H   -3.1252589195   -2.6659723552   -0.4525396124
 H   -2.7883074319   -3.5687126391    1.0311779453
 H   -3.4549721979   -1.9343910119    1.1266354014
 H    0.6554989795   -2.6005991370   -0.1168351625
 H   -0.4420326924   -3.9477808511    0.1700901465
 H   -0.6681341547   -2.9293799345   -1.2573420596