19

 C    0.2995263517    1.5395931941    0.2312917758
 N    1.1456149358    0.5032584418   -0.3895254370
 C   -0.2329955307    0.1704894061    0.0076800181
 C   -0.4563389701   -0.7878819224    1.1456258468
 C    0.1064244563   -2.2116641750    1.1679887112
 C    1.4906079109   -1.6687366994    1.6440923342
 C    1.5430105628   -2.5733879308    2.8781546440
 C    0.0805519980   -2.1545634824    2.7241200676
 N    0.4850002463   -0.7013063998    2.3469846932
 H    0.6063435143    1.8232703688    1.2328535628
 H   -0.0773343715    2.3490751763   -0.3878777702
 H    1.1894035304    0.6450345424   -1.3948404297
 H   -0.9646770845    0.0646235106   -0.7934378804
 H   -1.5049659536   -0.7032364521    1.4659131410
 H   -0.0982480231   -3.0721917278    0.5209393193
 H    2.2918031029   -1.2666325626    1.0314173621
 H    1.7751930349   -3.6281785956    2.7098732338
 H    2.0711766188   -2.1747538175    3.7486275196
 H   -0.7775192698   -2.3269830348    3.3778484680