21

 C   -0.0441052421    1.4240839433    0.0278512939
 C    1.4187964965    1.9410661472   -0.0180365031
 C    2.2074918240    0.7115386727    0.4453271417
 C    3.6660004558    0.5206999675    0.0390487613
 C    4.0673578270   -0.9225271853    0.2613645509
 C    3.2033663038   -1.9167151929    0.4816544236
 C    1.6983154115   -1.7517555108    0.5007836429
 C    1.3440236541   -0.4130960523   -0.1235821725
 O    0.0088727667   -0.0060979288    0.1261368426
 H   -0.5891467072    1.7994287013    0.9014784901
 H   -0.6047003453    1.7179120515   -0.8692605017
 H    1.7020441309    2.2112704038   -1.0415879879
 H    1.5675492761    2.8226845753    0.6103912564
 H    2.1410836961    0.6399952183    1.5399265395
 H    3.8132789474    0.7924440256   -1.0173285898
 H    4.3274678979    1.1844678329    0.6097477357
 H    5.1327940549   -1.1400299753    0.2443545827
 H    3.5835689409   -2.9216862892    0.6480334612
 H    1.2188826474   -2.5792665411   -0.0352281505
 H    1.3140043235   -1.7894350475    1.5296707515
 H    1.5214559602   -0.4772970861   -1.2137350186