21

 O   -0.7957858336    1.9275749236   -0.4679061662
 C   -0.2399514081    0.6866148037   -0.0653057184
 C   -1.3054590244   -0.3821691114    0.0346055085
 C   -1.6889273195   -1.1875524556   -1.1666719775
 C   -0.9492122923   -1.8430509529   -0.0153560455
 O   -2.4040231918    0.0077493320    0.8335653847
 C   -2.1630993044    0.0024801296    2.2168127187
 C   -1.6976757776    1.2599508913    2.9058887042
 C   -3.1296136694    0.7822292273    3.0461530847
 H   -1.6953076064    1.9391420952   -0.1199571225
 H    0.5077156203    0.3951788379   -0.8111891320
 H    0.2790634442    0.7877697149    0.9001188496
 H   -2.7405410115   -1.4249736460   -1.2764079032
 H   -1.1581713093   -1.0065909291   -2.0945623909
 H    0.0913649592   -2.1195540819   -0.1496166294
 H   -1.5173398960   -2.5157825344    0.6172374356
 H   -1.8020113132   -0.9526263310    2.5933324524
 H   -1.0287430809    1.1660523843    3.7545997859
 H   -1.5189051144    2.1297231330    2.2839291721
 H   -3.8905833044    1.3338212537    2.5056855627
 H   -3.4566719066    0.3654977858    3.9918137766