16

 N   -0.0130320000    0.9426740722    1.1089385826
 C   -0.0006709638    0.0826466186    0.1580622088
 N    1.1679011136   -0.2506013402   -0.5464671629
 C    1.5871847040   -1.4251214418   -1.1897611578
 O    2.7713214217   -1.7016515878   -1.2186750665
 N    0.6282469286   -2.2191668329   -1.7607839579
 C   -0.6412947190   -1.7534387567   -2.3061798636
 C   -1.6046556350   -1.2495293841   -1.2684432230
 C   -1.3003124615   -0.4930161889   -0.2150266718
 H    0.9197592774    1.3148332732    1.2989825971
 H    1.9906960368    0.2309572217   -0.2076780868
 H    1.0621658629   -2.9848501495   -2.2546587146
 H   -0.4880261542   -0.9772931653   -3.0742735072
 H   -1.0884651810   -2.6077855474   -2.8204177502
 H   -2.6459126043   -1.5185640144   -1.4215107814
 H   -2.0816817662   -0.1765190466    0.4662413252