23

 O   -0.1552966725    1.4391676702   -0.7356102015
 C    0.0134961652    0.2077553848   -0.0415178648
 C   -1.3369560558   -0.4491249199    0.0651351185
 C   -1.8820028386   -1.2820981768   -1.0675138565
 C   -1.5136560476   -1.9443571788    0.2398856321
 C   -0.3689707436   -2.9170876296    0.3382873120
 C    0.2566280685   -3.2208444153    1.7329647919
 C    0.3780022125   -4.7100751870    1.3137171218
 C   -0.6725802519   -4.4399860318    0.2035561013
 H    0.6901987242    1.8977944074   -0.7352814135
 H    0.7195307952   -0.4477973393   -0.5736923821
 H    0.4259115870    0.3802618756    0.9660729871
 H   -2.0595007489    0.1706308897    0.5894315934
 H   -2.9283531525   -1.1829034015   -1.3340191891
 H   -1.2236588043   -1.4540143831   -1.9139916103
 H   -2.3542296104   -2.2192231403    0.8749903422
 H    0.4241471167   -2.6475281868   -0.3671201555
 H    1.1679337072   -2.6856637728    2.0127427570
 H   -0.4818049372   -3.0866081138    2.5305491562
 H    1.3629669764   -4.9335466293    0.8930447839
 H    0.1430029529   -5.4702052464    2.0623500604
 H   -1.6874012313   -4.6682678116    0.5462396511
 H   -0.5250368412   -4.9060065135   -0.7738713656