18

 N   -0.1127936940   -1.1659909554   -0.2242119818
 C   -0.0569238747   -0.0166321941   -0.1153065449
 C   -0.0129989298    1.4340048387    0.0158887743
 C   -0.6203156929    1.9757555654    1.3659254910
 C    0.5598171486    2.7732827513    1.9671529756
 C    1.6582567519    1.7703990659    2.3541698656
 O    2.1598550025    1.2994516398    1.0832397192
 C    1.4379914753    2.0046490263    0.0796321062
 C    1.2011118847    3.3856067840    0.7032955281
 H   -0.5396458400    1.8628543264   -0.8432655890
 H   -1.4781149226    2.6215505543    1.1632948665
 H   -0.9558919997    1.1663837504    2.0174369012
 H    0.2804236711    3.4602961878    2.7661786985
 H    2.4772233310    2.2391535944    2.9138935454
 H    1.2789592705    0.9211932767    2.9335285950
 H    1.9908207544    1.9423865374   -0.8572668066
 H    0.5210748230    4.0216766126    0.1307609080
 H    2.1357935305    3.9185138782    0.8915256878