18

 C   -0.4499718602    1.5114224584    0.0541167771
 C   -0.1438243839    0.0443982678   -0.0308275121
 C   -0.0700983399   -0.6532370559   -1.1711840263
 C    0.3167725774   -2.1131384963   -1.2252059717
 C    0.0012012610   -2.8142001952    0.0914116197
 C    1.0178063077   -3.0195225062    1.1765822634
 N   -0.0172293386   -2.0044841409    1.2988929082
 C    0.2618370835   -0.6332737904    1.2402597376
 O    0.7841711788   -0.0394627168    2.1596106950
 H    0.3554807618    2.0328367176    0.5793920196
 H   -0.5781903797    1.9498759592   -0.9386597509
 H   -1.3644342957    1.6889215892    0.6319572685
 H   -0.2448658944   -0.1528159325   -2.1217285338
 H   -0.2235862289   -2.6097337583   -2.0376733438
 H    1.3808535750   -2.2010102372   -1.4841747413
 H   -0.8190468352   -3.5280742392    0.0453553136
 H    0.9344820647   -3.8684097280    1.8493204800
 H    2.0332297765   -2.6740181254    0.9969564771