17

 O   -0.0078165610    0.0191356650    0.6053158392
 C   -0.0411154449    1.1147960104    0.1189453165
 C   -1.3361904925    1.9032308973   -0.0716630880
 C   -1.1532779454    3.1259219784   -0.9734664468
 C   -0.8253288120    2.7567835826   -2.4401547507
 C    0.7266956898    2.7061236305   -2.4445721890
 C    1.0595284648    2.9779952488   -0.9714470142
 O    0.0324429770    3.7945963954   -0.5033881096
 O    1.1163116803    1.7291008641   -0.2401035912
 H   -2.1009534122    1.2143760509   -0.4396772253
 H   -1.6472423627    2.2247722945    0.9283542179
 H   -1.9865689831    3.8236458978   -0.8780365392
 H   -1.2804393450    1.8072581762   -2.7305360433
 H   -1.1962448165    3.5237172608   -3.1225703355
 H    1.1393671666    1.7528627581   -2.7770395652
 H    1.1484004174    3.4984997508   -3.0671203572
 H    2.0179480794    3.4591483483   -0.7795240285