18

 C   -0.0536969993    1.5549982820   -0.1625416874
 C   -0.0642208705    0.0635201593    0.0921530302
 O    1.1776055069   -0.6378497653   -0.0514401780
 C    0.5915691250   -0.5912667997    1.2540920941
 C    1.3117426186    0.1358399199    2.3331046019
 C    0.7942163478    0.0258190613    3.7503575053
 C    2.0698400546   -0.6691890943    3.3658350269
 C   -1.2072247362   -0.6294346403   -0.4891126426
 N   -2.1312991582   -1.1564131863   -0.9413238174
 H    0.8259398260    2.0161498685    0.2872751406
 H   -0.0338053612    1.7500140774   -1.2384559467
 H   -0.9530719029    2.0195040718    0.2521809592
 H    0.1603801882   -1.5439940501    1.5692272614
 H    1.7531276654    1.0816979210    2.0422142123
 H    0.8493636826    0.9094618528    4.3753033165
 H   -0.0865703563   -0.5842947401    3.9211015553
 H    2.0538686745   -1.7498507179    3.2725478144
 H    3.0101698151   -0.2666633100    3.7238951538