17

 O   -0.7310739279    0.9032086796    0.5712620680
 C    0.2478650524    0.9224192652   -0.1327547139
 C    1.3619686798    1.8960594207    0.0098476272
 C    1.4749960040    2.8162206711    1.2129076980
 C    2.2025072220    4.0716467339    0.7213573215
 C    3.6084093686    3.9601730202    0.1980796255
 C    2.4516183438    3.9362685991   -0.7744494547
 C    1.9522195396    2.5725136628   -1.1838264629
 O    2.6065144379    1.4646552497   -0.5766132704
 H    0.3975015814    0.2043115291   -0.9689897389
 H    0.4605145867    3.0557084684    1.5457783915
 H    1.9835881838    2.3237950903    2.0482361471
 H    1.8975631137    5.0236024317    1.1412414290
 H    4.2140356630    4.8595495358    0.2180200571
 H    4.1525080821    3.0350914909    0.3444010281
 H    2.2994851336    4.7547873225   -1.4669867629
 H    1.5931074455    2.4005877889   -2.1953804193