21

 C   -0.2608670577    1.2920083680    0.2640485249
 C    1.1267116333    0.8258120137   -0.0918952957
 C    1.8329447769    0.2722432933    1.1509721395
 C    0.6680877333   -0.7564070325    1.3326043833
 C   -0.0177533811   -0.1794203755    0.0828064956
 C   -0.7186003181   -0.9975508766   -0.9536191685
 C   -2.2364709670   -1.2776684457   -0.7934158482
 C   -2.3578349301   -0.6042242335   -2.1724114218
 O   -0.9551798941   -0.2596977841   -2.1795218903
 H   -0.4667788009    1.7050338988    1.2500017376
 H   -0.7996001769    1.7600460832   -0.5526915549
 H    1.6070837329    1.1446314158   -1.0087905082
 H    2.7826884613   -0.2185873292    0.9274475118
 H    1.9948221404    0.9850948216    1.9666793134
 H    1.0054326141   -1.7873036527    1.1932257469
 H    0.0939269364   -0.7033710087    2.2636081553
 H   -0.1367186929   -1.9087758258   -1.1616820406
 H   -2.5320512835   -2.3260584996   -0.7360424488
 H   -2.6992714947   -0.7216753228    0.0237258866
 H   -2.6117228770   -1.2808589629   -2.9986671355
 H   -2.9973002744    0.2837579251   -2.2340323724