20

 C   -0.0986365078    1.6300050686    0.1322754052
 C    0.0417283316    0.1272176027   -0.0712246407
 C    1.1712322736   -0.4882712014   -0.9666564458
 C    2.1757722956   -0.1721458364    0.1818349501
 C    0.9131865210   -0.7614557140    0.8780062040
 C    0.9351617307   -1.8526652650   -0.2433339451
 C   -0.2531080030   -2.7466355491   -0.5395468470
 O   -0.3012271371   -3.7240846686    0.4957132263
 H    0.8452115407    2.1413379882    0.3344909289
 H   -0.5403544331    2.0939592454   -0.7570688159
 H   -0.7714310490    1.8366958142    0.9723887987
 H   -0.9513385627   -0.2832563194   -0.2700572352
 H    1.3254339226   -0.3310482175   -2.0368655451
 H    3.0778098451   -0.7891611573    0.2160596694
 H    2.4168746448    0.8739914448    0.3684122488
 H    0.7664215158   -0.9288626341    1.9460844663
 H    1.8283688948   -2.4857632881   -0.2030248159
 H   -1.1984506146   -2.1903869421   -0.5946311219
 H   -0.1002748153   -3.2212411750   -1.5232808561
 H   -1.0247226237   -4.3274761459    0.3030013509