17

 O    0.1840362529   -0.0305817512    0.1688329657
 C    0.0029459521    1.1350143082   -0.0134111064
 O   -1.2236512181    1.6878272929   -0.0466172722
 C   -1.3602184437    2.9324955867   -0.7455718569
 C   -1.2119718417    2.7309229361   -2.2613990848
 O   -0.0827834279    1.9752125368   -2.6579363498
 C    1.1987397717    2.5505628573   -2.4565548241
 C    1.8637012860    1.8980960182   -1.2453833350
 O    0.9952041083    2.0711139428   -0.1226853965
 H   -2.3737805608    3.2800349050   -0.5289843919
 H   -0.6468494778    3.6612878949   -0.3581559399
 H   -2.0679452453    2.1618036274   -2.6351404594
 H   -1.2199168942    3.7212926258   -2.7444052585
 H    1.7979714391    2.3663079141   -3.3567703220
 H    1.1262146156    3.6368414784   -2.3109824161
 H    2.0336884866    0.8300786616   -1.4140868719
 H    2.8124857873    2.3824831550   -1.0001043903