21

 C   -0.1641931477    1.5955343942    0.0116839304
 C   -0.0349895259    0.0627797130    0.0032474044
 C   -1.4276019012   -0.5815269965    0.0024331791
 C    0.7459298685   -0.4105004126   -1.2378561523
 N    2.1350028365    0.0117326575   -1.1629215273
 C    2.8799666339    0.0364338953   -0.0024549129
 O    4.0939106994    0.1516850820   -0.0041455250
 N    2.1394616601   -0.0009773356    1.1605107580
 C    0.7505882881   -0.4237166080    1.2362775068
 H    0.8128991434    2.0822927249    0.0125651706
 H   -0.7154409407    1.9397441223   -0.8698912827
 H   -0.7123229357    1.9302613679    0.8988373086
 H   -2.0003024596   -0.2723350664   -0.8782587608
 H   -1.3647631742   -1.6749846814   -0.0036358969
 H   -1.9968914862   -0.2819482847    0.8886422550
 H    0.6592389653   -1.5061582555   -1.3215160901
 H    0.2988705998    0.0155250654   -2.1432826838
 H    2.7074072069   -0.0581261477   -1.9889745427
 H    2.7150208883   -0.0797218350    1.9835653334
 H    0.3070725652   -0.0071997767    2.1478529119
 H    0.6639918959   -1.5201802922    1.3087031060