13

 C   -0.0382636067    1.4823953516    0.0188533081
 C   -0.0005911597   -0.0076848156   -0.0274997861
 N   -0.0352105923   -0.7463546249   -1.1106669431
 C    0.0228357122   -2.0566098561   -0.6710316424
 C    0.0939478600   -2.1023713385    0.7015328343
 N    0.0772155271   -0.7923652619    1.0975479328
 C    0.0083965552   -3.1664592994   -1.5565005869
 N   -0.0019084545   -4.0865543457   -2.2590787095
 H    0.8642369199    1.8961036789    0.4823838225
 H   -0.1073116293    1.8590876681   -1.0018282978
 H   -0.9022409215    1.8482954805    0.5846136788
 H    0.1516391612   -2.9236124063    1.3953350892
 H    0.1160431483   -0.4665723106    2.0495990001