19

 C    0.2651277284    1.5501659195   -0.3603322955
 C    0.0317423960    0.0944209325    0.0229459486
 C    0.6273033336   -1.0253299175   -0.8769994775
 N    1.2267272659   -1.7281691698    0.3031604194
 C    2.6559676983   -1.3466762975    0.5293590077
 C    2.2440251087   -0.2682323136    1.5714728009
 O    2.6535660489    1.0654824866    1.3681184463
 C    0.7750066142   -0.5887189080    1.2069497055
 H    1.3209987774    1.7567803136   -0.5396283563
 H   -0.2999343530    1.7901912610   -1.2684888453
 H   -0.0723766531    2.2274393718    0.4311198639
 H   -1.0427909799   -0.0638927918    0.1620784945
 H   -0.1007607190   -1.6455883539   -1.4093281907
 H    1.3754491916   -0.6772307838   -1.6002722121
 H    3.2597986667   -2.1753361429    0.9135874012
 H    3.1493906486   -0.9267316698   -0.3551724167
 H    2.4651484074   -0.5842994416    2.6002859227
 H    3.5647651368    1.1491940213    1.6664556309
 H    0.1434542525   -0.8490094460    2.0618471727