19

 O   -0.0303824105   -0.0675592248    0.1142870120
 C   -0.0268294711    1.1478271897    0.0501831275
 C   -1.3276734386    1.9506179237   -0.0196224850
 C   -1.1780155941    3.4140217024    0.3445195510
 C   -2.3703725527    4.2077105231    0.7187397474
 N   -1.3718798388    3.8388876515    1.7444243379
 C    0.0217189455    4.0443077186   -0.3316984379
 C    1.2844955919    3.3122102783    0.1231650126
 N    1.1332225349    1.8679481843   -0.0327119538
 H   -1.6919573604    1.8560389485   -1.0513886769
 H   -2.0595546790    1.4408512313    0.6136249920
 H   -2.4164769509    5.2686499564    0.4865131987
 H   -3.3356722674    3.7070603152    0.7286364643
 H   -1.7247424195    3.0644414992    2.3020190146
 H   -0.0849335458    3.9721589873   -1.4209648311
 H    0.1007965706    5.1011557831   -0.0653048741
 H    2.1499398307    3.6356688936   -0.4644245454
 H    1.4813262048    3.5692806934    1.1734067830
 H    1.9615461004    1.2955155152    0.0516060533