23

 C    0.8478956694   -0.8575151516    1.1851834150
 C    0.0277459847   -0.0785069114    0.1485810938
 C   -1.4449191970   -0.5379325004    0.0457249806
 C   -2.2190459599    0.1439731212    1.1944570273
 C   -2.0592261184   -0.5937053131   -1.4149314495
 C   -1.1662479570   -1.8484642876   -1.6689067708
 C   -1.7613234544   -2.0548522792   -0.2486971174
 C   -3.1173710414   -1.6220528975   -0.9282379624
 O   -4.2848289939   -1.2581653383   -0.2408833450
 H    1.8574983513   -0.4450081701    1.2772327202
 H    0.3879251825   -0.8260196082    2.1785485385
 H    0.9420978763   -1.9106898756    0.9010044338
 H    0.0235238707    0.9856451707    0.4175503900
 H    0.5383243583   -0.1276169849   -0.8161400915
 H   -2.6035777690    1.1263125485    0.8889274078
 H   -3.0446320675   -0.4544395295    1.5803486070
 H   -1.5509448489    0.3299070005    2.0408442178
 H   -2.2200155053    0.2483275876   -2.0939486561
 H   -1.5153231481   -2.5329993619   -2.4458723184
 H   -0.0929590320   -1.6992581818   -1.7452412140
 H   -1.5977178420   -2.9049170067    0.4165048073
 H   -3.4432599999   -2.3327637880   -1.6932555528
 H   -4.2035028783   -0.3588819427    0.0820829484