16

 O    0.1203379323   -0.0381208444   -0.3355130170
 C    0.0147009723    1.1299989738   -0.1019128078
 C   -1.1581183036    2.0430861517    0.2969874164
 C   -0.0976555329    3.1283046215    0.6914621331
 C    1.0486840692    2.2808769379    0.0769920741
 N    2.0705981447    2.1203551525    1.1107099741
 C    1.4272756897    2.2220964014    2.4216120192
 C    0.2191180908    3.1374655436    2.1866049481
 O   -0.3813343446    3.7413397933    3.0345297761
 H   -1.7631645571    2.3380256240   -0.5660593390
 H   -1.8269241238    1.6737020677    1.0792224128
 H   -0.2821590359    4.1341750280    0.3179944261
 H    1.4830503210    2.6260828402   -0.8664561430
 H    2.5906409490    1.2585993634    0.9908220842
 H    1.0465799846    1.2674490561    2.8265920001
 H    2.0942502444    2.6540374695    3.1731679526