13

 C   -0.0289047107    1.5330268260   -0.0172425208
 C   -0.0222683076    0.0228939454    0.0902768807
 O   -0.0354335297   -0.5836930264    1.1226300159
 N    0.0020565179   -0.6620607009   -1.1614945764
 C    0.0208635208   -0.1242989303   -2.4317845899
 N    0.0411926754   -1.0082291855   -3.3618361057
 O    0.0361931305   -2.2516860431   -2.6950094128
 C    0.0121771068   -2.0737284084   -1.3329767128
 O    0.0030045832   -2.9486505230   -0.5298016103
 H    0.8646989967    1.8969740113   -0.5344904254
 H   -0.9072888121    1.8872583899   -0.5662625847
 H   -0.0491281133    1.9375183747    0.9936564704
 H    0.0190369921    0.9340257904   -2.6389839184