22

 C   -0.3680849029    1.4334926369    0.1861922385
 C   -0.5502220250    0.0135816495   -0.3497817210
 N    0.6463079357   -0.4767855941   -1.0354314940
 C    0.8510377537    0.1038672199   -2.3629645897
 C    0.5360074607   -0.9939495750   -3.3938271857
 O    0.5833604449   -0.8695448194   -4.5889661709
 C    0.1700291770   -2.2501879818   -2.6062435515
 C    0.7123920024   -1.9534460732   -1.1934279142
 C    2.1501094438   -2.4504396684   -1.0117917559
 H    0.4945195619    1.4777823026    0.8571848532
 H   -0.2042143396    2.1561121848   -0.6196095368
 H   -1.2601325780    1.7504747422    0.7358553426
 H   -0.7413509700   -0.6575962391    0.4941602518
 H   -1.4532132259   -0.0231046555   -0.9906140193
 H    0.2061014176    0.9697495902   -2.5429215963
 H    1.8835764163    0.4438432335   -2.5202908431
 H   -0.9240441908   -2.3360734600   -2.6029956232
 H    0.5700353677   -3.1472975369   -3.0836773882
 H    0.0845586781   -2.4092414069   -0.4234554435
 H    2.8158936848   -2.0303176065   -1.7742680505
 H    2.5334513373   -2.1536732180   -0.0322966353
 H    2.1975180103   -3.5415086051   -1.0940518371