14

 O   -0.0426304947   -0.0079732860    0.0509282934
 C   -0.0485295998    1.1903477710    0.0130245404
 C   -1.2701905628    2.0906951015   -0.0750193388
 N   -1.4053442917    2.8588765471    1.1945822337
 C   -0.7817457143    3.4877798585    0.0207095384
 C    0.7348288378    3.4191993829    0.0323234197
 C    1.4365623954    2.8180162872    1.1947710934
 N    1.1371337770    2.0026031431   -0.0106421604
 H   -2.1549927576    1.7632056292   -0.6076847626
 H   -2.3697382864    3.1712319683    1.2814652039
 H   -1.2754093101    4.3125937519   -0.4788835819
 H    1.2660411694    4.0782310635   -0.6479974368
 H    2.4941800275    3.0112679047    1.3466561524
 H    0.8509127803    2.6241931470    2.0857349550