20

 C   -0.2990196415    1.6461149986   -0.2020512780
 C   -0.1599764401    0.1415569080   -0.1567131405
 C   -1.2749710320   -0.5545594983    0.6147783994
 O   -1.1407658900   -0.3245000078    2.0059975419
 C    0.5523689621   -0.6653085755   -1.2024398855
 C    1.4803393805    0.0308959980   -2.1326150424
 C    2.4921660095    0.5770980064   -1.4571657218
 C    2.3567511031    0.2866882550    0.0204073178
 N    1.1250002594   -0.5236251231    0.1668928713
 H    0.5112903098    2.1361930255   -0.7422323266
 H   -1.2406869572    1.9163176439   -0.6918487753
 H   -0.3370624111    2.0376403559    0.8197425129
 H   -2.2535190563   -0.1575465867    0.3243641472
 H   -1.2629572419   -1.6310633806    0.3879796480
 H   -0.2474807749   -0.6219861645    2.2216276467
 H    0.1561806455   -1.6402558056   -1.4817337684
 H    1.3266666010    0.0688100772   -3.2038792971
 H    3.2966471890    1.1711027333   -1.8753134866
 H    3.2080289971   -0.2886897447    0.4075003511
 H    2.2951075481    1.2007521849    0.6267535760