21

 C   -0.1681034409    1.5066576417   -0.0102484978
 C   -0.0097907510   -0.0199355267   -0.0324636675
 O    0.7529247151   -0.4378598417   -1.1653528121
 C    0.6998283339   -0.5456644650    1.1939789096
 C    0.0455032931   -1.1612148788    2.1784108181
 C    0.7290236924   -1.6847363508    3.4120105607
 O    2.1386974227   -1.6925009661    3.3186109559
 C    2.6501229584   -0.5005540935    2.7464208187
 C    2.1948216219   -0.3433100626    1.2952453451
 H    0.8052914327    2.0031435083    0.0413222850
 H   -0.6770040411    1.8513319633   -0.9188825107
 H   -0.7681664073    1.8214091187    0.8486075654
 H   -1.0148514925   -0.4694783749   -0.0671249116
 H    0.3909344317   -0.0002036302   -1.9422858806
 H   -1.0315679146   -1.3076605262    2.1266603547
 H    0.4014948283   -1.1014556005    4.2941805080
 H    0.4316354762   -2.7240628413    3.5980640168
 H    2.3282288831    0.3747973652    3.3359824409
 H    3.7391518279   -0.5720699619    2.8181412228
 H    2.7084980663   -1.0665920427    0.6515304591
 H    2.4799531636    0.6485430858    0.9243757895