16

 C    0.0275874595    1.4701121252    0.0071087401
 C    1.2673058942    0.6582501211    0.0249065718
 C    1.9802393268    0.3706740622    1.3684090780
 C    0.8954488234   -0.3629571097    2.1146465202
 C   -0.1758042325   -0.5356695419    1.2749285106
 N   -1.1259525157   -1.2188074989    1.9383325951
 N   -0.7258562394   -1.5105131448    3.2076524850
 C    0.4996602534   -0.9878804820    3.3135061824
 N   -0.0803465591   -0.0167678468   -0.0349893628
 H   -0.2834900086    1.9583379814    0.9266696841
 H   -0.2760842899    1.9655547412   -0.9100372568
 H    1.8499755703    0.5866642470   -0.8873395556
 H    2.8717425718   -0.2441219685    1.1970191207
 H    2.3184868711    1.2936065412    1.8534198384
 H   -2.0331918134   -1.5185858693    1.6252233287
 H    1.0329174880   -1.0975065973    4.2467663002