13

 O    0.2487898175    0.0931430843   -0.2090526519
 C    0.3891505404    1.2616015407   -0.3800626137
 O    0.9676617605    2.0622482008    0.5598626764
 C    0.9850131941    3.4365433856    0.2946245020
 C    2.1210154319    4.1916667363    0.8830994122
 C    2.0564452597    4.0117535115   -0.6307735688
 C    2.9778754639    3.1296399368   -1.2855585065
 N    3.7077968116    2.4168767674   -1.8305100770
 H    0.0777411740    1.8184332026   -1.2822382027
 H    0.0034495335    3.8999871111    0.2516028015
 H    1.9451143656    5.1857950686    1.2749635558
 H    2.8635354148    3.6033147930    1.4081885838
 H    1.7667994124    4.8746253211   -1.2212296211