17

 N    0.0109068925    1.3279287878    0.1310548193
 C   -0.0070141946    0.0740368290    0.0112744616
 O    1.1155595731   -0.7250044883    0.0311014864
 C    1.6265873380   -1.1594057562   -1.2356471437
 C    0.7449618065   -2.1969276998   -1.9229310876
 C   -0.6695963765   -1.6889193759   -2.2298964110
 N   -1.5106689146   -1.5462882877   -1.0482391023
 C   -1.3385573305   -0.6746771962   -0.0114468033
 O   -2.1627332146   -0.5205910528    0.8646698608
 H    0.9784400693    1.6581878178    0.1875373671
 H    1.7677554392   -0.2845128416   -1.8871611165
 H    2.6112506809   -1.5780792151   -1.0145566315
 H    1.2320893799   -2.4762381645   -2.8652822369
 H    0.6791313124   -3.0972890489   -1.3028457923
 H   -0.6121449151   -0.7407706468   -2.7841272785
 H   -1.1743715441   -2.4020525201   -2.8857332902
 H   -2.4063905118   -2.0108307606   -1.0375471114