25

 C   -0.1478356608    1.9216043786   -0.5861453771
 C   -0.3451839601    0.4146798871   -0.3813199799
 C    0.6388855248   -0.4320984196   -1.1846734771
 C    2.1459025569   -0.5361572816   -0.7568059555
 C    2.4894936325   -0.2716992930    0.7087004729
 C    2.0889194486   -2.0466393058   -1.1556301437
 O    2.7544271434   -3.0064607180   -0.3693816105
 C    0.5280365011   -1.9948301365   -1.1688840223
 C   -0.1583743100   -2.6408166643    0.0346002786
 H    0.8554544826    2.2407444049   -0.2849640882
 H   -0.2755830629    2.1950854666   -1.6395081229
 H   -0.8695917346    2.5009868499   -0.0017063600
 H   -0.2716818160    0.1786577224    0.6865557165
 H   -1.3672521857    0.1444055572   -0.6783454893
 H    0.5988501041   -0.0941507109   -2.2272265434
 H    2.8267588442    0.0552422439   -1.3773133762
 H    1.8319797965   -0.7966744234    1.4097211623
 H    3.5153996862   -0.5923570661    0.9172421003
 H    2.4202472777    0.7943765745    0.9458910628
 H    2.4780981896   -2.1933103176   -2.1670026126
 H    2.4388526084   -2.9290179030    0.5363976361
 H    0.0827271080   -2.4150101725   -2.0768614460
 H    0.2004755458   -2.2582702610    0.9959984454
 H   -1.2386251292   -2.4671061100    0.0077318036
 H    0.0049308289   -3.7234013919    0.0273824262