17

 O   -0.0142668727    1.4307330939   -0.0313339518
 C    0.0150223685    0.0321468914    0.0258628500
 C    0.2431631584   -0.7065377119    1.3845329750
 C   -0.6921612720   -1.8103209844    0.7929745155
 C   -1.3653050905   -0.6703259216   -0.0398126798
 C    0.1185227703   -2.7163868572   -0.1324268643
 O    0.0698834919   -3.9270735000   -0.0944227845
 C    0.9698052191   -1.9521662068   -1.0835023717
 C    0.9150811507   -0.6161428815   -1.0109288719
 H    0.8787160490    1.7657579778    0.1062158047
 H    1.2652356803   -0.9804830163    1.6560582564
 H   -0.2441799445   -0.1745780891    2.2055142751
 H   -1.3037297924   -2.4064386893    1.4683811173
 H   -2.1053759931   -0.1312064371    0.5564719281
 H   -1.7679644599   -0.9074982479   -1.0262010287
 H    1.5793183466   -2.5011576267   -1.7921880801
 H    1.4773071903    0.0362898366   -1.6738153192