14

 O   -0.1813883356    1.2458125628    1.3004571633
 C    0.0437942471    1.3241085345    0.1232036863
 C    1.4290833518    1.5866529086   -0.4572902711
 C    1.3574427799    2.6436219641   -1.5603037203
 O    0.6125006320    2.5135622012   -2.4970871852
 C    2.2672948563    3.8615698543   -1.3577761035
 C    2.1935772008    4.8589727821   -2.4095189897
 C    2.1363972260    5.6852437086   -3.2781991893
 H   -0.7490256594    1.2114033316   -0.6442575495
 H    2.1230335028    1.8344101253    0.3482756204
 H    1.7559884137    0.6541961634   -0.9367253307
 H    2.0113556747    4.2974218169   -0.3806568057
 H    3.2950270550    3.4892872413   -1.2382450392
 H    2.0810587448    6.4135666154   -4.0490544257