17

 C    0.0371453634    1.5636959966   -0.1490400585
 C    0.0335498770    0.1118745096   -0.0551105644
 C    0.0291490657   -1.0900824408    0.0179462285
 C    0.0209641447   -2.5439568301    0.0816924096
 O    0.9404431597   -3.1484781382   -0.8043079966
 C    0.1186326736   -3.1760662497    1.5113370540
 N   -1.2852112278   -3.5948163847    1.3539467822
 C   -1.3745574790   -3.2140850321    0.0268543498
 N   -2.1621762169   -3.3569994303   -0.9494479540
 H    0.8676192748    1.9161308436   -0.7704848639
 H   -0.8928214009    1.9349184946   -0.5932508961
 H    0.1430375777    2.0253441583    0.8387998012
 H    0.5536263801   -3.0786843427   -1.6862740223
 H    0.8439407395   -3.9944526301    1.5300315414
 H    0.2895144644   -2.4815986006    2.3363174039
 H   -1.7387069704   -4.3829713202    1.7929217730
 H   -2.9711305356   -3.9359392933   -0.7187713077