17

 O   -0.2011824082    0.2169231132    0.5779655710
 C   -0.1261300176    1.3296834028    0.1525979438
 C   -1.1415169839    2.2917550748   -0.5025477329
 C    0.0209719793    3.2938531404   -0.7675569722
 C    0.3436684370    4.3857227913    0.3081408532
 C   -0.4839923939    4.3883977758    1.5986711504
 O    0.2763291754    3.2711512081    2.1296733234
 C    1.2375750522    3.3618403508    1.0502780652
 C    1.0412234995    2.3071350454   -0.0798930341
 H   -1.5617156764    1.8635737213   -1.4187536361
 H   -1.9729823007    2.6108904694    0.1304769909
 H    0.1433076706    3.6091014939   -1.8023298616
 H    0.7053560312    5.3372903236   -0.0786929537
 H   -0.3367489401    5.2890268575    2.2085621293
 H   -1.5562950574    4.1734952440    1.5380353350
 H    2.2542724302    3.5433183928    1.4086275307
 H    1.9470759928    1.9213718151   -0.5499434922