21

 C   -0.0552895017    1.5187155018   -0.2268160868
 C    0.0730028706    0.0268990100    0.0916840236
 C    0.7350623599   -0.7741022918   -1.0359642057
 C    0.8506754741   -2.2629021601   -0.6910896813
 N    1.4571026079   -3.1684037367   -1.6548963833
 C    1.8830607189   -2.7337958857   -2.7627293554
 N    2.4613105280   -3.6161215344   -3.6739385628
 C    2.9531957127   -3.2439636577   -4.9006929887
 O    2.9453512752   -2.1164370143   -5.3370434127
 H    0.9264802170    1.9721534916   -0.4024465477
 H   -0.6588932587    1.6812144827   -1.1265832220
 H   -0.5306870919    2.0621101284    0.5956634085
 H    0.6520445477   -0.1021460533    1.0156599227
 H   -0.9214729188   -0.3909079703    0.2969406022
 H    0.1527565207   -0.6479104200   -1.9587063894
 H    1.7315134898   -0.3582817003   -1.2375491665
 H    1.4143185851   -2.3753179313    0.2459504967
 H   -0.1489774549   -2.6621538605   -0.4682213950
 H    1.8637184107   -1.7086830065   -3.1327640338
 H    2.5088914399   -4.5842734361   -3.3885890373
 H    3.3648109879   -4.1095136256   -5.4537293953