19

 C    0.7333964661    0.5491284063    0.7176077728
 C   -0.3897706843    0.2864710915   -0.2680686332
 O   -1.4471731587    0.8729140206   -0.1754424576
 C   -0.1787565359   -0.6721572180   -1.4180830780
 C   -1.2052411858   -0.5187045715   -2.5249348526
 C    1.2127074187   -1.1314386710   -1.7890958090
 C    0.2799974059   -2.1260940044   -1.1408664027
 C    0.5237699636   -2.6661552706    0.1637746430
 C    0.7188968569   -3.1756835088    1.2364128953
 H    1.5454904061    1.0891776734    0.2168875760
 H    0.3442699988    1.1679662533    1.5267366917
 H    1.1508290738   -0.3763484388    1.1210953923
 H   -1.1554595405    0.4843107458   -2.9595470477
 H   -1.0293963893   -1.2463479057   -3.3226627683
 H   -2.2163189201   -0.6559441609   -2.1359178464
 H    1.4310236994   -1.2589167229   -2.8438216795
 H    2.0481108093   -0.7838385919   -1.1941093112
 H   -0.1891587896   -2.8358546051   -1.8170109558
 H    0.8864556858   -3.6164173813    2.1878562909