18

 C   -0.2621087517    1.5318035532    0.0973112087
 C   -0.0295294122    0.0443067276    0.0058629802
 C   -1.2619718543   -0.9118399123    0.0092418088
 C   -0.6644426428   -1.7166100713    1.2032133136
 C    0.6140842502   -0.8490805101    1.1348486047
 O    1.5874606592   -1.3675965641    0.2102575910
 C    1.1360720870   -0.4852717398   -0.8498635914
 C    1.1987171647   -0.3378322903    2.3616252040
 N    1.6303823194    0.0995685037    3.3413284752
 H    0.6699633894    2.0721240067    0.2909576243
 H   -0.6840260685    1.9107105761   -0.8412735053
 H   -0.9666205024    1.7768309959    0.8986046575
 H   -2.1988495944   -0.4054535080    0.2501918326
 H   -1.4028397705   -1.4747177399   -0.9165011595
 H   -1.2196690265   -1.5872739627    2.1346390955
 H   -0.4675215723   -2.7777872105    1.0429391690
 H    0.8722495826   -1.0368039443   -1.7593138165
 H    1.9002669130    0.2654831401   -1.0872421223