19

 C   -0.1708663342    1.5801812382    0.7418043688
 N   -0.1404342619    0.3055625392    0.0470391650
 C    0.9341393146   -0.5800163275    0.4848190885
 C   -1.3689526151   -0.2902610742   -0.2135058962
 C   -1.7360662143   -1.3753243290   -0.9984410332
 C   -0.9064081022   -2.2909813989   -1.8373436381
 N   -3.0934372679   -1.4951723761   -0.9391064443
 N   -3.6004395426   -0.5646641598   -0.1878882245
 N   -2.5553231075    0.1671493919    0.2710814369
 H    0.8284167063    2.0228802844    0.7182222324
 H   -0.8535631665    2.2680013509    0.2339347159
 H   -0.4737388509    1.4961926666    1.8012918855
 H    0.8163048575   -0.9036548455    1.5321231499
 H    0.9719315303   -1.4681627216   -0.1460669540
 H    1.8892456057   -0.0548241825    0.3911825735
 H   -0.3702066201   -3.0429699828   -1.2446941264
 H   -1.5612971021   -2.8257858351   -2.5289474950
 H   -0.1627494583   -1.7399678949   -2.4233158870
 H   -2.7307943009    0.9461333568    0.8831846022