14

 C    0.0447153699    1.4301872853   -0.0391775576
 N    0.0262748256   -0.0097711812    0.0498351683
 N   -0.0345781280   -0.7747066600   -1.0943796772
 N   -0.0416522420   -2.0264466624   -0.8130728135
 C    0.0157430200   -2.1450886784    0.5644760388
 C    0.0472592521   -3.0338156675    1.6057940788
 O    0.1077848258   -2.3250779003    2.7592592561
 C    0.1167004449   -0.9798839886    2.4903135822
 C    0.0602669969   -0.8381050319    1.1349416248
 H    0.9625078341    1.8372636101    0.3980701840
 H    0.0027592510    1.6914975045   -1.0969787497
 H   -0.8186673548    1.8647874165    0.4755305644
 H    0.0348843400   -4.1049062602    1.7025958119
 H    0.1633364145   -0.3273173558    3.3424607187