15

 O   -0.2256917459    0.0200263754   -0.2658200508
 C   -0.0443887713    1.1228886891    0.1873791333
 C    1.2506672269    1.8974373033    0.0610972976
 C    1.6251030133    2.5532441815    1.3727696225
 O    0.9660512534    2.4295588302    2.3774666183
 C    2.4372260395    1.3366826203   -0.7942407850
 C    1.6351340883    1.5408336932   -2.1000019297
 C    1.5108036432    2.8025610573   -1.2212747836
 O    2.9539202148    2.7235982670   -0.9408050821
 H   -0.8379367146    1.6554242798    0.7467851193
 H    2.5508809932    3.1551234989    1.3460004609
 H    3.1460823663    0.5579167591   -0.5170748758
 H    2.2556606387    1.6838713674   -2.9843973290
 H    0.7609386687    0.9170303037   -2.2710716847
 H    1.0864311155    3.7836820439   -1.4348463813