20

 C   -0.1056381744    1.5641671001   -0.0641085919
 C    0.0431540164    0.0467468206    0.0062207214
 C    0.8662601889   -0.5610996295   -1.1560421481
 C    1.2577852110   -1.9656186658   -0.6692803799
 C    1.4230116963   -1.8083664779    0.8427081828
 O    2.0195063222   -2.5451766246    1.5847930726
 C    0.7346886846   -0.5196268831    1.2460345776
 C    1.3607111475    0.3002819208    2.3285214768
 N    0.1513560929   -0.4778654154    2.5993330350
 H    0.8711794038    2.0582449766   -0.0851088126
 H   -0.6486448411    1.8553200123   -0.9689264271
 H   -0.6658657099    1.9597529123    0.7913110925
 H   -0.9621943618   -0.4004634406   -0.0312651253
 H    0.3081092946   -0.5687656979   -2.0958197874
 H    1.7673872326    0.0437143268   -1.3158913753
 H    0.4400252789   -2.6798103993   -0.8370124280
 H    2.1545407557   -2.3868080617   -1.1282629337
 H    2.2576033790   -0.0861763939    2.8039810688
 H    1.2918992646    1.3817068479    2.2565393262
 H   -0.6597047619    0.1394590620    2.5808839755