18

 C   -0.2336243001    1.5326676786   -0.1485687032
 C   -0.0181325728    0.0311934923   -0.0136444452
 C    0.6694884750   -0.6657638299   -1.2015784463
 O    1.9778891425   -0.1015325858   -1.3133183225
 C    1.7773335239   -1.1515365998   -0.3650083913
 C    1.1687830098   -0.5342552208    0.8945346528
 C    2.0900422773    0.3745355757    1.6973694560
 N    1.4704255542    1.0977921824    2.6812254088
 O    3.2911204210    0.4071732731    1.5241175027
 H    0.6947066087    2.0273130376   -0.4445618784
 H   -0.9912126557    1.7388070705   -0.9126519905
 H   -0.5814658757    1.9858709937    0.7853605136
 H   -0.9519854196   -0.4746023742    0.2513392491
 H    0.2220916117   -1.0757123483   -2.0997617678
 H    2.4068534312   -2.0278828936   -0.4520707166
 H    0.7704184258   -1.3037284747    1.5650316039
 H    0.4696579112    1.1746743396    2.7309368560
 H    2.0246607716    1.7714470537    3.1852391990