19

 C    0.0320563921    1.5176635174   -0.0227171466
 C    0.0753150284    0.0084892047   -0.0270826692
 O   -0.8067044790   -0.6457932664    0.8992454785
 C    0.6251070832   -0.7415433764    1.1174841903
 C    1.2623486258   -2.0632829869    0.8977706377
 C    1.0609722836   -2.7356066010   -0.2356166768
 C    0.1692024619   -2.1951143295   -1.3213422091
 C    0.1533413913   -0.6558425983   -1.3973508539
 O   -0.8896706403   -0.2020755069   -2.2537844442
 H    0.9514673620    1.9311678443   -0.4511484309
 H   -0.8051054991    1.8744211556   -0.6285959240
 H   -0.0814732675    1.8935934400    0.9967858317
 H    0.9616112503   -0.1715363466    1.9820699416
 H    1.8915221867   -2.4595761847    1.6883974074
 H    1.5134349617   -3.7117773460   -0.3847718207
 H    0.4516234456   -2.5915483765   -2.3010851551
 H   -0.8597014897   -2.5338708372   -1.1359660238
 H    1.0776517377   -0.3101687288   -1.8771490856
 H   -1.7237333649   -0.4598653669   -1.8434046472