17

 C    0.0168453157    1.2916454610   -0.1058394764
 C    0.2308477124   -0.1941354969   -0.2312864222
 O    1.1730602734   -0.8049958176    0.2151645015
 O   -0.7833214946   -0.7649064050   -0.9177758465
 C   -0.7206590731   -2.1862639799   -1.0947642148
 C    0.0558179720   -2.5573854564   -2.3719525255
 O    1.3382342241   -1.9621000759   -2.4175339871
 C    0.1005162017   -4.0221473487   -2.4802157428
 C    0.1354882380   -5.2223565465   -2.5319869256
 H    0.0775638682    1.7500028381   -1.0976226542
 H   -0.9794745264    1.5018922982    0.2908216050
 H    0.7828270540    1.7163509383    0.5413956574
 H   -0.2492181890   -2.6452459724   -0.2225280377
 H   -1.7546598651   -2.5269253757   -1.1747442672
 H   -0.4843321237   -2.1519250577   -3.2367849982
 H    1.7127147873   -1.9923707390   -1.5266922406
 H    0.1751587651   -6.2818450241   -2.5975974651