17

 O    0.2882408559    1.4150620285   -0.1177342708
 C    0.1627632358    0.0204383094   -0.0735205835
 C    0.2425570327   -0.6182956662    1.4165297229
 C   -1.2924705137   -0.4292353582    1.4233305707
 O   -2.5844850804   -1.2109300289    1.4450321637
 C   -2.8465419745   -0.3259715477    0.2575682634
 C   -2.8874198954    1.0536549808    0.9158916423
 C   -1.8267220133    0.9816157495    1.7179273153
 C   -1.3123172513   -0.5426493069   -0.0702892287
 H    1.2157168952    1.6344924531    0.0190342472
 H    0.8184373703   -0.4631009311   -0.8094305235
 H    0.5657504401   -1.6601380873    1.3794121769
 H    0.8307915105   -0.0642439659    2.1552231378
 H   -3.6649509276   -0.6819662963   -0.3682958268
 H   -3.6173448867    1.8322011079    0.7544730480
 H   -1.3998999110    1.6960054212    2.4055997192
 H   -1.2038164565   -1.5957437520   -0.3470026542