16

 N    0.0459494113   -1.1733722098    0.0452319324
 C    0.0313114314   -0.0182577281    0.0323704970
 C   -0.0390344133    1.4432934181    0.0019861055
 C   -0.7033550262    2.0505383206    1.2311363984
 C    0.0178771109    3.0341125320    1.7647377013
 C    1.3240802548    3.2515774810    1.0561552789
 C    2.5343265974    2.4964703941    1.6627025993
 O    2.3588826079    1.4084890517    0.7267449014
 C    1.3583729059    2.1259055952   -0.0096369157
 H   -0.5963528848    1.7164232500   -0.9055866811
 H   -1.6631853105    1.6971311414    1.5874179299
 H   -0.2776073653    3.6128607978    2.6329177565
 H    1.5040072147    4.2825262216    0.7452718192
 H    3.5008913240    2.9957677817    1.5222854993
 H    2.4375714152    2.1651583568    2.7016963058
 H    1.6947244465    2.3686468258   -1.0224564780