17

 C    0.1400643899    1.3179285245   -0.1521357385
 O   -0.1285683351   -0.0454749296    0.1647210724
 C    0.5822120325   -0.5043931631    1.2330649983
 C    2.0451591418   -1.0025781320    1.1033389800
 C    2.6712521138   -0.9999023145    2.5001579573
 C    1.2878544850   -1.5191066034    2.9919097610
 C    0.9719435526   -1.9676031073    1.5092444496
 C    0.3285551806   -0.3371965516    2.7041824989
 O   -0.4606878118    0.2808007213    3.3612091302
 H    1.1997417037    1.4674832656   -0.3987793395
 H   -0.4719296764    1.5626830122   -1.0220146089
 H   -0.1317131285    1.9764169392    0.6811018429
 H    2.5230181345   -0.9187435709    0.1347819253
 H    3.4522755481   -1.7598017023    2.5930007210
 H    3.0242618924   -0.0504337335    2.9180957349
 H    1.1668712253   -2.1157929974    3.8911462830
 H    0.5428333915   -2.8582571972    1.0776877219