21

 C   -0.0403645504    1.6653130435   -0.0842167074
 C   -0.1205463233    0.1362211856   -0.0250805715
 C    0.6650219926   -0.5259035733   -1.1490541580
 O    2.0802626854   -0.2478309703   -1.0260662954
 C    2.7117553508   -1.5183415161   -1.1835995092
 C    2.6084089880   -2.2886727805    0.1463233209
 C    1.1085364033   -2.7142233718    0.0908378993
 C    0.6788042729   -2.0679818760   -1.2435503203
 O    1.8602188984   -2.2418792341   -2.0515305395
 H    0.9995688639    1.9960258938   -0.0170541564
 H   -0.4533933780    2.0468805195   -1.0244342133
 H   -0.6003462364    2.1218865808    0.7372790994
 H    0.2575498293   -0.2117794387    0.9420036756
 H   -1.1680868025   -0.1864888220   -0.0954643539
 H    0.3204674992   -0.1232789671   -2.1132798169
 H    3.7014295330   -1.3889845497   -1.6213406441
 H    3.2798811599   -3.1509662033    0.1583747764
 H    2.8485720005   -1.6444649222    0.9939860857
 H    1.0027584354   -3.7990598316    0.0242273653
 H    0.5260633301   -2.3722549688    0.9478439702
 H   -0.1847024723   -2.5082232278   -1.7404260770