23

 C   -0.1739719053    1.6044991754    0.0901184678
 C   -0.0511163301    0.0829073490   -0.0285037375
 C    0.6145355790   -0.5453363844    1.1864478974
 O   -0.1791769674   -0.3124105315    2.3460454548
 C    0.3264346005   -1.1766880667    3.3464955476
 C    0.6506080249   -2.5015434975    2.6262409504
 C    0.8284596859   -2.0781124295    1.1408575606
 O   -0.1324213184   -2.6673308051    0.2849262373
 C    0.1293873508   -4.0158613054   -0.0204469741
 H    0.8105196624    2.0781843693    0.1795529043
 H   -0.6681900025    2.0276085425   -0.7897694331
 H   -0.7563201307    1.8768846410    0.9741697615
 H   -1.0355808546   -0.3750430675   -0.1548864957
 H    0.5337393482   -0.1850419763   -0.9162776194
 H    1.6088906931   -0.0846682033    1.3407778631
 H    1.2364774530   -0.7494590253    3.8005910270
 H   -0.4316483302   -1.2741247556    4.1275302519
 H    1.5310118972   -2.9966658945    3.0425964712
 H   -0.1934716413   -3.1929739218    2.6895291120
 H    1.8354709227   -2.3142322741    0.7654313983
 H   -0.6425444210   -4.3456416638   -0.7201997428
 H    1.1165395660   -4.1397616550   -0.4943045985
 H    0.0948737380   -4.6629304099    0.8692989560