21

 C    0.2797152778    1.5287496915    0.1335658616
 C    0.1205818026    0.0287976991   -0.0337428996
 C    0.9866068600   -0.6179817593   -1.1160850391
 O    1.1446942656   -1.9491858059   -0.6468335815
 C    1.1041523012   -1.9061785086    0.7873103671
 C    0.2275538196   -3.0478422212    1.2797868835
 C    2.5470458217   -1.9869733613    1.3095594568
 O    3.1938348041   -3.1523048123    0.8414934512
 O    0.5700235198   -0.6394279375    1.1464908850
 H    1.3274646737    1.7861398574    0.3152279391
 H   -0.0619566177    2.0523949215   -0.7651551595
 H   -0.3133055618    1.8839927888    0.9803140683
 H   -0.9370040958   -0.2192489274   -0.2147697608
 H    0.5115705007   -0.6525544652   -2.0998532790
 H    1.9544045986   -0.1013144330   -1.2043679615
 H    0.6962644987   -4.0052160145    1.0421138218
 H    0.1061329575   -2.9766733408    2.3638543179
 H   -0.7555056846   -2.9985732079    0.8060619860
 H    3.0721379295   -1.0689592647    1.0037196877
 H    2.5509223894   -2.0265315335    2.4029541925
 H    3.0632219496   -3.1568333050   -0.1149865876