16

 C    0.0156342050    1.3510923614   -0.0543290990
 O    0.7277610865    0.1235897385    0.1637815974
 C    0.9591880499   -0.6036036507   -0.9299702095
 C    0.7284902074   -1.8978640882   -1.1891141751
 C    0.0675949497   -2.9578574047   -0.3857570697
 N    1.2971895343   -2.1146102843   -2.4623898313
 C    1.8352891959   -0.9593388297   -2.9667326296
 O    2.3789082097   -0.7445710483   -4.0152483486
 O    1.6262315088   -0.0003918390   -1.9821153969
 H    0.5774901606    2.0132117797   -0.7186073252
 H   -0.9727023914    1.1505978810   -0.4840849780
 H   -0.0931061695    1.8143614279    0.9266620451
 H   -0.7861079724   -3.3981537463   -0.9153311277
 H    0.7583757130   -3.7733092405   -0.1382082490
 H   -0.2957700973   -2.5286151919    0.5500631831
 H    1.3083030198   -2.9775699848   -2.9765132360