14

 O   -0.7081295468    1.0864918089    0.8545849647
 C    0.1519652000    0.8578814369    0.0416121035
 C    1.3632293611    1.7184747270   -0.1262903689
 C    1.7977811503    2.7059421729    0.9737287432
 N    2.0716438740    3.7577092393   -0.0480635000
 C    1.4961684222    2.9237604908   -1.1199077749
 C    2.5856740403    2.0423617713   -1.7590672639
 O    3.3326544685    2.0733910528   -2.6759189017
 O    2.4536425489    1.0388059875   -0.8084397237
 H    0.0982512849    0.0016013318   -0.6628284587
 H    0.9500886637    2.9225946848    1.6309566250
 H    2.6693701252    2.4110272548    1.5633784051
 H    1.5699684895    4.6231252325    0.1044966078
 H    0.7126968482    3.3383856287   -1.7538777175