21

 C    0.9104524596    1.4569186439   -0.4060933858
 O    1.1062737912    0.0398237044   -0.4820916075
 C    0.1460192801   -0.6420703017   -1.1448089834
 O   -0.8209502529   -0.1118058270   -1.6368801400
 C    0.4728518096   -2.1093965740   -1.2151052486
 C   -0.6799152900   -3.0748847667   -1.5809767623
 C    0.2656051219   -3.8095820835   -2.5668942459
 C    1.2561978433   -2.6096504815   -2.4940148402
 C    1.2162176870   -1.6816719706   -3.7036832572
 H    0.8623822428    1.8957058897   -1.4060101293
 H   -0.0180286043    1.6903048195    0.1214558334
 H    1.7684544293    1.8472331002    0.1416596919
 H    1.0074174151   -2.4009713457   -0.3091246263
 H   -1.1056853100   -3.6588322790   -0.7622728897
 H   -1.4842842934   -2.5352990469   -2.0848060986
 H    0.6882311437   -4.7243064310   -2.1426395134
 H   -0.1364366691   -4.0427884935   -3.5564573801
 H    2.2924335000   -2.8833833451   -2.2779765582
 H    0.1960700176   -1.3580817773   -3.9318292586
 H    1.8204724743   -0.7830604630   -3.5373787161
 H    1.6155600844   -2.1945193011   -4.5852112239