14

 O    0.4626754484    1.0899821649   -0.6654615134
 C    0.1795616400   -0.1838267139   -0.3032488072
 C   -0.2697829184   -1.1902053965   -1.1187145719
 N   -0.3934765339   -2.2949920722   -0.2968659018
 C   -0.0258822878   -1.9055461045    0.9512784067
 N    0.3351869884   -0.6374111140    0.9737929302
 O   -0.6333627296   -1.2782112359   -2.4272413551
 C    0.2347304057   -0.7674507646   -3.3522900582
 N   -0.1029264999   -0.7705626799   -4.5629050688
 H    0.7355520795    1.5461372246    0.1397494427
 H   -0.7279065335   -3.1973533127   -0.5919320052
 H   -0.0440538554   -2.5725132382    1.7985511666
 H    1.1610899630   -0.3965817763   -2.9032197099
 H    0.6382106835   -0.3669635406   -5.1319313050