19

 O   -0.1557679674    1.4587007671   -0.2232966439
 C   -0.0799172526    0.0461086911   -0.4163660233
 C   -1.4284481215   -0.5077817063    0.0267793076
 O   -1.6867355825   -0.1178896296    1.3510341453
 C   -2.5677056011   -0.2863915903   -1.0160996295
 C   -2.3587042400   -1.7384710355   -1.5161380202
 C   -1.5851864104   -2.0482680142   -0.1930949009
 C   -0.4136649185   -2.8986843923   -0.2327356698
 C    0.5689202774   -3.5911688061   -0.2896175256
 H    0.7337235028    1.8204153410   -0.2594517483
 H    0.1237205603   -0.2042795704   -1.4667311791
 H    0.7096814422   -0.3991298818    0.2027773356
 H   -1.3710839898    0.7932569033    1.4228140547
 H   -3.5209563275   -0.1621110432   -0.4975143500
 H   -2.4363609021    0.5273922026   -1.7315397629
 H   -3.2465158247   -2.3428804921   -1.7071529165
 H   -1.7004314646   -1.7970311121   -2.3854195398
 H   -2.2849533500   -2.4020941265    0.5709340632
 H    1.4285726801   -4.2129177946   -0.3310500565