25

 C   -0.0835041059    1.6556075929   -0.0645286413
 C   -0.1932487344    0.1446341982    0.1664576556
 C    0.6572464503   -0.4551036582    1.2860775414
 C    1.9354707527    0.2259823630    1.7280446825
 C    0.7206876222    0.2495279874    2.6238895470
 C    0.6835517053   -1.9722889234    1.3452817434
 C   -0.6253475697   -2.8181423368    1.3107648880
 C    0.1537420637   -3.9051558828    0.5227726535
 C    1.2041803373   -2.8249912734    0.1483865956
 H    0.9203164921    1.9480396126   -0.3869701453
 H   -0.7801562323    1.9644135886   -0.8500621503
 H   -0.3309554990    2.2326251559    0.8321550916
 H   -1.2447264255   -0.1001424477    0.3652578853
 H    0.0568514737   -0.3611274279   -0.7749465285
 H    2.7716125801   -0.4048467090    2.0119726719
 H    2.2295048629    1.1545263488    1.2533137594
 H    0.1998106143    1.1932714437    2.7422343830
 H    0.7273090166   -0.3621068769    3.5202597393
 H    1.2526685626   -2.2648954015    2.2361019416
 H   -1.0784729378   -3.0938869046    2.2664351902
 H   -1.3926061541   -2.3537459199    0.6849001803
 H    0.5747739178   -4.6637739151    1.1891519901
 H   -0.3667762303   -4.4118753697   -0.2931988632
 H    0.9723158627   -2.3639962971   -0.8162982867
 H    2.2602576146   -3.1066817871    0.1500601055