23

 C    0.2304138905    1.4862927449    0.1577368996
 C   -0.0783827364   -0.0038228757   -0.0143229264
 O    0.3465967476   -0.7294570028    1.1575907979
 C   -1.5983346328   -0.2468616538   -0.0527125499
 O   -2.2229123262    0.1538717602    1.1496352429
 C    0.5879764865   -0.5722514943   -1.2717617609
 C    2.1421172298   -0.6185629465   -1.3549707235
 C    2.0240915626   -1.9981841847   -2.0559143375
 C    0.5746699418   -2.1090503358   -1.5135082647
 H    1.3042823351    1.6488736119    0.3079562993
 H   -0.0659290985    2.0512471899   -0.7316083442
 H   -0.3155046010    1.8849177988    1.0158520274
 H    1.1666106131   -0.3397245075    1.4745501135
 H   -2.0486611354    0.3355443097   -0.8630911949
 H   -1.7815400028   -1.3124346444   -0.2593872893
 H   -1.6915552133   -0.2478772442    1.8490279017
 H    0.1858794644   -0.0462434809   -2.1458682539
 H    2.6526917337    0.1878534270   -1.8869136465
 H    2.5905712939   -0.7194994381   -0.3609649024
 H    2.0444104227   -1.8991745484   -3.1450734513
 H    2.7353640346   -2.7749347357   -1.7657834043
 H    0.5403282912   -2.6432642156   -0.5605859021
 H   -0.1895386109   -2.5162191540   -2.1796625105