18

 C    0.2316100155    1.4898645203   -0.0540228661
 C   -0.0025796781   -0.0022554285   -0.0198240607
 C   -0.8583633740   -0.6149505589    1.0561249984
 N    0.5846601674   -0.7406917308    1.1204625234
 C    1.1626087507   -2.0640220111    0.8931884371
 C    0.7580533597   -2.7667937545   -0.3713035662
 C    0.1785068936   -2.1336368524   -1.3960204935
 C   -0.0830515361   -0.6803347340   -1.3609241602
 O   -0.3345624910   -0.0493652116   -2.3713368522
 H    1.1929613665    1.7217429571   -0.5227708055
 H   -0.5489101728    1.9811066224   -0.6396843732
 H    0.2356320019    1.8931564509    0.9609700265
 H   -1.3029774478    0.0421847543    1.7993257440
 H   -1.4528335050   -1.4880185156    0.7956807696
 H    2.2579089658   -1.9646234316    0.9070208833
 H    0.9137804459   -2.6878815841    1.7617345406
 H    0.9866425869   -3.8290852321   -0.4357402903
 H   -0.0684824691   -2.6361976497   -2.3255286551