19

 N    0.1562297483    1.1671927769    0.3954305979
 C    0.0620994120   -0.0553971208   -0.2024858827
 O    0.8969091149   -0.4857474352   -0.9709153206
 C   -1.2174735261   -0.8209543240    0.0911924745
 N   -1.0860443798   -2.0391537407    0.8995279029
 C   -1.9135163274   -0.9353634547    1.4067773999
 C   -1.4565325335   -0.2848968996    2.6747797818
 C   -2.1914754653    0.9288491743    3.2101315857
 C   -2.2998808338   -0.3979050204    3.9179052072
 H    1.0014981936    1.6975500602    0.2569667882
 H   -0.4921603903    1.4545228135    1.1082854844
 H   -1.8490836572   -0.8764597898   -0.7947718951
 H   -1.6505829966   -2.7913064336    0.5159337485
 H   -2.9972022134   -1.0469937115    1.3417414831
 H   -0.3816733990   -0.3121710996    2.8181479996
 H   -1.6157250518    1.7182423851    3.6814645453
 H   -3.0595229473    1.2801734966    2.6611549495
 H   -3.2407557048   -0.9335580479    3.8429389738
 H   -1.7949228425   -0.5171959988    4.8695215360