15

 C   -0.0681393638    1.4937499576   -0.0049002363
 C    1.4238613976    1.8883806727   -0.0190229807
 O    2.1776765898    1.4707424833    1.1163304700
 C    2.2765812101    0.6763235294   -0.0910442359
 C    1.3386654615   -0.4745056744   -0.1008305622
 C    0.0698157111    0.0042375355   -0.0370710927
 O   -0.8356609288   -0.9881193092    0.0692979132
 C   -0.1060910207   -2.1525677344    0.0482589127
 C    1.2302909804   -1.9004997997   -0.0488041741
 H   -0.5702095450    1.8666390775    0.8947218247
 H   -0.5933728202    1.9063663783   -0.8749296563
 H    1.7145445964    2.8446070166   -0.4458700394
 H    3.2577531594    0.6620038327   -0.5540217279
 H   -0.6859486561   -3.0588186516    0.1012289512
 H    2.0129859482   -2.6422818442   -0.0772207562