17

 C    0.0712891817    1.4498783315   -0.0641054368
 C   -0.1437759331   -0.0456702889    0.1406554342
 N    0.7108380160   -0.5396334038    1.2151895890
 C    0.8663337154   -1.8717851481    1.4520345427
 N    1.2991428708   -2.4275863194    2.5520600016
 C    1.3346443297   -3.7744702966    2.2362295218
 O    1.7419554273   -4.6831204372    3.1425341742
 C    0.9173529871   -3.9847714814    0.9681455988
 O    0.6027853776   -2.7221562783    0.4484492570
 H    1.1146890008    1.6632666156   -0.3125525956
 H   -0.5630229637    1.8163710957   -0.8757021705
 H   -0.1868836071    2.0154777291    0.8386231278
 H   -1.2062781322   -0.2517336534    0.3429923450
 H    0.1167770034   -0.5941924486   -0.7681560913
 H    0.7295121084    0.0088188940    2.0623158036
 H    1.9734645848   -4.1875854305    3.9370120960
 H    0.7730544530   -4.8293392998    0.3231831123