12

 N    0.1631709930    1.4219875419   -0.1164038815
 C   -0.0017845615    0.0282701896   -0.0451813633
 C   -1.1202555788   -0.7860500509   -0.0510542372
 O   -2.4025337879   -0.3089678788   -0.0668280628
 C   -0.6231466303   -2.1048279217   -0.0135485862
 N    0.7105070182   -2.1216976460    0.0180918741
 N    1.0596733102   -0.8242182857   -0.0092658607
 H    0.3073290063    1.8400912969    0.7987280921
 H   -0.6690316388    1.8452009343   -0.5126227127
 H   -2.9968469611   -1.0288056778   -0.2966012471
 H   -1.1765662710   -3.0334171278   -0.0003502917
 H    2.0316413317   -0.5659542240   -0.0306001732