17

 O   -0.2040687427    1.4747578660   -0.5004596180
 C    0.0431880699    0.1132884238   -0.1934861066
 C   -1.2858999786   -0.5829642848    0.1029399361
 O   -2.2014866652   -0.3442899866   -0.9578713458
 C   -1.2534373838   -2.0765210381    0.3987485686
 C   -2.4602088397   -2.2469514683    1.3342795655
 O   -2.5786773686   -0.9930969315    2.0462781320
 C   -1.9181226960   -0.0187211492    1.3952702935
 O   -1.8711500059    1.1202527749    1.7872498045
 H   -0.6081182265    1.8559931210    0.2956098647
 H    0.5030124964   -0.3356024577   -1.0798297480
 H    0.7352839898   -0.0016063896    0.6536577490
 H   -2.0319848024    0.5703147260   -1.2312546217
 H   -1.3331593744   -2.6720726475   -0.5115860510
 H   -0.3272834325   -2.3392743399    0.9200496031
 H   -3.3879929225   -2.4128330746    0.7796591794
 H   -2.3387014871   -3.0335833040    2.0804363148