13

 N    0.0320682440    1.4065329602    0.1518982866
 C   -0.0502270377    0.0265992461    0.0538416588
 C   -1.1421218409   -0.7952331568    0.0362993833
 N   -0.6186873547   -2.0969434724    0.0007813680
 C   -1.3292993972   -3.2926402103   -0.0316813416
 O   -0.8166885635   -4.3803580977   -0.0648632853
 C    0.7530511820   -1.9659649507   -0.0018002697
 N    1.1235297011   -0.7176690581    0.0285016460
 H    0.9258609615    1.7542302549   -0.1670413564
 H   -0.7372102586    1.9109976704   -0.2637880685
 H   -2.2021353024   -0.6115694387    0.0531239076
 H   -2.4204124762   -3.1212965138   -0.0234036279
 H    1.3945177528   -2.8320040133   -0.0297824710