17

 C   -0.0231973132    1.5023224426    0.0659391071
 C    0.0158764865    0.0481137755    0.0540808317
 C    0.0534697918   -1.1583611976    0.0445418763
 C    0.0618621836   -2.5710774356    0.0306330525
 C    1.1538387111   -3.4223255111    0.1062961022
 N    0.6623204856   -4.6783182488    0.0553615225
 N   -0.6838878783   -4.7208489079   -0.0491532089
 C   -1.0637084507   -3.4487198616   -0.0654311363
 C   -2.5037154277   -3.0679481587   -0.1728783400
 H    0.5498551889    1.9264287572   -0.7667365335
 H   -1.0516649934    1.8701500513   -0.0210395706
 H    0.3941778046    1.9079780835    0.9948543766
 H    2.2087154897   -3.2162075709    0.1899923435
 H    1.1753639019   -5.5423743800    0.0861663779
 H   -2.8212380252   -2.4744006174    0.6911302990
 H   -2.6859189305   -2.4578587334   -1.0640783870
 H   -3.1235184648   -3.9648762772   -0.2291512931