15

 O   -0.8824227366    1.5169808152   -0.3737106259
 C    0.0325310950    1.3482770380    0.3887025468
 C    1.4133702169    1.9269681477    0.1913213424
 C    1.6006994945    3.0034312297   -0.9122087313
 C    2.1168982951    4.0128090069    0.1676403672
 C    1.8718982039    2.9529650692    1.2672065601
 O    0.7613849100    3.7420260799    1.7908114976
 C    0.9778201907    4.7519360907    0.8633968539
 O    0.3914902351    5.7774718990    0.7664445368
 H   -0.0866432452    0.7393050571    1.3122125028
 H    2.1278443955    1.0985733116    0.1197790086
 H    2.3604788368    2.7489048198   -1.6513307854
 H    0.6826853481    3.2901181247   -1.4262481228
 H    3.0467227120    4.5485937454   -0.0064764686
 H    2.5649262581    2.6675789951    2.0561159379