17

 C   -0.1478379684    1.5552760243   -0.0076589228
 C    0.0060498583    0.0302340515    0.0177658020
 O   -1.2803968063   -0.5978164469    0.0054306440
 C    0.7217241092   -0.4438348552   -1.2461751724
 O    1.1367819583   -1.8121133469   -1.2115763003
 C    1.7216382209   -2.3032335090   -0.0919514331
 O    2.2577753898   -3.3807254066   -0.1176755830
 C    1.6105312005   -1.4860561716    1.1407720267
 C    0.8031628235   -0.4288298758    1.2187361448
 H    0.8228183660    2.0609493689   -0.0047363838
 H   -0.7062591632    1.8631808030   -0.8961523359
 H   -0.7042963111    1.8901057392    0.8744842089
 H   -1.6947774370   -0.4612105932    0.8644788748
 H    0.0447845769   -0.3661427042   -2.0995167223
 H    1.5983118816    0.1896540163   -1.4277863807
 H    2.1735079321   -1.8646268508    1.9859316111
 H    0.6751188288    0.1131341771    2.1540247021