21

 C    0.1444061578    1.6281041147    0.1053361502
 C    0.1114465144    0.0918507512    0.0415624917
 C    0.6115040468   -0.4719791121   -1.3060947457
 C   -0.1935949534   -0.0244499693   -2.5501153873
 C    0.3972486404   -0.6473702781   -3.8313553384
 C   -1.6131548855   -0.3502760670   -2.4191639411
 C   -2.7768131387   -0.6353108769   -2.3158330621
 C    0.9900326465   -0.4752302179    1.1404435363
 O    0.6431496365   -1.2793052352    1.9657516931
 H    1.1521777696    2.0139338227   -0.0884832260
 H   -0.5333563883    2.0661514447   -0.6314844945
 H   -0.1681714375    1.9853629987    1.0913441064
 H   -0.9050282756   -0.2696831292    0.2230184775
 H    1.6582977928   -0.1780574759   -1.4614864734
 H    0.5922967812   -1.5671800308   -1.2599108826
 H   -0.1052548118    1.0660734816   -2.6413498451
 H    0.3410681123   -1.7391994789   -3.7914496616
 H   -0.1512753005   -0.3118939949   -4.7150043807
 H    1.4470828053   -0.3593528239   -3.9446435094
 H   -3.8061283278   -0.8805589704   -2.2254126445
 H    2.0374566154   -0.0840360932    1.1290741171