24

 C    0.0531933530    1.5881973518   -0.0500667638
 C    0.0245556897    0.0595789077    0.0320249668
 C   -1.3925215420   -0.5212856220   -0.0203358379
 C   -1.4312099264   -2.0509688137    0.0607063078
 C   -2.8516570008   -2.6211967780    0.0140075632
 C   -2.8885226157   -4.1489892457    0.0915502531
 C   -4.3111193039   -4.6963343558    0.2012455753
 N   -4.4715834089   -5.9731025369   -0.2617714899
 O   -5.2341921620   -4.0578811573    0.6682567534
 H    1.0771615684    1.9729817029   -0.0100163974
 H   -0.3995000805    1.9430120789   -0.9827753350
 H   -0.5046170670    2.0393591857    0.7781638625
 H    0.6193447073   -0.3628775644   -0.7889822954
 H    0.5151544556   -0.2669255447    0.9587741529
 H   -1.9887494102   -0.0999795245    0.8009408374
 H   -1.8845751693   -0.1941559244   -0.9470439956
 H   -0.8357967581   -2.4723831332   -0.7619854898
 H   -0.9374298541   -2.3779172619    0.9870274905
 H   -3.4523568836   -2.2212888533    0.8371425481
 H   -3.3512445692   -2.2951615653   -0.9070245600
 H   -2.3763176223   -4.5985540340   -0.7683561577
 H   -2.3425320755   -4.4890411471    0.9832523954
 H   -3.6939970353   -6.5339534956   -0.5620862317
 H   -5.3607236092   -6.4219029795   -0.1131670522