17

 C   -0.0412856340    1.5263483191    0.0592398866
 C    1.4215998417    1.9225997983    0.0408110262
 C    2.2315836203    0.8711126962   -0.1127438769
 C    1.4409866445   -0.3873290355   -0.1947000128
 N    0.6785493088   -0.6913221338    1.0818924973
 C    0.0684157601   -1.9774121118    1.0021248581
 N   -0.8981937029   -2.1705604673    0.1963037187
 C   -1.1088550153   -0.9011052029   -0.5271833957
 C    0.0122684369    0.0104716548   -0.0566431612
 H   -0.5444548370    1.8429950833    0.9804484833
 H   -0.5960486060    1.9747833537   -0.7766570228
 H    1.7438807777    2.9503822594    0.1613603831
 H    3.3131720035    0.8993593915   -0.1548184070
 H    1.7639499864   -1.2427160247   -0.7789258344
 H    0.4382843834   -2.7502719349    1.6704922478
 H   -1.1092716185   -1.0832816603   -1.6073368949
 H   -2.0959973995   -0.4931583449   -0.2712278553