17

 O   -0.0772238263    1.4473652801    0.0196617584
 C    0.0107785666    0.0300429135    0.0156021512
 C    0.7545119400   -0.5205962531    1.2382455938
 C    0.6507730649   -2.0496588257    1.2781922522
 O   -0.6968968484   -2.4825419021    1.2687453187
 C   -1.3885423584   -2.0498520054    0.1093142125
 C   -1.4122536211   -0.5229643609   -0.0062641744
 H    0.8171478582    1.8009882639    0.0651936785
 H    0.5326345794   -0.3148788469   -0.8951549583
 H    1.8106812288   -0.2206364639    1.2188955633
 H    0.3030220216   -0.0977550168    2.1431029664
 H    1.1942992093   -2.4847469383    0.4205481205
 H    1.0971432752   -2.4506148239    2.1925379648
 H   -0.9233265704   -2.4883962160   -0.7912677830
 H   -2.4020608615   -2.4523816715    0.1893411744
 H   -1.9653056579   -0.0984620812    0.8392991978
 H   -1.9236170299   -0.2175172619   -0.9253183467