19

 C    0.0846788418    1.5163474636   -0.0404748591
 C    0.0507824133   -0.0073334091    0.0671269775
 O    0.6675711634   -0.4671006127    1.2616560271
 C   -1.3857263655   -0.5474372618   -0.0549013501
 N   -1.4517800615   -1.9931477637   -0.1478437607
 C   -1.6029169998   -2.7343481480   -1.3032325874
 C   -1.5578270782   -4.0452128865   -0.9113391297
 N   -1.3808571598   -4.1365785857    0.4498160556
 C   -1.3170119290   -2.8939019094    0.8702411039
 H    1.1086047285    1.8765250642    0.0861738377
 H   -0.2857585193    1.8586383796   -1.0118710447
 H   -0.5390916231    1.9786558175    0.7356940230
 H    0.6469266796   -0.4477884289   -0.7403910873
 H    0.3007276944    0.0350875680    1.9983691264
 H   -1.9682281769   -0.2183229235    0.8147866642
 H   -1.8682067429   -0.1293035851   -0.9433233164
 H   -1.7375112337   -2.2604788050   -2.2619907832
 H   -1.6505716861   -4.9262582267   -1.5282195158
 H   -1.1635274150   -2.5752014568    1.8893818590