20

 C   -0.1070892376    1.7108373345    0.1333944548
 C    0.3689420048    0.2603650747    0.0254866947
 C    0.6613978630   -0.1630668225   -1.4242428520
 N    1.2055211672   -1.5050774404   -1.5127677663
 C    0.4063730507   -2.4890299846   -1.6606327636
 N   -0.9549035046   -2.5074451776   -1.7906818215
 N    1.0259759522   -3.7591200602   -1.7595146121
 C    0.4586350975   -4.9959070075   -1.7967651369
 O   -0.7327543911   -5.2462321404   -1.7851953048
 H    0.6460402627    2.4037771011   -0.2578329225
 H   -1.0293931321    1.8730033593   -0.4361620606
 H   -0.3060866400    1.9887357550    1.1728763207
 H    1.2805603131    0.1143735817    0.6158498909
 H   -0.3824543484   -0.4135065744    0.4581022721
 H   -0.2476396973   -0.0284661584   -2.0367287805
 H    1.4063840871    0.5255989868   -1.8418320909
 H   -1.4614010306   -1.7044333784   -1.4627465046
 H   -1.4047274680   -3.4135489494   -1.7401138841
 H    2.0331954896   -3.6881819427   -1.7450458282
 H    1.2264432220   -5.7893193466   -1.8427769446