15

 C    0.0600704109    1.3752632560   -0.0730369075
 N    0.0679717489   -0.0628787290    0.0186732832
 N   -0.0154471555   -0.8271400789   -1.1177983852
 C    0.0242359518   -2.0699810278   -0.6686212029
 O   -0.0214331572   -3.1248457697   -1.5108982798
 C    0.1065069832   -2.1529615774    0.7361314945
 C    0.1238929618   -0.8268024712    1.1372014393
 N    0.2607095087   -0.2440660568    2.4018423633
 H    0.6079594695    1.7903943892    0.7766048117
 H    0.5572000254    1.6646834246   -1.0002100895
 H   -0.9579826945    1.7858298462   -0.0805687268
 H   -0.0779423555   -2.7627603053   -2.4041959282
 H    0.1359737742   -3.0340881714    1.3542554469
 H    0.3276105411   -0.9479936113    3.1248226466
 H   -0.4909997230    0.3951529829    2.6344173843