21

 C   -0.0511618088    1.2889073517    0.2403091787
 C    0.0684797852   -0.2363841739    0.2354775819
 O   -1.1840242691   -0.8444277133    0.5432277358
 C    0.6922486909   -0.7345133589   -1.0676978711
 C    0.8842801260   -2.1690112627   -1.4537073734
 C    0.4494105132   -3.3256961512   -0.5742758727
 C   -0.1051367484   -1.3161387217   -2.2475717881
 C   -1.5688517888   -1.5697439454   -2.2124499514
 O   -2.3376515321   -1.0828807954   -3.0115645534
 H    0.9280593103    1.7653534999    0.1348694274
 H   -0.6783849008    1.6286053818   -0.5930722930
 H   -0.5004960418    1.6279038368    1.1778631193
 H    0.7294489801   -0.5393906182    1.0584169735
 H   -1.8758753007   -0.3437214259    0.0966475656
 H    1.4873894107   -0.0702755971   -1.3995702372
 H    1.8047585988   -2.3698431968   -1.9971166640
 H   -0.4161303152   -3.0771789675    0.0404660283
 H    0.2112393930   -4.2091343074   -1.1760814124
 H    1.2661347916   -3.6003783975    0.1023056291
 H    0.2075635408   -0.9567210992   -3.2232404264
 H   -1.9317485048   -2.2624717980   -1.4300513262