11

 N    0.0551290744    1.4149067699    0.0633267164
 C   -0.0376224758    0.0528255902   -0.0371655653
 N   -1.2134141312   -0.4965220638   -0.0205247655
 O   -1.2453935304   -1.8845869366   -0.2479453551
 C   -0.1180410286   -2.6210249616   -0.4385369890
 O   -0.1835649342   -3.8042765299   -0.6440064398
 C    1.1413201899   -1.8534324907   -0.3578103442
 N    1.1954683848   -0.5886525574   -0.1740401605
 H    0.9294027606    1.7596881146    0.4263898237
 H   -0.7765302440    1.8974226605    0.3664908058
 H    2.0612230146   -2.4259948152   -0.4608603865