18

 C   -0.1055326971    1.5441020306   -0.0698445193
 C   -0.0560376059    0.0308415282   -0.1583663558
 O   -1.3540192902   -0.4748355062    0.1862078649
 C   -1.4245698848   -1.8354738588    0.1783752874
 C   -1.6407512679   -2.6617839965   -1.1054244823
 C   -2.6362983753   -2.7234917378    0.0191202345
 N   -2.1465464325   -3.5744565488    1.1114765714
 C   -0.9707403487   -2.8079666230    1.2720302205
 O   -0.0224701940   -2.9327764334    1.9928221963
 H    0.8683148930    1.9682973567   -0.3313445634
 H   -0.8557474526    1.9468981166   -0.7564001366
 H   -0.3614415807    1.8617627895    0.9446243120
 H    0.2039614754   -0.2989382596   -1.1751978906
 H    0.6903023422   -0.3839753204    0.5308481210
 H   -1.9219216754   -2.0466788371   -1.9562615711
 H   -1.0240335800   -3.5249622372   -1.3388527858
 H   -3.6773353669   -2.4371858998   -0.0401124029
 H   -2.1219932986   -4.5869667531    1.0501378797