19

 C   -0.1144098810    1.6429127662    0.0588826007
 C   -0.1084428891    0.1160642933    0.0156102448
 N    0.6787917938   -0.4327047136    1.1200810103
 C    2.1603436562   -0.5119457235    0.9123681095
 C    2.2823239650   -1.7238505963    1.8853578581
 C    3.1256090914   -2.5416168297    0.8889458368
 C    2.1353071468   -1.7845997575   -0.0178487089
 C    0.9787090974   -1.8942047129    1.0478962610
 H    0.8940481366    2.0467452927   -0.0822273951
 H   -0.7499710055    2.0531280233   -0.7319980950
 H   -0.4851094609    1.9960457905    1.0253101367
 H   -1.1334300292   -0.2590217440    0.1310672176
 H    0.2435403325   -0.2265354017   -0.9739346246
 H    2.8105502945    0.3621616521    0.8472537550
 H    2.3334638096   -1.6607275199    2.9718043435
 H    4.1812524629   -2.2679655707    0.7987896253
 H    3.0170742668   -3.6295802889    0.9321804667
 H    2.0521817212   -1.8201148301   -1.1037058920
 H    0.2134520007   -2.6678255794    1.1400304297