14

 O    0.0112237397    1.3825626645    0.2301438271
 C    0.0236515182    0.0067763564    0.0455192279
 C   -1.3333785646   -0.7147728125    0.0456317405
 O   -2.0646939631   -0.1495575439   -1.0546045538
 C   -1.1401531675   -1.2048340702   -1.3270420854
 C    0.2584606849   -0.5689434728   -1.4393897404
 C    0.4771354504    0.3859481760   -2.5022409854
 C    0.6463578227    1.2070667105   -3.3642361402
 H   -0.6441677478    1.7383188561   -0.3844097382
 H    0.7461436351   -0.4160810082    0.7466769580
 H   -1.9099666019   -1.1133151154    0.8720194713
 H   -1.5202099182   -2.0898778793   -1.8222660629
 H    1.0456094538   -1.3293138227   -1.4187757799
 H    0.7998357282    1.9225943617   -4.1337328785