16

 C    0.0838767094    1.4322389368    0.2820660917
 N   -0.2348259810    0.0917312568   -0.2098327891
 C    0.5250127659   -0.5899506862   -1.1335061094
 C    0.6953726773   -1.9392134347   -1.0574555656
 N    1.3609648531   -2.6053706590   -2.0586426946
 N    1.9268063210   -2.0152336474   -3.1132719398
 N    1.8240008057   -0.7542239920   -3.2300381650
 C    1.1137471045    0.0629956740   -2.3117747431
 N    0.9908299690    1.3200487069   -2.5412498813
 H    0.9443832602    1.4351354129    0.9677063351
 H    0.3043655828    2.0755588730   -0.5673781592
 H   -0.7882780449    1.8137882716    0.8195756140
 H   -0.5960592741   -0.5146443179    0.5145394115
 H    0.3122086832   -2.5518653592   -0.2505195518
 H    1.4934645239   -3.6031075812   -2.0330285114
 H    1.4736392241    1.5317037756   -3.4173035319