16

 C   -0.0186423429    1.5178758834   -0.0294496047
 C   -0.0087858701    0.0246536840    0.0476844041
 N   -0.0367327752   -0.6777845723   -1.0738201746
 O   -0.0198033375   -2.0438075905   -0.7009408023
 C    0.0184530285   -2.0806098657    0.6279893732
 C    0.0278151120   -0.8326795280    1.1749425484
 C    0.0711379837   -0.9736182020    2.6671850013
 C    0.0833818618   -2.4891398697    2.8310651279
 C    0.0524835453   -3.1224836573    1.6381545384
 H    0.8759362040    1.9392784330    0.4409756988
 H   -0.0508166939    1.8399437725   -1.0718043542
 H   -0.8883053100    1.9303593436    0.4927424262
 H    0.9603289338   -0.5221635957    3.1266690062
 H   -0.7948631087   -0.5309451861    3.1767720799
 H    0.1133845911   -2.9698048622    3.8004095914
 H    0.0527031680   -4.1884531570    1.4612771501