17

 C   -0.0037139059    1.4708097579    0.0695202352
 C    0.0259089786   -0.0333766812   -0.0017495670
 C    0.1243838497   -0.6973460909   -1.2142097090
 C    0.1491470927   -2.1051762386   -1.2314479312
 N    0.3003924672   -2.7929959222   -2.4202990941
 C    0.0692969034   -2.7773855130   -0.0121645852
 C   -0.0259491126   -2.0068421521    1.1439725377
 O   -0.1047855936   -2.6456575251    2.3332315640
 N   -0.0497150975   -0.6797630176    1.1761468325
 H    0.0567631117    1.9258735422   -0.9219045973
 H   -0.9236574428    1.8105784203    0.5563699207
 H    0.8311588969    1.8383337349    0.6751304957
 H    0.1871637918   -0.1395645606   -2.1423327248
 H    0.0325911567   -2.3007984608   -3.2582142022
 H    0.0135141753   -3.7595243415   -2.4184866649
 H    0.0831891483   -3.8587312433    0.0517977733
 H   -0.1640366297   -1.9432435984    2.9957810366