18

 C    0.0982444770   -1.2173126470    0.0798829252
 C    0.0497622830   -0.0164593491    0.0492880288
 C   -0.0026280930    1.4427540397    0.0214465256
 C   -0.8384011215    2.0037623851    1.2055251441
 C   -0.7404119858    3.5031359725    1.3107477637
 C    0.3620553278    4.1697847318    0.9656559297
 C    1.5560931755    3.4601797830    0.4437865962
 N    2.0546663275    2.3093150914    1.2533679613
 C    1.3944514493    2.0563345503   -0.0259589519
 H    0.1386090024   -2.2779447377    0.1052539833
 H   -0.5004614597    1.7504113574   -0.9097157488
 H   -1.8789375486    1.6882833558    1.0831100519
 H   -0.4764590301    1.5420686734    2.1304450895
 H   -1.6003749024    4.0363403169    1.7060800739
 H    0.4141336124    5.2504105453    1.0583350516
 H    2.3053942589    4.0696530623   -0.0537907660
 H    3.0625008218    2.2232789805    1.1495337007
 H    2.0032319754    1.7265349583   -0.8646879290