17

 C   -0.2599059783    1.3778741503    0.0037221189
 N    0.1084698419   -0.0354694303    0.0431839200
 C    0.8650453880   -0.4476098942    1.2118854751
 C    0.0890069437   -0.5254010063    2.5820006098
 N   -0.1926813228   -1.9470787234    2.2841636195
 C    0.9313323555   -2.0016668738    1.3240242869
 C    2.1472387028    0.2548459425    1.2647984597
 N    3.1613483828    0.8040771312    1.3403352664
 H    0.6452438732    1.9881858156   -0.0690289045
 H   -0.8590176114    1.5586350755   -0.8922513938
 H   -0.8348213890    1.7249756385    0.8780217828
 H   -0.7219588369   -0.6169946617   -0.0062962446
 H    0.7507610627   -0.3528486917    3.4406033625
 H   -0.7969171710    0.1111280443    2.6740327898
 H   -0.1227066195   -2.5786342018    3.0736693005
 H    0.7265672700   -2.5392442229    0.3928551980
 H    1.8868232585   -2.3428968217    1.7412136131