19

 O   -0.2234486097    1.3940291205    0.6352991097
 C   -0.1013397741    0.1103771275    0.1450446959
 C   -0.1183544141   -0.2454227069   -1.3288986216
 C   -1.1534379744   -0.8325977377   -0.3963142977
 O   -0.5802725449   -1.9523572674    0.2994014051
 C    0.3928562627   -1.0866554837    0.9496172381
 C   -2.6226377888   -0.8020587144   -0.5624287426
 C   -3.3710679138   -2.0984176795   -0.7784652205
 C   -3.5189950465   -1.3485867817    0.5208038943
 H    0.5160425940    1.9175570428    0.3071356961
 H   -0.4924773726    0.5555743479   -1.9605515631
 H    0.6461299929   -0.8782892024   -1.7739415150
 H    1.4219442942   -1.4339614895    0.7981131745
 H    0.1770830401   -0.9931087420    2.0197608359
 H   -2.9793151830    0.0651111409   -1.1087741241
 H   -4.1972150102   -2.0972030649   -1.4806490571
 H   -2.7905230454   -3.0134936617   -0.7597180445
 H   -3.0348695414   -1.7729543572    1.3925382656
 H   -4.4494333148   -0.8291587406    0.7203342410