18

 C   -0.0353999330    1.4093058724    0.0772064531
 N   -0.0517659719   -0.0426594330    0.0560453232
 C    0.5364091514   -0.6516189234    0.9946974964
 N    0.6324686573   -2.0208164359    1.1540645220
 C    1.4054714451   -2.3233198467    2.2771641973
 C    1.7136568273   -3.7129819587    2.7031708806
 C    1.7486276467   -1.1519786552    2.8321402014
 N    2.4863621217   -0.8646589937    3.9737567769
 O    1.2118646652   -0.0987561348    2.0619621607
 H    0.9645225963    1.8271851762    0.2638434883
 H   -0.3840936027    1.7833514475   -0.8895185585
 H   -0.7036993331    1.8187003273    0.8492095995
 H    0.3012848488   -2.6629235609    0.4570788332
 H    2.2696377206   -4.2581257716    1.9307089774
 H    2.3195464592   -3.6846728119    3.6102590350
 H    0.7993783772   -4.2814699683    2.9115926490
 H    1.9438691295   -0.3574231426    4.6673436824
 H    3.3153471445   -0.3138917669    3.7691042823