17

 C    0.0620838777    1.5236639307    0.0042805145
 C   -0.0418283381   -0.0137185766   -0.0543311255
 N   -1.4169572005   -0.5177117886   -0.0320256431
 C    0.7738145289   -0.6059955507   -1.2252670265
 C    2.0168412809   -1.2297238008   -0.5996264049
 O    2.9817313679   -1.6917775070   -1.1494254061
 N    1.8314767558   -1.1886208720    0.7831496821
 C    0.6584475008   -0.5856531310    1.1952125168
 O    0.2607691228   -0.5046301583    2.3309121978
 H    1.1026725396    1.8666003597   -0.0134900704
 H   -0.4505519301    1.9619420652   -0.8588458685
 H   -0.4062941993    1.8966623382    0.9191053346
 H   -1.7974699365   -0.3649114608    0.8991825850
 H   -1.9919697345    0.0180905317   -0.6765226328
 H    0.2062381705   -1.3999216619   -1.7186033959
 H    1.0685999307    0.1223250734   -1.9840121417
 H    2.4915598633   -1.5989313009    1.4292770947