18

 N   -0.2209969357    1.0994566629   -0.5442107372
 C   -0.5092099482    0.0499087739    0.0943728285
 O   -0.5271513484   -1.1362277947   -0.5568597609
 C   -0.8797966724   -2.2980350530    0.1920011321
 C   -2.3505546947   -2.6349090601    0.0682511761
 C   -2.9069908482   -2.9869882861   -1.3066612541
 C   -2.7644906304   -4.0644332190   -0.2931171035
 C   -3.2758224925   -1.9273182601    0.9852245237
 O   -2.9382364895   -1.1401873681    1.8371739494
 H   -0.2427833067    1.8984390791    0.0863204062
 H   -0.7657537514   -0.0303161415    1.1560125402
 H   -0.2719749611   -3.1082601815   -0.2196077822
 H   -0.6176062791   -2.1685336774    1.2479788218
 H   -3.9026380020   -2.6303326351   -1.5480813852
 H   -2.1989848222   -2.9306524114   -2.1249437903
 H   -1.9591630719   -4.7829719699   -0.3958098792
 H   -3.6590359273   -4.4585124797    0.1775445344
 H   -4.3500228884   -2.1864871683    0.8385108202