21

 C    0.2314909901    1.5863353994   -0.1477422138
 C    0.0825541590    0.0870704497   -0.0934826686
 C    0.3338869667   -0.8208671732   -1.3112676128
 C   -0.4067860954   -1.8881809898   -0.4706463190
 C    0.6268242980   -2.1354759333    0.6559747914
 C    0.5354829866   -0.7070140128    1.2266113539
 C   -0.9386761925   -0.6961350409    1.7002917870
 O   -1.2727200659    0.5178287933    2.3475969464
 C   -1.2438644501   -0.7127373937    0.1933822588
 H    1.2851656345    1.8646679779   -0.2764609865
 H   -0.3225966265    2.0058328968   -0.9958305831
 H   -0.1351699942    2.0520871115    0.7690350445
 H   -0.2531024191   -0.4737459882   -2.1681712443
 H    1.3588303065   -1.0397963802   -1.6325514699
 H   -0.8872470636   -2.7517922792   -0.9295993871
 H    0.3326540774   -2.8975300103    1.3841295744
 H    1.6113058781   -2.3995123264    0.2597585810
 H    1.3286445615   -0.3391970412    1.8772724625
 H   -1.2600526072   -1.5571742389    2.3056736837
 H   -2.2296993158    0.6172658869    2.3152759401
 H   -2.2142288481   -0.4570599574   -0.2361821487