18

 C   -0.0905373505    1.5034370388    0.0565014509
 C   -0.0040005654    0.0024998517   -0.0074528832
 C   -0.0577050617   -0.6888704102   -1.2176079261
 C    0.0185582323   -2.0807264397   -1.1700096044
 C   -0.0425688003   -2.9244718057   -2.4144947951
 N    0.1484921056   -2.7341435019   -0.0129530589
 C    0.2048818106   -1.9750709425    1.0922810444
 N    0.3916615171   -2.6335719313    2.2759046949
 N    0.1257814173   -0.6370039095    1.1573647819
 H    0.8194118234    1.9138569286    0.5061224331
 H   -0.2246522011    1.9449094746   -0.9335458229
 H   -0.9251357466    1.8057433603    0.6968168933
 H   -0.1653185679   -0.1646610909   -2.1590442977
 H    0.8781676662   -3.5074632914   -2.5192823164
 H   -0.8660829817   -3.6418880626   -2.3431925660
 H   -0.1785312488   -2.3159216673   -3.3112991655
 H    0.2045691256   -3.6220524824    2.2746850749
 H    0.1882681058   -2.1167461185    3.1147258729