19

 C    0.0931546489    1.6296778152    0.2703888683
 C    0.0456669926    0.1036242012    0.1630026212
 C    0.7638326912   -0.5904033206    1.3253241790
 C    0.7557187549   -2.1294661733    1.1666475171
 O    1.3541012205   -2.5288263614   -0.0407611632
 C    1.4726639799   -2.7831040710    2.3314072729
 O    2.5287008766   -3.3620389405    2.1878592753
 C    0.8565844800   -2.7361791749    3.7322551215
 O   -0.2166897459   -2.2513185621    3.9746812659
 H    1.1259990784    1.9954921139    0.2673822864
 H   -0.4278065498    2.1004113759   -0.5689825807
 H   -0.3790857053    1.9803570144    1.1948487122
 H   -0.9989569266   -0.2332244441    0.1366817931
 H    0.5017069425   -0.2240012638   -0.7763230133
 H    1.8077699123   -0.2533000697    1.3721078258
 H    0.2860324895   -0.3266079411    2.2749656522
 H   -0.2916093215   -2.4678375562    1.1840376047
 H    2.1899030533   -2.9560234352    0.1992170341
 H    1.4989678385   -3.2209836467    4.4966158776