16

 C   -0.0768337799    1.5418232631   -0.0021687791
 C    0.1177875832    0.0432033033    0.0725116111
 O    1.1633330681   -0.4562378218   -0.8195077073
 C    1.7441772045   -1.1972934799    0.2392942975
 C    2.2528961846   -0.2750785505    1.3253400754
 C    0.7926583336   -0.6034923646    1.2883633617
 C    2.1875852055   -2.5854590630    0.0642882073
 O    2.1676945848   -3.1979886410   -0.9736659266
 H    0.8295677321    2.0820389406    0.2826986731
 H   -0.3430306599    1.8325633087   -1.0229765852
 H   -0.8907483925    1.8483744709    0.6632511428
 H   -0.8167702051   -0.4798993845   -0.1645272573
 H    2.8056923823   -0.7510440959    2.1292312933
 H    2.6269795144    0.6957606543    1.0165490379
 H    0.2818272225   -1.1088073734    2.0969933549
 H    2.5594500918   -3.0380697063    1.0134234807