17

 O   -0.7037834535    1.2611629009    0.9274103223
 C   -0.0990732566    0.2040366749    0.1755354686
 C    0.4691456680   -0.8525210997    1.1641649422
 O    0.8852385279   -0.3765310779    2.4090325273
 C   -0.8700745171   -1.6802124047    1.0461338386
 C   -1.8253744851   -1.4787340962    2.1931173192
 O   -2.3518389684   -2.3790010361    2.7952738379
 C   -1.2005230343   -0.8144465856   -0.2322741639
 O   -2.4860626291   -0.2995330092   -0.4100447992
 H   -0.4001587866    2.1053758404    0.5862492040
 H    0.5586811243    0.6041775498   -0.5999651146
 H    1.2959309101   -1.4160463002    0.7235280500
 H    0.3766870125    0.4295879334    2.5719196087
 H   -0.7554184661   -2.7521015891    0.8797822543
 H   -2.0286726517   -0.4205026520    2.4670457935
 H   -0.9282329223   -1.3653172368   -1.1365285824
 H   -2.5344316018    0.4964115981    0.1368985236