16

 O   -0.0543443260    1.4624914862   -0.0519411652
 C   -0.0583921531    0.0729127370    0.0160507199
 C    0.2242070577   -0.5959332726    1.4268759052
 C   -1.1225481411   -1.3122442392    1.3365218439
 C   -2.2173417514   -0.2962740446    1.2169244650
 C   -1.4220865422   -0.6415013644   -0.0107254460
 C    0.8785943505   -0.5021141276   -1.0173754906
 O    1.5165699701    0.1989462684   -1.7662048853
 H    0.5696009118    1.6932356519   -0.7592543150
 H    1.0947270819   -1.2573035084    1.4253472595
 H    0.3321059280    0.1356614381    2.2318940355
 H   -1.3060882952   -2.3378256011    1.6283277791
 H   -3.2282293710   -0.6906035479    1.2189291786
 H   -2.1142157137    0.6826893761    1.6761887065
 H   -1.8934524421   -1.0461399393   -0.8988605624
 H    0.9503417557   -1.6082574027   -1.0472883588