18

 C   -0.3165090411    1.5888231984    0.0287053915
 C    0.0434270830    0.0998594518    0.0715433156
 C    0.7372346687   -0.4005392456   -1.1939359564
 C    0.7168590063   -1.9572011244   -1.4253255371
 C   -0.1474859989   -1.6533505405   -2.6720162616
 O   -0.6957990521   -2.2962997099   -3.5218255004
 N   -0.0421020330   -0.2999049529   -2.4418306032
 C    2.1464415741    0.1481654857   -1.3722363639
 O    2.7752436305    0.7252718432   -0.5244233773
 H    0.5775828253    2.2091469202   -0.0706382491
 H   -0.9896682798    1.8120367653   -0.8066418595
 H   -0.8305012464    1.8852028178    0.9472422926
 H    0.7107250108   -0.0939920494    0.9176266948
 H   -0.8626640543   -0.4969321364    0.2249241433
 H    1.6790848752   -2.4192359826   -1.6580778571
 H    0.2190178974   -2.5202325608   -0.6349057351
 H   -0.4631962168    0.4914467831   -2.9071400721
 H    2.5678561509   -0.0504468829   -2.3848636249