22

 C   -0.0126315272    1.5371763719   -0.0389009196
 C   -0.0156461560    0.0061887264    0.0057714597
 C    0.6971438578   -0.5399491252    1.2468201950
 C    0.7864427714   -2.0789949806    1.3092831874
 C    1.5824472052   -2.4969414649    2.4656972875
 C    2.2458156181   -2.8256104930    3.4122295076
 N   -0.5593898318   -2.6702322547    1.3951258601
 C   -1.1391265967   -3.1554141080    0.1426670784
 C   -0.6400974609   -4.1097805163    1.1668863596
 H    1.0090796170    1.9327486144   -0.0551349801
 H   -0.5288446967    1.9103612417   -0.9288710927
 H   -0.5151133658    1.9582607063    0.8388206042
 H   -1.0487736292   -0.3565335114   -0.0133448587
 H    0.4692629408   -0.3865942310   -0.8984147399
 H    1.7190857858   -0.1444184776    1.2883466506
 H    0.1867399443   -0.1969815362    2.1536000396
 H    1.3076315046   -2.4334734102    0.3985172709
 H    2.8305483002   -3.1205095551    4.2481201062
 H   -2.2035691431   -2.9782694714    0.0181125010
 H   -0.5514002150   -3.0501599075   -0.7677360759
 H    0.2827771066   -4.6426105034    0.9459236682
 H   -1.3312006393   -4.6474993741    1.8091005310