18

 C   -0.0263857188    1.6168958439   -0.6460802304
 C   -0.0285942750    0.1849168555   -0.1466065029
 C    1.2311869948   -0.6419406425   -0.2235102907
 C    0.7174291251   -0.1672355966    1.1140063650
 N   -1.2461092812   -0.5503946995   -0.3873500179
 C   -2.4110505903   -0.2924169384    0.2804845578
 N   -2.5013481646    0.5322662306    1.2558423543
 C   -3.5432123411   -1.0694353979   -0.2100048636
 N   -4.4672665305   -1.6614059514   -0.5747763281
 H    0.9319114353    2.0972559408   -0.4287262353
 H   -0.1857970574    1.6554900101   -1.7296169196
 H   -0.8166975838    2.1909665923   -0.1553939520
 H    1.1315607442   -1.6970839522   -0.4539782152
 H    2.1129426085   -0.1698041323   -0.6421451619
 H    1.2444689302    0.6333734645    1.6199079112
 H    0.2664687676   -0.8985531285    1.7726759532
 H   -1.3209025571   -1.0642161760   -1.2512660069
 H   -3.4437762558    0.5415440775    1.6374065129