18

 C   -0.0235163733    1.5138105601    0.0147440701
 C   -0.0442694209    0.0026114992    0.0170482423
 C   -1.4160629442   -0.6786190951   -0.0085007196
 C   -1.1094669147   -2.1361138432    0.4081229330
 C    0.2890127042   -2.0290502194    1.0056634803
 C    1.4441315962   -1.5558065546    0.1676829504
 N    0.7260165642   -0.6492259046    1.1870922230
 C    0.9545841904   -0.6862681287   -0.9362745180
 O    1.3455012049   -0.4359766347   -2.0432051373
 H    0.9965883114    1.8921658514    0.1184207207
 H   -0.4310098924    1.8910290642   -0.9279048322
 H   -0.6250644882    1.9092343073    0.8391496826
 H   -2.0778122284   -0.1927695386    0.7168494809
 H   -1.8854081353   -0.6022725740   -0.9927395284
 H   -1.8164239718   -2.5024722049    1.1571057758
 H   -1.1379217389   -2.8315084263   -0.4353733161
 H    0.5698262383   -2.6990154291    1.8138932333
 H    2.4536876984   -1.9259403490    0.3118123891