12

 N    0.0774840438    1.3455731371    0.1482060530
 C    0.0360744263   -0.0222597637    0.0439758901
 N   -1.0912654142   -0.6966185719    0.0249403991
 O   -0.7103331385   -2.0516855265   -0.0141678787
 C    0.6166123125   -2.1329469945   -0.0284204133
 C    1.1857401461   -0.8935887574    0.0046580727
 C    2.5403021587   -0.5075919747   -0.0034200681
 C    3.6825534381   -0.1247410144   -0.0181887215
 H    0.9077315587    1.7741340681   -0.2327948329
 H   -0.7785367151    1.8162899300   -0.1057950456
 H    1.0404741672   -3.1246858349   -0.0629685256
 H    4.6953695665    0.1944925528   -0.0206079591