25

 C   -0.2343866524    1.5746101099    0.1457682682
 C   -0.0545279399    0.0550863941    0.0159583857
 C   -1.4144355685   -0.6553221375    0.0776722774
 C    0.7029077377   -0.3541145771   -1.2625371131
 C    2.1877017093   -0.0047057754   -1.3076594491
 C    2.9601649950   -0.6152986062   -2.4833575979
 C    4.1810804738    0.3113782770   -2.5817301158
 C    3.6216143583    1.6677220494   -2.0957992843
 O    2.3655857152    1.4042304235   -1.4709158855
 H    0.7230086378    2.0965187986    0.1167677383
 H   -0.8461842456    1.9611982545   -0.6786125383
 H   -0.7457739633    1.8240559671    1.0820297905
 H    0.5414533322   -0.2911901438    0.8737345722
 H   -2.0440044119   -0.3688799683   -0.7736159945
 H   -1.3025378190   -1.7448842448    0.0559379673
 H   -1.9567852663   -0.3910114234    0.9915098991
 H    0.6287228002   -1.4440462584   -1.3759013853
 H    0.2173336702    0.0879529729   -2.1430912485
 H    2.6604442550   -0.3264257306   -0.3610749620
 H    3.2247659426   -1.6629568176   -2.3188270356
 H    2.3481859299   -0.5558519889   -3.3908878936
 H    4.9769063266   -0.0364479950   -1.9156121071
 H    4.5985604612    0.3695934414   -3.5895640459
 H    4.3022588321    2.1566152860   -1.3858116234
 H    3.4453964496    2.3653166326   -2.9234311389