19

 O   -0.0710896047    1.4099066082    0.0172247512
 C   -0.0207854289    0.0260231536    0.0024067482
 C   -1.3024570367   -0.8699089774    0.0576992427
 C   -0.4281328714   -1.8698167107    0.7750954660
 C   -0.5039109657   -1.8561690991   -0.7599379437
 C    0.5408332997   -0.8169670872   -1.1936308353
 C    1.9999475281   -1.1849864184   -0.8922984141
 C    2.0771641879   -1.1990589506    0.6720261939
 C    0.6551775026   -0.8375791081    1.1221307939
 H    0.8295818349    1.7511036745   -0.0223660191
 H   -2.3586613188   -0.6549862408    0.1117567126
 H   -0.7333733277   -2.7339751015    1.3513915410
 H   -0.8652147373   -2.7102323321   -1.3185889310
 H    0.3420120857   -0.3876785191   -2.1777469432
 H    2.2717607038   -2.1509260787   -1.3288534845
 H    2.6898651602   -0.4455405536   -1.3147953774
 H    2.3895114732   -2.1725294992    1.0622821649
 H    2.8061928916   -0.4669215745    1.0377566285
 H    0.5546670636   -0.4260211654    2.1285248155