20

 N   -0.0743018052   -1.2301090143   -0.0050599576
 C   -0.0422579166   -0.0748795582    0.0017617935
 C    0.0019668582    1.3849857215    0.0101115767
 C    1.4158306045    1.9715439638   -0.0009189154
 C    2.5125136789    1.2385239974    0.7374749402
 C    2.4962665618    1.2486673732   -0.7725111268
 C    1.4890151906    3.4774310450    0.0085418723
 C    0.5258908006    4.3760243648   -0.7289191049
 C    0.5443356885    4.3654445574    0.7818057858
 H   -0.5621982664    1.7367733409   -0.8620236641
 H   -0.5441500923    1.7261441077    0.8978223636
 H    3.2549191941    1.8382798567    1.2525459900
 H    2.2685638913    0.3055941166    1.2335645843
 H    2.2415073550    0.3224465635   -1.2756987265
 H    3.2275377455    1.8553254099   -1.2953690314
 H    2.5198246343    3.8222544014   -0.0016073932
 H    0.9302636020    5.2376475177   -1.2482990838
 H   -0.3319163432    3.9344884794   -1.2242066237
 H   -0.3011596604    3.9168148256    1.2916904630
 H    0.9614071488    5.2197829600    1.3031750280