19

 O   -0.1275161103    1.3759874452    0.0930697558
 C   -0.0553422644   -0.0546154233    0.1108110602
 C   -1.4811384753   -0.5544555790   -0.1294494539
 C   -1.6061677860   -0.4773311650   -1.6786076663
 N   -0.2248714080   -0.6351757791   -2.1512825288
 C    0.6635194313   -0.5713266441   -1.1265767655
 N    1.8974149715   -0.8832484019   -1.0171211555
 C    2.2367302435   -0.7140480349    0.4135931463
 C    0.8853426379   -0.5951700143    1.1938356102
 H    0.7567046899    1.7180788123   -0.0795803389
 H   -1.5757439101   -1.5926127230    0.2018543313
 H   -2.2325104495    0.0515879564    0.3796813140
 H   -2.2506028053   -1.2660877748   -2.0796228549
 H   -2.0191107669    0.4893542919   -1.9901647064
 H    0.0009734271   -1.0548684480   -3.0369727891
 H    2.8283506403   -1.5700974703    0.7536667072
 H    2.8720459907    0.1726192226    0.5560228204
 H    0.9306078509    0.0592299426    2.0672901504
 H    0.5640379527   -1.5884400031    1.5229258837