19

 O   -0.0648422530    1.4150146682   -0.0516621232
 C    0.0026542440   -0.0034001657    0.0308004592
 C   -1.4193150138   -0.5448682846    0.0128719907
 C   -2.1985301866   -0.2095254174   -1.2865435579
 C   -3.2281684833   -1.3510108418   -1.4667348219
 C   -2.5774483531   -2.5446759390   -0.7918742651
 N   -1.1599270581   -2.7316266537   -1.1789192005
 C   -1.4978769188   -2.0615447305    0.1011385560
 H    0.8318761446    1.7541111023   -0.1232084489
 H    0.5572780971   -0.4313446426   -0.8178149603
 H    0.5126000357   -0.3198165883    0.9562694047
 H   -1.9521591042   -0.1297985144    0.8792800492
 H   -2.6623227740    0.7772703010   -1.2440872839
 H   -1.5024118073   -0.2065748112   -2.1288622357
 H   -4.1675308116   -1.1222240806   -0.9484037342
 H   -3.4689435194   -1.5325179722   -2.5191516073
 H   -3.1672269971   -3.4225848764   -0.5465439796
 H   -0.8904632702   -3.6929557075   -0.9855826669
 H   -1.2560547009   -2.5644424557    1.0328457556