14

 C   -0.0359524190    1.4587924255    0.1423274981
 C    1.2788008783    0.7334006518    0.0343181329
 O    1.9892350696    0.4078382189    1.2328583017
 C    1.1822041518   -0.4285791305    1.9157955289
 N    1.2198149732   -0.9756703732    3.1023650493
 C    0.0274889897   -1.6652948679    3.0925094302
 N   -0.7238717479   -1.5519259526    2.0045034655
 N    0.0689183234   -0.7498663603    1.2367440495
 C   -0.0277353899   -0.0508294349   -0.0031205383
 H   -0.3351540044    1.8748746547    1.0977574322
 H   -0.3251598016    2.0352801619   -0.7294247632
 H    1.9437914684    0.8683028934   -0.8070662157
 H   -0.2883335456   -2.2741333613    3.9264513017
 H   -0.4225826961   -0.5774232157   -0.8619512328