21

 C   -0.4063828723    1.5550313791    0.3252452209
 C   -0.1348429599    0.0605901262    0.2273912606
 C    0.3195079868   -0.4874376197   -1.1319854853
 O    1.6147224021    0.0817806757   -1.4017022430
 C    1.5397715862   -1.0879253713   -0.5728560809
 C    2.3421665691   -2.2957412907   -0.9251812130
 C    1.1897004556   -0.5765123963    0.8451721387
 C    2.1970905221    0.3432537767    1.5143871484
 O    0.9040748822   -1.7155130039    1.6432659384
 H    0.3979839476    2.1279274544   -0.1435282594
 H   -1.3431344562    1.8126989737   -0.1813856156
 H   -0.4971763608    1.8813772308    1.3670785443
 H   -0.9759189900   -0.5259256692    0.6109897774
 H   -0.2758307693   -0.7759002534   -1.9921052623
 H    2.2406051593   -2.5266503602   -1.9889855796
 H    3.4048009766   -2.1354032740   -0.7107689423
 H    2.0031752670   -3.1518823200   -0.3362133674
 H    2.5081030960    1.1379190137    0.8330541601
 H    1.7689004471    0.8113449329    2.4095757569
 H    3.0801827521   -0.2267396569    1.8198489415
 H    0.6062103089   -1.4087213877    2.5062813116