20

 C   -0.0215747870    1.5273055796    0.0588490281
 C   -0.0318954513    0.0177072183    0.0769091570
 C   -1.2485017397   -0.6596181142   -0.5379631118
 C   -1.0867468350   -2.1874568821   -0.6494918285
 C   -0.6990394897   -2.8197344215    0.6808675134
 N    0.7005830706   -3.2688345573    0.8214122462
 C    0.2454005287   -2.0756476579    1.5552143282
 C    0.7322346109   -0.7282704662    1.0986343585
 O    1.2221453842   -0.6100528002   -0.2379538437
 H    0.8819809208    1.9147549929    0.5366248737
 H   -0.0503739685    1.9009670269   -0.9708205659
 H   -0.8948279687    1.9292034144    0.5843202805
 H   -2.1266825077   -0.4071895712    0.0723064649
 H   -1.4323834189   -0.2357893278   -1.5329658027
 H   -2.0198875386   -2.6242604816   -1.0186677082
 H   -0.3046892212   -2.4110660623   -1.3785892220
 H   -1.4638451317   -3.4132496930    1.1762313694
 H    0.7492270344   -4.0576364970    1.4616279409
 H    0.1216962804   -2.1549699356    2.6333856837
 H    1.3066386681   -0.1616606841    1.8331324584