15

 C   -0.0123951274    1.4490620562   -0.4948732326
 C   -0.0773266843    0.1342618459    0.2990743919
 C   -1.4093945454   -0.5437417478    0.1922166267
 N   -2.1852161597   -0.6612354837    1.2475026605
 O   -3.3337412209   -1.3106862974    0.8307443921
 C   -3.2193599351   -1.5738867001   -0.4885095146
 C   -2.0274855712   -1.1149940221   -0.9582338496
 C   -4.2921085511   -2.2438309874   -1.1253943391
 N   -5.1586645096   -2.7899591645   -1.6638076752
 H    0.9757846847    1.9058141567   -0.3929340336
 H   -0.1972213818    1.2835451945   -1.5609265626
 H   -0.7576511662    2.1619225782   -0.1307680443
 H    0.6990355764   -0.5519898755   -0.0591287818
 H    0.1220718849    0.3200895930    1.3579683447
 H   -1.6500295535   -1.1792407261   -1.9648377023