17

 C    0.0356675171    1.4608576645   -0.0217647612
 O    1.4616118525    1.4559808417   -0.3029494557
 C    1.5249329291    0.0576582010   -0.0574457973
 C    0.0177475990   -0.0500866230    0.1958573306
 C    0.6489405410   -0.7130896982   -1.0086918523
 O    0.3903575250   -0.2488864715   -2.3123715066
 C    0.3459536644   -1.3592136753   -3.2112245884
 C    0.5711698697   -2.5704965794   -2.3480693776
 C    0.7422625521   -2.1879774714   -1.0856214415
 H   -0.1689907105    2.0362473108    0.8873048877
 H   -0.5515164752    1.8484295497   -0.8601442793
 H    2.4016191907   -0.3303326544    0.4524298453
 H   -0.5595418014   -0.5802737929    0.9429761140
 H   -0.6268883151   -1.3782831761   -3.7262074863
 H    1.1212584507   -1.2423175111   -3.9843672984
 H    0.5910398789   -3.5819913371   -2.7315027082
 H    0.9278711922   -2.8190159574   -0.2266155049