17

 C   -0.1747759878    1.4821226855    0.0759592273
 C    0.1566872839   -0.0118131913   -0.0417444225
 C    0.7553833952   -0.5710124121    1.2058009703
 C    0.1012017928   -1.0368438228    2.4649945807
 C    1.0574278116   -1.9671482135    1.6896867123
 O    0.6894363259   -3.1779166516    1.1660844154
 C    2.4657855207   -1.4445785015    1.8921213194
 O    3.5425871738   -1.8593357043    2.1679144752
 O    2.1128374057   -0.1395982055    1.5639120493
 H    0.7239691602    2.0614490025    0.3053588007
 H   -0.5925532265    1.8584217951   -0.8619166124
 H   -0.9050517146    1.6626826091    0.8708853632
 H   -0.7470336559   -0.5886155551   -0.2693220030
 H    0.8571245507   -0.1791505482   -0.8678948483
 H    0.3819252789   -0.6103716787    3.4227136565
 H   -0.9368509408   -1.3439450483    2.3667240158
 H    0.5712003463   -3.8064999393    1.8873700499