19

 C    0.0898614560    1.4859608961    0.0628639869
 C    0.0041169710   -0.0414816725    0.0470263202
 C   -1.4453525575   -0.5459390819   -0.0743727439
 C   -1.5393260468   -2.0349202254   -0.0334877750
 N   -1.9731423707   -2.7416156785   -1.0436972225
 O   -1.8816404253   -4.0646869670   -0.5799696996
 C   -1.3983256189   -3.9986500913    0.6672652828
 C   -1.1997736502   -5.2710332549    1.4092738808
 N   -1.1656602790   -2.7846808406    1.0656778192
 H    1.1278818752    1.8215863227    0.1467755630
 H   -0.3272748161    1.9181158143   -0.8534650993
 H   -0.4655231503    1.9051886906    0.9092356173
 H    0.5906786375   -0.4401132177   -0.7893803420
 H    0.4453536730   -0.4537780817    0.9609314907
 H   -2.0397139920   -0.1391354307    0.7531503311
 H   -1.8973243755   -0.1950037522   -1.0069103273
 H   -0.5040690060   -5.9247394481    0.8746729039
 H   -0.8009909794   -5.0509112510    2.3991757317
 H   -2.1467985952   -5.8095432200    1.5112940619