20

 C    0.2005870453    1.2468631172   -0.4817839154
 C    0.2863054422   -0.2271382935   -0.0771866006
 C    0.6692275273   -0.4458556206    1.4047713772
 C    0.6204134705   -1.9298438895    1.8622305551
 C    2.0711206079   -2.3872283249    1.9539017822
 N    2.8117636681   -2.1439757630    0.7120946267
 C    2.9734584082   -1.2063870560    1.8674859145
 C    2.1106683462    0.0129211051    1.7020030894
 O    2.4767268690    1.1539722876    1.8436948545
 H    1.1483055485    1.7649128620   -0.3149399896
 H   -0.0602868651    1.3413702054   -1.5405451332
 H   -0.5656776952    1.7717521908    0.0997810422
 H   -0.6861429452   -0.7086515347   -0.2411206919
 H    1.0058403914   -0.7588832251   -0.7077953527
 H    0.0063724733    0.1715440894    2.0204499978
 H    0.1543208587   -2.0128923635    2.8496768295
 H    0.0479960689   -2.5575987653    1.1719883338
 H    2.3327331043   -3.2448937371    2.5653136376
 H    3.6376602327   -2.7383327447    0.6843538819
 H    3.9325092931   -1.1256266797    2.3647365010