27

 C   -0.6376874037    1.1088356243   -0.9503876738
 C   -0.3534998194   -0.3672631663   -0.6580208981
 C    0.2859261369   -0.5893226105    0.7182038821
 C    0.6097126304   -2.0629260359    1.0447023306
 C    1.8543469596   -2.5565759665    0.2727045516
 C    1.9295962091   -4.0718733735    0.0532210311
 C    0.7633556032   -2.2062368952    2.5610150132
 O    0.9524897015   -3.5583131078    2.9236280773
 C    1.1106534157   -3.7342443463    4.3096992778
 H    0.2852700394    1.6994549847   -0.9397647091
 H   -1.1044413135    1.2392148342   -1.9317997420
 H   -1.3119524001    1.5390902364   -0.2012817532
 H   -1.2893397954   -0.9389398849   -0.7127757015
 H    0.2944199327   -0.7725552380   -1.4446189919
 H    1.2063648236    0.0074195543    0.7938125460
 H   -0.3954621856   -0.1880650639    1.4809734306
 H   -0.2528271377   -2.6766867942    0.7476964575
 H    1.8826157645   -2.0620507491   -0.7054318515
 H    2.7528925147   -2.2137535935    0.8043861011
 H    1.0648125310   -4.4250860718   -0.5202817794
 H    2.8299944477   -4.3385535754   -0.5104216656
 H    1.9406526136   -4.6067528069    1.0036411711
 H    1.6192175863   -1.5979654680    2.9075331120
 H   -0.1348270464   -1.8092071276    3.0657425176
 H    1.9921685855   -3.1958288910    4.6935214596
 H    0.2282114606   -3.3838772327    4.8691804396
 H    1.2426026058   -4.8033708149    4.4935791472