17

 O    0.0493613930    1.4800266104   -0.2236534184
 C    0.0286707958    0.0818356440   -0.0788489204
 C    0.6817094659   -0.5802393557   -1.2357934571
 N    1.2150787656   -1.1041075795   -2.1171757991
 C    0.7245787230   -0.3577062702    1.2318948341
 N    1.8599671361    0.5568437143    1.5904413763
 C    1.3188862370    0.6561813295    2.9726642589
 C    0.0085845075    1.3702506408    2.9368123145
 C    0.0578936153   -0.1036838555    2.5910818439
 H    0.9127670107    1.7457508996    0.1407728398
 H   -1.0194663626   -0.2390832977   -0.0588122026
 H    1.0388754968   -1.4023057693    1.1531174134
 H    2.7503866168    0.0732251161    1.5569044242
 H    1.9625207159    0.5826485677    3.8399523473
 H   -0.4285859183    1.5674835817    3.9106423159
 H   -0.1951104548    2.1177614717    2.1795181547
 H   -0.5094826639   -0.8474220080    3.1344285547