18

 C   -0.0183541768    1.5817064012   -0.0459990902
 C   -0.0674138148    0.0834930213    0.0318187751
 O    0.9611270168   -0.6105584444   -0.8403042087
 C    0.6109405172   -1.7608098182    0.0744699560
 C    1.1435239590   -2.8075939246    1.0901278245
 N    0.4241312776   -1.9802786740    2.1792366187
 C    0.5919463049   -0.8027402322    1.1980506842
 C   -0.8724910478   -1.9603074343   -0.2885589787
 C   -1.3278708066   -0.7089225223   -0.3125195446
 H    0.9677886216    1.9524261285    0.2438441016
 H   -0.2267268565    1.9190350235   -1.0662954681
 H   -0.7681263709    2.0181530359    0.6214539891
 H    0.7993886375   -3.8416198165    0.9905450983
 H    2.2188513998   -2.7764817100    1.2713332914
 H   -0.5518067499   -2.2821669247    2.1751694648
 H    1.5710246087   -0.3731409898    1.4207719458
 H   -1.3640934011   -2.9038067178   -0.4811242387
 H   -2.3055365686   -0.3029840215   -0.5291334806