16

 C   -0.0370967659   -1.1887265147    0.2344435239
 C   -0.0033920523    0.0055854409    0.1165174922
 C    0.0507525086    1.4524296951   -0.0298223270
 C    1.4852414708    2.0053762627   -0.1170730723
 C    1.6301274203    3.5497224001    0.0037358914
 C    2.4862044069    3.2259011068    1.2429462082
 O    2.2197897222    1.8078778649    1.1061861030
 C    2.2047553284    1.4373445285   -1.2709980530
 N    2.7744318673    1.0323824300   -2.1909948072
 H   -0.0637978370   -2.2456202889    0.3354672695
 H   -0.4949608387    1.7673098130   -0.9287648020
 H   -0.4284584967    1.9393370189    0.8273757273
 H    2.1383899395    4.0422329478   -0.8238131206
 H    0.6851986125    4.0549144056    0.2094544912
 H    3.5539754515    3.4460676196    1.1404094301
 H    2.1257757226    3.6116215497    2.2013926353