23

 C   -0.1744302977    1.4294647243    0.0115731689
 O    0.0371466270    0.0387778899   -0.0609026163
 C    0.7414303443   -0.5225740938    1.0438676582
 C    0.1682986223   -1.9125750992    1.3801220066
 C    1.3779219722   -2.7839432405    1.7996096603
 C    1.2757839632   -4.2509858010    1.3670223430
 C    2.5352285804   -2.0309729024    1.1827029164
 C    2.2087088408   -0.8096236915    0.7573828940
 C    3.0993654197    0.2043678365    0.1124544746
 H    0.7626530698    2.0049721711   -0.0162363752
 H   -0.7768230283    1.7088603206   -0.8571886443
 H   -0.7220321664    1.7123416809    0.9243338204
 H    0.6526127390    0.1667394497    1.9009536089
 H   -0.6258846926   -1.8784168868    2.1305169791
 H   -0.2656315042   -2.3067224956    0.4546887371
 H    1.4797596578   -2.7654675557    2.8959348768
 H    1.1864915253   -4.3301306241    0.2780474380
 H    2.1612455684   -4.8181522311    1.6742144434
 H    0.3997784781   -4.7336209351    1.8135404492
 H    3.5332202249   -2.4570459863    1.1245707139
 H    4.1069198312   -0.1897028746   -0.0462736050
 H    2.6942565181    0.5126308189   -0.8581516021
 H    3.1842700768    1.1124907257    0.7239745443