19

 C    0.0192690394    1.4864031132   -0.0097457691
 N    0.0535051887    0.0356838172   -0.0013900649
 C    0.6079641341   -0.5083613518   -1.2313532362
 C    0.7757861009   -1.9984211091   -1.1717816839
 C    0.6624051426   -2.7024997502   -0.0508335934
 C    0.3984321983   -2.0271353866    1.2809704040
 C    0.6913975004   -0.5156329055    1.1791282520
 C   -0.9750281789   -2.2833360694    1.7377597627
 N   -2.0474239306   -2.4987158079    2.1111789087
 H    1.0246025505    1.9482446995   -0.0485375568
 H   -0.5425044771    1.8344688107   -0.8823993307
 H   -0.4897611340    1.8503791118    0.8875994603
 H   -0.0637519479   -0.2491746124   -2.0606203194
 H    1.5888716827   -0.0493728829   -1.4851230234
 H    1.0053912938   -2.4946456882   -2.1104319163
 H    0.7609444076   -3.7829923841   -0.0480346094
 H    1.0666473199   -2.4556102856    2.0399582029
 H    1.7914096844   -0.3840568571    1.1729897721
 H    0.3053323751   -0.0008147314    2.0631798805