19

 C    0.0591111179    1.4841616734   -0.0762529065
 C    0.0239832152    0.0298277650   -0.0289904363
 C   -0.0055784345   -1.1731376296    0.0126821606
 C   -0.0310515605   -2.6476363198    0.0336148631
 C   -1.4803347380   -3.1651772461    0.0727137371
 O    0.5210557976   -3.1755040330   -1.1805503877
 C    0.7276987964   -3.1368749072    1.1998812318
 C    1.3612403750   -3.5514108880    2.1361081070
 C    2.1257904794   -4.0503548411    3.2697177083
 H    0.8121152290    1.8874015902    0.6097162147
 H    0.3006813672    1.8414452870   -1.0833699406
 H   -0.9094693822    1.9130570984    0.2031100690
 H   -2.0125750639   -2.8043689620   -0.8102324022
 H   -1.4699994738   -4.2573902812    0.0681807543
 H   -1.9862623480   -2.8103066037    0.9722219155
 H    1.4327536728   -2.8674130574   -1.2342291532
 H    2.8126849493   -4.8470650385    2.9635752191
 H    2.7223139124   -3.2548187410    3.7295569660
 H    1.4665280486   -4.4611174354    4.0422377200