25

 C    0.6527951472    1.6548390507    0.2042660134
 C    0.1866819210    0.1937291413    0.1791085400
 C    0.7108103011   -0.6560770741    1.3575571706
 C   -0.0412456016   -0.2981026598    2.6532754823
 O    0.5308934883   -0.8627603356    3.8230325952
 C    0.6868376431   -2.1824878545    1.0872716916
 C   -0.6771409549   -2.7283996846    0.6381882407
 C    1.7870335755   -2.5972553350    0.1056769556
 O    1.8597088080   -4.0175835190    0.1008022744
 H    1.7462621928    1.7188498825    0.1819395251
 H    0.2699436702    2.2014486629   -0.6633424973
 H    0.3108917214    2.1843501144    1.0987854434
 H   -0.9106252990    0.1619828767    0.1634863013
 H    0.5085080313   -0.2548003406   -0.7674071235
 H    1.7608256051   -0.3815104367    1.5345326237
 H   -0.0041030457    0.7840107268    2.8090902604
 H   -1.1046016641   -0.5691210045    2.5588496452
 H    0.3407222041   -1.8051202845    3.8265597129
 H    0.9586932594   -2.6803110239    2.0290447751
 H   -0.9922252338   -2.2822855445   -0.3111710989
 H   -0.6129824345   -3.8088381254    0.4936232649
 H   -1.4627897013   -2.5297371070    1.3739218395
 H    1.5658074381   -2.2162522796   -0.9040552511
 H    2.7457288088   -2.1568789527    0.4225995771
 H    2.4929156098   -4.2845561633   -0.5713442317