23

 C    0.3760339971    0.9679927429    0.4738124981
 O   -0.3419359396    0.1318524584   -0.4093725847
 C    0.4770963956   -0.5167386250   -1.3307880662
 C    1.1917885943   -1.7832647777   -0.9198281489
 C   -0.0002553421   -1.8348777843   -1.8597135183
 C   -1.3229300020   -2.4263419725   -1.4096553174
 C   -1.3871967145   -3.9327069313   -1.5672381549
 C   -0.9165128906   -4.8476444441   -0.4646068571
 C   -2.3889747846   -4.7398489897   -0.7821917338
 H    1.1087880090    0.4008453411    1.0659151219
 H    0.9118374715    1.7631330838   -0.0671158711
 H   -0.3517126402    1.4278069533    1.1468115468
 H    0.9918446226    0.1595690758   -2.0161813220
 H    2.1857835328   -1.9826468580   -1.3053849192
 H    1.0230555998   -2.1215034399    0.0971910027
 H    0.2358358781   -2.0195123392   -2.9054851290
 H   -1.5059967366   -2.1526212934   -0.3652526193
 H   -2.1344591570   -1.9643412502   -1.9885563595
 H   -1.1941900487   -4.2830406101   -2.5790353848
 H   -0.3962332805   -5.7609592487   -0.7317559899
 H   -0.5648174587   -4.3928396745    0.4556839458
 H   -3.0209777935   -4.2108190324   -0.0758982874
 H   -2.8753524922   -5.5788027145   -1.2678036018