21

 C   -0.0464651096    1.5893686939    0.0860705370
 C    0.0315376478    0.0541817531   -0.0135638483
 C    0.7391871263   -0.4467750387   -1.2413762838
 C    1.9913632756   -0.9150386610   -1.3055545130
 C    2.3960017867   -1.3463219447   -2.6987427044
 C    1.1142420861   -1.1423030987   -3.4939716944
 O    0.0110953483   -1.9340092328   -3.0436033913
 C    0.0967741901   -0.5487518386   -2.6070076790
 C   -1.0318973965    0.3364607194   -3.0576689799
 H    0.9562559702    2.0276208086    0.0825052600
 H   -0.6036494401    2.0240370305   -0.7486183709
 H   -0.5469838372    1.8900105880    1.0119442395
 H    0.5522033408   -0.3290796611    0.8710616771
 H   -0.9842193759   -0.3607581678    0.0225036781
 H    2.6482608099   -1.0324340953   -0.4495851143
 H    3.2142524974   -0.7352351321   -3.1024083628
 H    2.7322779712   -2.3900401378   -2.7312663046
 H    1.1463660901   -0.9570559018   -4.5652399059
 H   -1.9022778224    0.2334519685   -2.4003737693
 H   -0.7331315554    1.3897063658   -3.0580521396
 H   -1.3400986633    0.0598601727   -4.0687860405