17

 C   -0.3102914702    1.5165299759    0.0953743348
 C    0.1975941613    0.0819384778   -0.0781791199
 C    0.8024681719   -0.4887954752    1.2010257573
 C   -0.0999232449   -1.0985307276    2.2510184348
 C    0.8048177027   -2.0096441230    1.4502847027
 C    0.2542195731   -2.8863072849    0.4550310400
 N   -0.1899124541   -3.5919923513   -0.3465937968
 C    1.9819746250    0.1946095026    1.6781220590
 N    2.9254313940    0.7507549476    2.0499738559
 H    0.4992472325    2.1913061742    0.3894881702
 H   -0.7322877561    1.8855055082   -0.8431685409
 H   -1.0905347075    1.5718663128    0.8613080086
 H   -0.6189374950   -0.5756485360   -0.3921805439
 H    0.9517579676    0.0412377714   -0.8716075234
 H    0.1454843143   -0.9580893910    3.2962631807
 H   -1.1582939686   -1.1190938976    2.0192504015
 H    1.6754456342   -2.4061249941    1.9606173193