20

 C    0.0031579230    1.5042827523   -0.0808843288
 C   -0.0079955719   -0.0216130894    0.0343830807
 C   -1.4262924372   -0.6060772322    0.0623392832
 C   -1.4492892234   -2.1051093220    0.1091038044
 C   -0.7511562003   -3.0955205914    1.0873639270
 C   -1.3379490033   -3.8854316809   -0.1015620357
 C   -2.6527468003   -3.0835454262    0.0115279388
 O   -0.8134296016   -2.8518414082   -1.0207768166
 H    1.0259120845    1.8931825229   -0.0990656754
 H   -0.4951597637    1.8361298162   -0.9985308053
 H   -0.5158329834    1.9719097778    0.7636055706
 H    0.5374616585   -0.4669388997   -0.8049036592
 H    0.5259449660   -0.3267647102    0.9430627357
 H   -1.9787795038   -0.2254509896    0.9319414473
 H   -1.9819166627   -0.2824002350   -0.8275408842
 H    0.3376347724   -3.0378334334    1.1114732751
 H   -1.1953653678   -3.2397431639    2.0761065603
 H   -1.1842637749   -4.9271089370   -0.3823187985
 H   -3.2739596500   -3.2264755510    0.9000072322
 H   -3.2321876101   -3.0108552989   -0.9100586315