18

 C    0.0467645816    0.4431677462   -1.1073448266
 C   -0.5828479067    0.2033055653    0.2614734068
 N   -0.1428002866   -1.0735398885    0.8121301639
 C   -0.3191595221   -1.3005939094    2.0385603147
 O   -0.9181850790   -0.4577247965    2.9292631368
 C   -0.7917070016   -0.9517295212    4.2829479153
 C   -0.4412921750   -2.4388698464    4.1776558565
 C    0.0813211521   -2.5754800199    2.7500020124
 O    0.6776340504   -3.5004614524    2.2727095499
 H   -0.2100739177   -0.3669654500   -1.7955752454
 H   -0.3029901556    1.3885408889   -1.5340001541
 H    1.1373047666    0.4828728782   -1.0294633460
 H   -0.3492842853    1.0281453270    0.9496492341
 H   -1.6791393212    0.1878511480    0.1732394848
 H   -0.0022298854   -0.3811333781    4.7841795848
 H   -1.7384990858   -0.7536985942    4.7885072513
 H    0.2954857780   -2.7790367528    4.9068970087
 H   -1.3291022866   -3.0735124643    4.2761229019