16

 C   -0.0312738517    1.4508729536   -0.1048600632
 C    0.0287140882   -0.0425877654   -0.0536999473
 N    0.6880344099   -0.9049916016   -1.0937441649
 C    0.1850097052   -1.9074974772   -0.1158469697
 C    0.2967117523   -3.3817497180   -0.2371978521
 O    0.6925547684   -3.9501197950   -1.2243566177
 C    0.5197647774   -0.9799521177    1.1000846628
 O   -0.7832134793   -1.1000664177    1.7346402261
 C   -1.0939955125   -1.0814277319    0.3161831591
 H    0.9747372756    1.8717807439   -0.1922971683
 H   -0.6199910579    1.7926853818   -0.9626434261
 H   -0.4975741808    1.8351511619    0.8074699677
 H    0.1368607718   -0.9347361147   -1.9543635617
 H   -0.0442386217   -3.9339649205    0.6658065105
 H    1.4166624868   -0.9458267407    1.7170183114
 H   -2.1334488515   -1.1789875808   -0.0029701864