18

 C    0.0758966051    1.5723874966    0.0867788644
 C    0.0030932000    0.0745233413    0.1061317080
 C    1.1338489670   -0.8254585229   -0.3559132182
 C    0.6155902274   -0.9545485118    1.0497064054
 O    1.3922658695   -0.7052696343    2.1629435707
 C   -0.6749330173   -1.7766275300    1.0765677558
 C   -1.3007109053   -0.7659155646    0.0409662061
 C   -2.4941060363   -0.0876038233    0.5208220689
 N   -3.4358015122    0.4627484286    0.9052407617
 H    1.0601016263    1.9067495701    0.4279060440
 H   -0.0846531310    1.9689645677   -0.9222449981
 H   -0.6783495526    2.0140196379    0.7454226183
 H    0.9731326408   -1.6058010062   -1.0980819821
 H    2.0894357909   -0.3160315149   -0.4340969054
 H    2.1221445017   -1.3339414242    2.1799215421
 H   -0.6197022073   -2.8217618746    0.7566198226
 H   -1.1767667020   -1.7144812173    2.0430910199
 H   -1.5106632447   -1.1913927882   -0.9459254239