20

 O   -0.1358811737    1.4445256975    0.1300173509
 C   -0.0749406243    0.0456788675    0.1498537518
 C   -0.7720203243   -0.7141326543    1.2518064001
 C   -1.3457523945   -0.6931538207   -0.1533503801
 C   -2.6301340254    0.0533600149   -0.4602753378
 C   -3.8764717565   -0.7656050961   -0.1880454071
 C   -4.5223340754   -0.7636993678    1.1747052043
 C   -5.2072537162   -0.0871432211    0.0112671888
 H    0.4121034411    1.7738418388    0.8496022336
 H    0.8533168495   -0.3700735038   -0.2428756725
 H   -0.3232334240   -1.6251423110    1.6331326733
 H   -1.2871844779   -0.1157864775    1.9963608843
 H   -1.2175131066   -1.6097349073   -0.7248256542
 H   -2.6587629752    0.9808884413    0.1209470290
 H   -2.6196681989    0.3596386014   -1.5154011139
 H   -3.9103220215   -1.7145161906   -0.7192688687
 H   -4.9422334252   -1.6888129760    1.5542891337
 H   -4.0873868968   -0.1298550848    1.9404942170
 H   -5.2275952866    0.9980550261   -0.0018546318
 H   -6.0945253176   -0.5503603266   -0.4064150910