17

 C   -0.0363027216    1.6262701338   -0.0696061723
 C    0.0254582673    0.1054300550   -0.0520144548
 C    0.7306161944   -0.6463041282   -1.1970092459
 N    2.1301753336   -0.1969917295   -1.1704089056
 C    1.7025184722   -1.3274476179   -0.2681052322
 C    2.3759201897   -2.6627099391   -0.2818253904
 C    1.0334224060   -0.6194022988    0.8958524782
 O    1.1161526374   -0.7217648147    2.0853921086
 H    0.9336163745    2.0424281028   -0.3508932568
 H   -0.7887742239    1.9840019728   -0.7801267397
 H   -0.3025462217    2.0053789647    0.9218330295
 H   -0.9619639353   -0.3301425116    0.1481906583
 H    0.2792965763   -1.0562290468   -2.0919673324
 H    2.6181156514   -0.6418199329   -1.9491861875
 H    2.5160057286   -3.0240585967   -1.3064158724
 H    3.3595362441   -2.6097941535    0.1967288742
 H    1.7811849470   -3.4028065997    0.2624836514