25

 C    0.1131166497    1.5795199046    0.1093551709
 C   -0.0953715860    0.0691343797   -0.0458163976
 C    0.6806128979   -0.5129569198   -1.2199274644
 C    2.2348932362   -0.5492383937   -1.1758949514
 C    2.1882242927   -1.9408737668   -1.8602402373
 C    0.6885366184   -2.0580944338   -1.4447545674
 O    0.5553169393   -2.6813636944   -0.1689224560
 C   -0.3070532304   -2.6346154883   -2.4494806340
 C   -0.1280334580   -4.1352190104   -2.7067688047
 H    1.1702373418    1.8212419238    0.2653328094
 H   -0.2203301451    2.1230107713   -0.7822895331
 H   -0.4455182952    1.9711636139    0.9652913721
 H    0.2066890585   -0.4488353828    0.8699394721
 H   -1.1651144921   -0.1409838843   -0.1763418935
 H    0.3560725472   -0.0335519735   -2.1523672961
 H    2.7764569104    0.2460153711   -1.6927291881
 H    2.6030053779   -0.6171840840   -0.1485672944
 H    2.3095926922   -1.8755565642   -2.9457974894
 H    2.8589016277   -2.7155607625   -1.4773823759
 H    0.8689297677   -3.5877414060   -0.2496561459
 H   -1.3216172626   -2.4432548119   -2.0777621646
 H   -0.2067988943   -2.0866067510   -3.3942847738
 H    0.8795714276   -4.3616620814   -3.0737155656
 H   -0.2969745982   -4.7195668247   -1.7955724515
 H   -0.8403293734   -4.4947266607   -3.4550314197