18

 C    0.0118365905   -1.1907099943   -0.0216472428
 C    0.0144758858    0.0124709577   -0.0043163945
 C    0.0159503100    1.4526021978    0.0154018798
 C   -0.2872235646    2.2731198789    1.3160510332
 C    0.4316774729    3.4064749046    0.5329112857
 C    1.3390375118    2.2901133068   -0.0545007316
 C   -0.5484561885    3.6683873816   -0.6268440151
 C   -0.8683479042    2.1910614479   -1.0246970948
 H    0.0110600370   -2.2521391905   -0.0349691682
 H   -1.3367690506    2.4115485241    1.5913427962
 H    0.2871746315    1.9103503324    2.1703788915
 H    0.8518610291    4.2731887952    1.0422303312
 H    2.0881248046    1.9291704530    0.6526054764
 H    1.7863682921    2.4441692407   -1.0407332185
 H   -1.4376840188    4.2167096913   -0.3029934289
 H   -0.0854139807    4.2308139786   -1.4426450091
 H   -0.5718943053    1.9478381588   -2.0480849893
 H   -1.9241126026    1.9337334354   -0.9084618212