22

 C   -0.1539784226    1.4932678499   -0.1247596795
 C   -0.0390174882   -0.0262567776    0.0320671623
 C    0.7643770306   -0.4893106549    1.2609404307
 C    0.1345913841   -0.0111943370    2.5912821344
 C    0.6961146410   -0.6995812896    3.8086034867
 C    1.1597367508   -1.9491466686    3.7747859758
 C    1.1623294952   -2.7284176045    2.5131735805
 N   -0.1358177728   -2.8190399616    1.7785207443
 C    0.9537239244   -1.9958074187    1.2356993440
 H    0.8354233535    1.9638087260   -0.1617568108
 H   -0.6782428863    1.7518379578   -1.0501549355
 H   -0.7069763242    1.9483384322    0.7025037718
 H   -1.0398208315   -0.4736891898    0.0849652237
 H    0.4327383419   -0.4413522102   -0.8686825836
 H    1.7735438975   -0.0544100523    1.1957246243
 H    0.2642199529    1.0717914527    2.6869325582
 H   -0.9492764167   -0.1855071793    2.5505455225
 H    0.6863912216   -0.1483665600    4.7451827273
 H    1.5456547175   -2.4276867571    4.6701219251
 H    1.7952653257   -3.6114191229    2.4893745431
 H   -0.1806381226   -3.7059589913    1.2824237018
 H    1.4785919481   -2.3715759631    0.3579710529