16

 C    0.2418182649    1.3812968157   -0.1651499011
 O    0.3424588759   -0.0478422193   -0.0591018093
 C    0.3101871722   -0.7134117803   -1.2234962491
 O    0.2200547880   -0.1944137440   -2.3086463699
 C    0.3911354431   -2.1914789128   -0.9821908570
 C   -0.5666527385   -3.0626344664   -1.7731090397
 N    0.8361610263   -3.0520037117   -2.0564161556
 C    1.3947598326   -2.6463024155   -3.2696588216
 O    0.9869969609   -2.9979420739   -4.3444955551
 H    1.0663067804    1.7782695793   -0.7618211279
 H   -0.7030384100    1.6641703661   -0.6350122575
 H    0.2903814550    1.7566400475    0.8564332331
 H    0.6755937005   -2.4851095855    0.0229992455
 H   -0.9647800318   -3.9574485275   -1.3038877472
 H   -1.2159215406   -2.5578191212   -2.4834188215
 H    2.3121676111   -2.0504952203   -3.1195081361