16

 N    0.0398496943    1.2041144181    0.0105956808
 C   -0.0453765028   -0.0515443432    0.0243916430
 O    0.9745259149   -0.9645476303    0.1168696081
 C    0.2766112591   -2.2643080814    0.0825983316
 C    1.0527269419   -3.0538947184   -0.9979938180
 O    0.2735668443   -2.3127203438   -2.0174161674
 C   -0.7408936186   -2.0962592307   -0.9893817582
 C   -1.2552300138   -0.9273359962   -0.0497887890
 C   -0.8588401360   -2.0009737621    1.1148928424
 H    1.0164607764    1.4991573927    0.0678071097
 H    2.1216380755   -2.8512147787   -1.0755563756
 H    0.8343042176   -4.1255043343   -1.0409961144
 H   -1.4969109116   -2.8841020692   -1.0532294492
 H   -2.2322227249   -0.4575601206   -0.1200130534
 H   -1.5875588256   -2.8052324754    1.2111952619
 H   -0.5859294008   -1.5827851565    2.0847693677