18

 C   -0.4378301203    1.4633375800   -0.1804310069
 N   -0.1566454054    0.0617893041    0.0531249554
 C   -1.2499559553   -0.8213420364    0.5110516729
 C   -0.2638578961   -1.5491293672    1.4521797027
 C    0.7193550038   -0.3730107917    1.1867229331
 C    2.0808282831   -0.7652390332    0.6024010328
 O    2.5286110423   -1.8791141215    0.6078845558
 C    0.9017042683    0.5696997087    2.2808812630
 C    1.0969864551    1.3685139598    3.1595846757
 H    0.4843845176    1.9959787600   -0.4311505094
 H   -1.1153514980    1.5458314240   -1.0365763876
 H   -0.9023902599    1.9683773822    0.6828939396
 H   -2.0338125287   -0.2815200711    1.0632127130
 H   -1.7183023174   -1.4036839628   -0.2887964446
 H   -0.5786481364   -1.6751292347    2.4861479789
 H    0.1338533986   -2.4871325022    1.0651648518
 H    2.6124925964    0.0841747479    0.1211534493
 H    1.2569908122    2.0628140742    3.9476794144