21

 C   -0.3599088121    1.5565591787    0.1951601543
 C    0.2331339296    0.1708851804   -0.0850511813
 C    0.8597123690   -0.4522383962    1.1472727838
 C    0.0237247593   -1.2300364557    2.1330781432
 O   -1.3378274535   -1.3564818212    1.8377550019
 C    1.0260831045   -1.9428422466    1.2690549706
 C    0.7302691025   -3.0355511007    0.2496533003
 O    1.8422601146   -3.8188278317    0.7403073014
 C    2.2255845493   -2.7884114538    1.6786604500
 H    0.4030647762    2.2468431324    0.5721869518
 H   -0.7848916481    1.9942563739   -0.7135275888
 H   -1.1542415875    1.4910497429    0.9445788707
 H   -0.5538444847   -0.4891236251   -0.4621113212
 H    0.9912245646    0.2425692346   -0.8754057021
 H    1.6539894085    0.1416579052    1.5978471651
 H    0.2557357058   -1.1193312745    3.1937862838
 H   -1.6270138374   -2.2313010018    2.1183815344
 H   -0.2286932079   -3.5596219187    0.3621413266
 H    0.8579219770   -2.7580290372   -0.8049906483
 H    3.2105729345   -2.3642834722    1.4392891037
 H    2.2360306658   -3.1546535625    2.7143381804