14

 C   -0.0208097530    1.4223309004    0.0098604005
 O   -0.0027916336    0.0011878997    0.0044512483
 C   -1.1738854347   -0.6390230716    0.0118695720
 C   -1.4101851820   -2.0009799856    0.0104978335
 N   -2.7772015528   -2.2383925298    0.0202534860
 C   -3.3412829988   -1.0665184473    0.0270174834
 N   -2.4100994255   -0.0463961926    0.0221887308
 C   -0.4354274901   -3.0265207107    0.0010116070
 N    0.3793954500   -3.8498798831   -0.0067707783
 H    1.0221793518    1.7377202458    0.0031198808
 H   -0.5211913423    1.8177487449   -0.8834787880
 H   -0.5076392369    1.8110706351    0.9135467614
 H   -4.4016754032   -0.8665378243    0.0354287785
 H   -2.6023919490    0.9408140490    0.0257408540