16

 N   -0.2065399303    1.2951172555   -0.4835066112
 C   -0.0659377197    0.0951308474   -0.1432041353
 O    1.0403496288   -0.4751925886    0.4234371633
 C    0.7966561530   -1.8489615275    0.7170395636
 C    0.7188533722   -2.1474276023    2.2282212768
 O   -0.4255703754   -2.9702249657    2.3885576734
 C   -1.4157697419   -2.4739271044    1.5015964749
 C   -0.6501370195   -2.0831792869    0.2206327525
 O   -1.0467358028   -0.8256867599   -0.3134057365
 H    0.6405562750    1.8200370251   -0.2817830275
 H    1.5471613653   -2.4519614268    0.2029207072
 H    1.5810472755   -2.6914320407    2.6183853412
 H    0.6181858848   -1.1945132201    2.7704396276
 H   -2.1583966979   -3.2598838509    1.3533386429
 H   -1.9138982788   -1.5773901053    1.9014912420
 H   -0.7333762184   -2.8342724688   -0.5667340449