11

 C    0.0065368090    1.4756439460    0.0951861458
 C    1.3483957530    0.7889432589   -0.0701395763
 C    1.6863247747    0.0425261467    1.2156691477
 O    0.3916482530   -0.6198065109    1.2211041352
 C    0.0687954183   -0.0126130204   -0.0326597517
 H   -0.2771875443    1.9175640326    1.0467734934
 H   -0.3368382296    2.0097081955   -0.7854215290
 H    2.0304372004    1.0007172940   -0.8819477943
 H    2.4906545152   -0.6927446001    1.0983803170
 H    1.8569959156    0.6351619401    2.1228439109
 H   -0.4528935754   -0.6119383325   -0.7699972888