19

 C   -0.1418655327    1.4328861273   -0.1530095882
 C    1.2717154389    0.9695995795    0.0873198076
 C    0.1376938883   -0.0285046182    0.1095660288
 C   -0.2880597771   -0.6686284335    1.3791216435
 C   -0.3487530989   -0.1109859192    2.8230190406
 C   -0.8549532223   -1.5589085491    2.9958795516
 C   -1.5670197043   -1.5524545427    1.6111254901
 O   -0.9451800839   -2.7860033887    1.1410476602
 C    0.1013147408   -2.1019848024    1.8934978371
 H   -0.6248196905    2.0055732353    0.6316211981
 H   -0.4277464419    1.7247264578   -1.1573616598
 H    1.9579119078    0.9428943136   -0.7517546719
 H    1.7343214439    1.2323505368    1.0327350418
 H    0.0651844619   -0.6937734122   -0.7466543926
 H    0.6077596596    0.1296140181    3.2963463623
 H   -1.0760269923    0.6842656908    3.0114200926
 H   -1.1799816260   -2.0849301899    3.8925356206
 H   -2.6090344764   -1.3585271826    1.3559802978
 H    1.0802967454   -2.5737253805    1.9804509999