23

 C    0.5274972624    1.6788286479   -0.5765015081
 N    0.1281892469    0.3143404738   -0.2687806304
 C    1.1635260781   -0.6263764457    0.1339365716
 C    0.1394564730   -0.1639870420    1.1186410379
 C    0.5416538630    0.7001430594    2.2710818576
 N   -0.5457037793    1.2700324586    3.0988710121
 C    0.3942159418    0.3106128746    3.7072731004
 C   -0.2157156660   -1.0151286907    4.1192994273
 C    1.4270439949    0.8431251188    4.6827612114
 H    1.4195492577    2.0351790722   -0.0368814350
 H    0.7432908025    1.7435479009   -1.6479576733
 H   -0.3019722292    2.3578555150   -0.3551311054
 H    1.1137342169   -1.6210865528   -0.3022242520
 H    2.1761056569   -0.2415862679    0.2643465955
 H   -0.6992853945   -0.8208277581    1.3323710258
 H    1.3915933511    1.3489000808    2.0689656250
 H   -0.3156078481    2.2217837420    3.3752949608
 H   -1.0346577738   -1.3028551048    3.4588351130
 H    0.5363233274   -1.8119942694    4.1147962141
 H   -0.6202773713   -0.9429861322    5.1353382502
 H    0.9746640037    1.0211511618    5.6657960287
 H    2.2456844334    0.1283151626    4.8227844607
 H    1.8607352325    1.7858049051    4.3329149919