19

 C   -0.7306719397    1.2245620661   -0.2914520901
 C   -0.3708238888   -0.2275450561   -0.5229233344
 C    0.5296230316   -0.7995898566   -1.5843384772
 C    1.8153731406    0.0072085445   -1.7935769955
 C    1.8399388458    1.3203595392   -2.5480673816
 O    2.0204203834    0.1237840469   -0.3514356288
 C    0.9692312969   -0.7981414335   -0.1054201027
 C    1.1411336678   -1.9281190301    0.8151942681
 O    2.1166339022   -2.1367093084    1.4925882788
 H   -1.3419443100    1.6200927237   -1.1090681245
 H   -1.3056968865    1.3225015552    0.6346263942
 H    0.1662898610    1.8375916220   -0.1936293238
 H   -1.1809526364   -0.9257548110   -0.3150680585
 H    0.2360341891   -1.6496960447   -2.1869096497
 H    2.5944121014   -0.6583832296   -2.1882964609
 H    2.7995986085    1.8213511699   -2.3854324210
 H    1.7388871248    1.1270958259   -3.6213910338
 H    1.0394610212    1.9947033140   -2.2420501778
 H    0.2514882972   -2.6008072975    0.8351598592