20

 C    0.0311813254    1.5056977730   -0.0261550755
 C    0.0029623551   -0.0180592524    0.0197014872
 C   -1.4072038359   -0.5944667390   -0.0338875277
 C   -1.4528907738   -2.1113011067    0.1027800318
 O   -2.8185120764   -2.5011418735    0.0749802529
 O    0.7104288458   -0.5530299571   -1.1293594608
 C    2.0567748083   -0.6554643925   -1.0139316457
 N    2.5762945442   -1.2093128315   -2.1522499862
 O    2.7014262880   -0.3403042775   -0.0400005161
 H    1.0621040643    1.8642506061    0.0104876004
 H   -0.4444601436    1.8744349074   -0.9405921017
 H   -0.5065616354    1.9189649039    0.8327363904
 H    0.5288495347   -0.3637373486    0.9150551009
 H   -1.9962059146   -0.1513679111    0.7768470197
 H   -1.8891760929   -0.3046289549   -0.9747822068
 H   -0.8854837489   -2.5734829620   -0.7173897038
 H   -0.9711171678   -2.4127827911    1.0477187980
 H   -2.8568040375   -3.4609181523    0.1160081767
 H    2.0087017672   -1.2228799766   -2.9826505588
 H    3.5724288840   -1.1313302736   -2.2646992549