17

 C   -0.0319887382    1.5397088359   -0.0201728585
 C    0.0476549225    0.0224354814    0.0249134480
 O    0.8291709992   -0.4819502794   -1.0802571581
 C    1.8644563690   -1.2277597982   -0.6297297249
 O    2.6738549607   -1.7676049423   -1.3281893541
 N    1.8181827975   -1.2515615646    0.7650490920
 C    2.7953811746   -1.9569043972    1.5649788963
 C    0.7540312109   -0.5175211560    1.2571204053
 N    0.3816364851   -0.2878266464    2.4472666199
 H    0.9690576054    1.9784489502    0.0159668018
 H   -0.5280715101    1.8683750097   -0.9364848865
 H   -0.5991650126    1.8909399886    0.8450528231
 H   -0.9517651346   -0.4186227444   -0.0515482945
 H    3.5005662330   -2.4270583058    0.8791169357
 H    3.3325099065   -1.2647789379    2.2222030863
 H    2.3136900888   -2.7266967977    2.1770235940
 H    0.9872041923   -0.7355985759    3.1355449044