16

 C    0.0952069611    1.5556294354   -0.1171511278
 O    0.1048707465    0.1468567021    0.0848552113
 C    0.5263568744   -0.5886865600   -1.0135167619
 C    0.9235023657   -2.0158682516   -0.6135098112
 O    1.4729587396   -2.3659877681    0.3903631979
 C    0.4682538135   -2.9170352345   -1.7586888788
 O   -0.3877373072   -2.1176467869   -2.5808241201
 C   -0.4946480323   -0.8302336493   -2.1184224816
 N   -1.3082556610    0.0206047650   -2.5644087715
 H    1.0995602522    1.9173998916   -0.3850128599
 H   -0.6147574747    1.8419065279   -0.8982924593
 H   -0.1986990448    1.9987254193    0.8362721181
 H    1.4245688950   -0.1434522171   -1.4859758657
 H    1.3244914723   -3.2717202142   -2.3445785151
 H   -0.0807050124   -3.7849815561   -1.3804629997
 H   -1.9052815281   -0.3867661138   -3.2867756746