21

 C   -0.0556464231    1.5359746640   -0.1984032467
 C    1.4024005193    2.0182200610   -0.0440895089
 C    2.2223337937    0.7976737827   -0.4976916507
 C    3.6716645699    0.6928525806   -0.0342810099
 O    4.1794941102   -0.5997208037   -0.3321023133
 C    3.5310951816   -1.6411809209    0.3744006056
 C    2.0390010608   -1.4672723453    0.4964659046
 C    1.4315872376   -0.3634375313    0.0729804246
 C   -0.0256596033    0.0406458595    0.2156515675
 H   -0.7629903414    2.1236115573    0.3923527130
 H   -0.3597948919    1.6274492963   -1.2471486568
 H    1.6158852840    2.9245898479   -0.6179039764
 H    1.6175406079    2.2355899665    1.0104806678
 H    2.2080692544    0.7521952317   -1.5969581125
 H    4.3273468523    1.3993763965   -0.5518741839
 H    3.7325100986    0.8977764773    1.0480840230
 H    3.7747671164   -2.5649440370   -0.1655912596
 H    3.9651174438   -1.7463493679    1.3868697972
 H    1.4962916263   -2.2712514313    0.9892383483
 H   -0.3610994063   -0.0930124433    1.2505419311
 H   -0.6906784808   -0.5681445004   -0.4063855441