18

 C   -0.5485622302    1.4397211737    0.3714429776
 N   -0.1027782164    0.0734283470    0.1473808634
 C    0.2756590717   -0.3456077606   -1.1988860361
 C    1.5968530680    0.2465049149   -1.6533856667
 C    1.5986508458   -0.8932925187   -0.6794778874
 O    2.3039121265   -2.0382357373   -0.9557125844
 C    1.1717007127   -0.4371693897    0.7369385313
 C    2.1204132158    0.5039658624    1.4389060412
 O    2.7008147343    0.2195371609    2.4572609002
 H    0.1074584189    2.2199708894   -0.0482969597
 H   -1.5377898458    1.5615781132   -0.0821584731
 H   -0.6510679120    1.6188104224    1.4464953299
 H   -0.4577727936   -0.7554549007   -1.8845255703
 H    1.9011408752   -0.0629763704   -2.6487012791
 H    1.8980268855    1.2548839929   -1.3872679575
 H    1.8534478120   -2.7851574852   -0.5442160107
 H    0.9834623859   -1.2822197442    1.4110872109
 H    2.2872503258    1.4838747199    0.9422387205