17

 C    0.0505289768    1.4935909932    0.0486613082
 C    0.0062202808    0.0017720160   -0.0122302922
 C   -0.1195394505   -0.7839579531   -1.0923086845
 C   -0.0619242785   -2.2284331591   -0.7183070778
 O    1.1897984114   -2.6214698625   -0.0952624275
 C    0.0838521662   -2.2815107802    0.7428407684
 C    0.1132994231   -0.8492208353    1.2202230846
 C    0.7257802117   -0.4364428255    2.4912218568
 O   -0.6936040757   -0.5078819229    2.3601195904
 H    1.0498672942    1.8531241239    0.3243415268
 H   -0.2107038165    1.9381980601   -0.9145824639
 H   -0.6461541581    1.8660309745    0.8077317988
 H   -0.2132872056   -0.4347919325   -2.1134522657
 H   -0.5418882009   -3.0025416741   -1.3079662284
 H   -0.3120391389   -3.0621213215    1.3863965269
 H    1.1809383640   -1.1919891468    3.1300456328
 H    1.1365303265    0.5666885658    2.5941139163