17

 C   -0.1750355462    1.5399781662   -0.0002970163
 C    0.0140655105    0.0148183368    0.0038231027
 C    0.7965989044   -0.4869066454   -1.2189664139
 C    2.3019916120   -0.1832292604   -1.1594022528
 O    2.9454904268    0.0013407956   -2.1781830594
 C    2.8708812830   -0.2247215779    0.1775257584
 C    2.0709713155   -0.3717691696    1.2644637168
 N    0.7105590957   -0.4363014338    1.2152768672
 H    0.7892021175    2.0564459563    0.0019535961
 H   -0.7277603660    1.8519882038   -0.8918567938
 H   -0.7417120341    1.8650956144    0.8785250814
 H   -0.9740661897   -0.4588603174    0.0063138058
 H    0.7004305252   -1.5787781604   -1.2854557919
 H    0.3874658519   -0.0665381135   -2.1402511737
 H    3.9463061648   -0.1774083083    0.2880784089
 H    2.4935772830   -0.4642808254    2.2614436444
 H    0.2207222055   -0.3039586010    2.0859410102