16

 O   -0.1247049376    1.3003462902    0.0151343396
 N    0.0049767894   -0.0914995445   -0.0671256674
 C   -1.1286316557   -0.6642034475   -0.0227715080
 C   -2.5066388596   -0.0455529815    0.0787958016
 C   -3.4084544729   -1.2581274900    0.0547003268
 C   -2.7292493225   -2.4032945037   -0.0358535770
 C   -1.2640831357   -2.1602282978   -0.0859210721
 C   -0.2679177327   -3.0522963571   -0.7032018180
 O   -0.3924742328   -2.9819030945    0.7135223887
 H    0.7921268072    1.5954318685   -0.0133199872
 H   -2.6153854272    0.5538074687    0.9920643324
 H   -2.6882427986    0.6456336265   -0.7541830255
 H   -4.4876699029   -1.1755052303    0.1057876652
 H   -3.1469504562   -3.4018537415   -0.0597491959
 H   -0.5935395129   -3.9862679510   -1.1616215923
 H    0.6357259407   -2.6069438044   -1.1163185909