12

 N   -0.0497078480    1.3551362627    0.0104583459
 C    1.2843812479    1.7733856521   -0.0005563093
 N    2.1475848222    0.7934718844   -0.0145017666
 C    1.3643125847   -0.3490893036   -0.0129648747
 C    0.0202879804   -0.0106905594    0.0021878279
 N   -0.7090460269   -1.1452004109    0.0038166415
 N    0.1232666143   -2.2392312576   -0.0106192368
 C    1.3655454767   -1.7665454371   -0.0203993745
 H   -0.8604156745    1.9486592521    0.0217370133
 H    1.5241470491    2.8269150725    0.0027353880
 H   -1.7015573297   -1.2934150608    0.0115615904
 H    2.1926347438   -2.4599932444   -0.0322846849