21

 C   -0.0911043386    1.5645556771    0.0659174641
 C    0.0350635087    0.0285402323    0.0111069283
 C   -1.3748767315   -0.5354991729    0.0339766424
 O   -1.8447915614   -1.2100114847    0.9134491515
 C    0.7913376870   -0.4837415192   -1.2433027948
 C    2.2378662222    0.0486817178   -1.3210691655
 O    2.8315720628   -0.1335859753   -2.5870204962
 C    0.7763733209   -2.0182065474   -1.2601773414
 O    1.4158938372   -2.4788641659   -2.4516575333
 H    0.8834441377    2.0452819115    0.1689083788
 H   -0.5647206305    1.9540790485   -0.8418443569
 H   -0.6997930105    1.8682725973    0.9230587751
 H    0.5338480224   -0.3317095026    0.9186761785
 H   -1.9851901793   -0.2480714217   -0.8568351250
 H    0.2675693834   -0.1277516577   -2.1414971546
 H    2.2570365415    1.1256549954   -1.1342779689
 H    2.8296986971   -0.4263247296   -0.5168289742
 H    2.6779235734   -1.0570981644   -2.8274295179
 H    1.3005132807   -2.3937402787   -0.3674143372
 H   -0.2541573308   -2.3985335345   -1.2183447691
 H    1.5237272075   -3.4325950152   -2.3946840336