17

 O    0.0136620887   -0.0662730920    0.1264162141
 C    0.0226386894    1.1345158562   -0.0544119549
 N   -1.1165192316    1.9415898246   -0.1454891390
 C   -0.8374159361    3.3741548184   -0.0190314674
 C    0.6017691115    3.4493193347   -0.5718050547
 C    1.6560635240    4.4075206376    0.0251500517
 N    2.7701729466    3.5111563223    0.4243748729
 C    2.3798045251    2.1911864044    0.2933514639
 C    1.1353068909    2.0805785423   -0.1984508601
 H   -1.9931675014    1.5483790548    0.1622634998
 H   -1.5567271816    3.9666805338   -0.5925177143
 H   -0.8698171276    3.7122046972    1.0295448612
 H    0.5434522201    3.5556607951   -1.6636059416
 H    1.9961274090    5.1578393130   -0.6927662935
 H    1.2808450409    4.9383139331    0.9117564653
 H    3.7238285689    3.7904367768    0.2552606959
 H    3.0298338733    1.4053041477    0.6575914308