17

 C    0.1696374297    1.0168581582   -0.6237825792
 C   -0.6585530352   -0.2493802732   -0.4928552321
 O   -1.4487182312   -0.6122677242   -1.3416406586
 N   -0.4179891501   -0.9400708324    0.6799841687
 C   -1.0264688468   -2.0900514627    1.2045052592
 N   -0.6157096080   -2.4459357985    2.3565590338
 C   -2.0792400269   -2.8047148576    0.3806570443
 C   -1.4737791114   -3.6513236033   -0.7371870173
 O   -1.6365611842   -4.8398942370   -0.8218082184
 H    1.2389614235    0.7975316245   -0.5392406121
 H   -0.0332419117    1.4671122017   -1.5943858400
 H   -0.0878371108    1.7291220428    0.1671574313
 H    0.2643376323   -0.5567087085    1.3204687285
 H   -1.0938898872   -3.2890925208    2.6678620698
 H   -2.6470975450   -3.4685722777    1.0350411419
 H   -2.7427528409   -2.0754810575   -0.0919934388
 H   -0.8808281961   -3.0848741537   -1.4809446711