18

 C    0.0699784725    1.5163747301   -0.0221519440
 C   -0.2729858103    0.0241046845    0.0217897854
 C   -1.7346497081   -0.2079786394    0.4206762573
 N   -2.2362512237   -1.5701370601    0.5134162322
 C   -1.4769724429   -2.5505681646    0.2684449166
 N   -1.9747143031   -3.8491484970    0.3622759895
 C   -1.2331510643   -4.9785266966    0.1169861923
 O   -0.0684922532   -4.9855726558   -0.2073765873
 H    1.1140748841    1.6749621366   -0.3073037332
 H   -0.5570946651    2.0467379394   -0.7472364033
 H   -0.0833387389    1.9879751455    0.9547518404
 H   -0.0796995535   -0.4243885805   -0.9609559403
 H    0.3917782139   -0.4828775709    0.7326720886
 H   -1.9233150915    0.2661189036    1.3944961389
 H   -2.3903990373    0.3238962167   -0.2834481503
 H   -0.4268895926   -2.5285001949   -0.0229703490
 H   -2.9453299035   -3.9365881892    0.6292956516
 H   -1.8344770626   -5.8974657574    0.2526430546