19

 C    0.0063204061    1.3283297195    0.6225118026
 N    0.0270153038    0.1353833073   -0.1856188718
 C   -1.0397517881   -0.8333522445   -0.4176345434
 C   -1.3463464433   -1.7814671236    0.7591224943
 O   -0.2548206762   -2.6557784091    0.4031265928
 C    0.0721985246   -1.8730160267   -0.7788864479
 C    0.2434356806   -2.6908095811   -2.0239451580
 C    1.0696301285   -0.7639114405   -0.4202978128
 N    2.3322073186   -0.7477095017   -0.3528634083
 H    0.9852938866    1.8128757557    0.5641334947
 H   -0.7413166818    2.0335143538    0.2446145081
 H   -0.2109036855    1.1239618278    1.6811821226
 H   -1.8510704869   -0.5017548668   -1.0675878211
 H   -1.2425520878   -1.3616589539    1.7666242938
 H   -2.3109630314   -2.2981240998    0.6782106059
 H   -0.6227361635   -3.3366718615   -2.1913889854
 H    0.3854965803   -2.0429166689   -2.8938806451
 H    1.1340278168   -3.3188933233   -1.9223701182
 H    2.6912137285    0.1393257173    0.0056936072