18

 C    0.1226894179    1.4112689895    0.0479701992
 C    0.0642073732   -0.0429241506    0.0166420133
 C    0.0241824106   -1.2469505459    0.0077914328
 C   -0.0694687195   -2.7100239233   -0.0519281991
 O   -1.4227416428   -3.1523185431    0.0661545217
 C    0.6056598809   -3.2578122655   -1.2986642525
 C    2.0763744419   -3.5854374606   -1.2714484361
 C    1.0538612165   -4.6934790744   -1.3224225496
 H    0.9073808943    1.7601643086    0.7282881056
 H    0.3347123434    1.8260307057   -0.9436284286
 H   -0.8256853272    1.8387760379    0.3917260960
 H    0.4339262333   -3.1402002421    0.8240464866
 H   -1.9430090506   -2.6496908613   -0.5700995044
 H    0.2161294686   -2.8436761265   -2.2250430731
 H    2.6645472296   -3.3779321016   -2.1581259556
 H    2.6115977962   -3.4291864134   -0.3403103633
 H    0.8948269098   -5.2834732740   -0.4258767608
 H    0.9401784937   -5.2510971494   -2.2452397423