17

 C   -0.1711498381    1.6133023295    0.0409994243
 C    0.0055845488    0.0979092828    0.0094413849
 C   -1.2879769576   -0.5589871683   -0.1823703475
 N   -2.3039620835   -1.0710071831   -0.3864974717
 C    1.1004429006   -0.5163842683   -0.9677222990
 O    1.9119397144    0.3680636862   -1.6911845567
 C    1.7628192856   -1.0845518595    0.2726911693
 C    2.0662043796   -0.0221236325    1.2462641626
 N    0.6860645584   -0.5424355832    1.2071928643
 H    0.7888380056    2.1238386430   -0.0391578663
 H   -0.7946650701    1.9386859891   -0.7964993085
 H   -0.6650390708    1.9107453722    0.9702733167
 H    0.6647595652   -1.2905762087   -1.6064659205
 H    1.4912047661    0.5565830103   -2.5364567045
 H    2.1383561500   -2.0968964146    0.3650965560
 H    2.5797502575   -0.3207425587    2.1543053612
 H    2.2926638183    0.9824542138    0.9080101055