17

 O    0.5624562959    1.1697259093   -0.1338375020
 C    0.1631568900   -0.1557525985    0.0429338510
 C    0.2741945629   -0.8359064978    1.4677359140
 C    0.5401882100    0.0503999769    2.6455191942
 O    0.3478552959    1.2493508420    2.6511405655
 C   -1.2070116848   -1.2732043308    1.3225814433
 C   -2.1010913093   -0.0628453498    1.1657547911
 C   -1.3178789404   -0.5508051159   -0.0177948570
 O   -1.9256962577   -1.0293380503   -1.1628419307
 H    0.3583067211    1.6385731617    0.6883330149
 H    0.7121699605   -0.7617114216   -0.6849067862
 H    0.9558737410   -1.6904731594    1.4858062457
 H    0.9021735262   -0.4551630853    3.5669177581
 H   -1.5892317883   -2.2428788492    1.6125361601
 H   -3.1567953574   -0.3093360855    1.1125765887
 H   -1.8777908203    0.8736023198    1.6680221908
 H   -2.3629756352   -0.2929182156   -1.6042346416