17

 O   -0.1290309401    0.0187852212   -0.1867178073
 C   -0.0154854180    1.2193227897   -0.0673725243
 C    1.2612205181    1.9360910148   -0.0188551772
 C    1.3835041533    3.2633963025    0.1130874254
 C    2.8349528512    3.6348811671    0.1234392316
 O    3.5368642730    2.4047657752   -0.0142819186
 C    2.6127177780    1.3287019560   -0.1056308299
 C    3.0113829652    0.0177639364    0.5164831515
 C    2.9830862151    0.1701470062   -0.9916665005
 H   -0.9092657576    1.8753781821    0.0156519022
 H    0.5738744857    3.9778264551    0.2005513190
 H    3.0939650662    4.3168508315   -0.7025244389
 H    3.1270078047    4.1385212262    1.0590932046
 H    3.9807822271    0.0051699422    1.0019325631
 H    2.2408470393   -0.5863029670    0.9793455525
 H    2.1936308997   -0.3320430659   -1.5370358667
 H    3.9337402391    0.2585132066   -1.5054790565