21

 C    0.3537712757    1.6027144404   -0.1808649493
 C    0.0782321603    0.1184160842    0.0121323861
 C    0.7864534345   -0.9199373450   -0.9130589039
 C    1.2031594561   -1.7677791272    0.3236076889
 C    2.6513689352   -1.5420503657    0.8589879082
 C    3.8804952351   -1.4632059167   -0.0339813077
 C    2.1276373412   -0.2789836045    1.5682309836
 O    2.6680632573    0.6464879771    2.1061814458
 C    0.6604702192   -0.6221433280    1.2592843310
 H    1.4249756019    1.8231712232   -0.1518069793
 H   -0.0362598626    1.9430023669   -1.1466875349
 H   -0.1249019072    2.2000317899    0.6024479621
 H   -1.0026586327   -0.0549123562   -0.0084358831
 H    0.1255574124   -1.4300019907   -1.6170787571
 H    1.6263492850   -0.5101203267   -1.4817747221
 H    0.8223981927   -2.7874333841    0.3650114127
 H    2.8230876917   -2.2815938338    1.6559824684
 H    3.7431284958   -0.7512324509   -0.8530781392
 H    4.7449118296   -1.1296396686    0.5482070817
 H    4.1196291894   -2.4382707809   -0.4702127264
 H    0.0076332593   -0.7658656028    2.1221395745