19

 C    0.0049264877    1.5746888120   -0.0880668216
 C   -0.3546597652    0.0907755527   -0.1338547769
 N    0.4552011885   -0.5851309391   -1.1494614339
 C    1.7595360373   -1.1637770097   -0.8601997413
 C    2.1181347783   -1.5201078204    0.5712329282
 O    1.0211386313   -2.2675507340    1.0913503327
 C    0.3054839987   -2.8678734668    0.0144117655
 C    0.5949909520   -2.0300664093   -1.2177420373
 H    1.0444318605    1.7186454393    0.2253820093
 H   -0.1141386070    2.0319389295   -1.0744644536
 H   -0.6359338610    2.1041478722    0.6237892998
 H   -0.2598873071   -0.3532207139    0.8655750412
 H   -1.4011699823   -0.0232241669   -0.4410010166
 H    2.5649389388   -0.9239772850   -1.5494272202
 H    3.0480912252   -2.1116513264    0.5757547585
 H    2.2638973906   -0.6560145958    1.2295252703
 H    0.6387698248   -3.9031589979   -0.1637908086
 H   -0.7516730451   -2.8963457028    0.3020816878
 H    0.4621545940   -2.4878421279   -2.1947670431