19

 N   -0.4225283395   -1.0663394754   -0.5954113192
 C   -0.2811125793    0.0537883712   -0.3500003774
 C   -0.0945491646    1.4748662613   -0.0497673609
 C    1.3749578250    1.8624191851    0.0704440634
 C    1.7703988340    3.0057733990    0.9433913655
 N    2.1552654796    1.6421972067    1.2835762934
 C    1.5608983103    1.0243871399    2.4375499033
 C    1.8814601478   -0.4253511967    2.6780719406
 C    2.4965653028    0.6395987668    3.5530458848
 H   -0.5545940964    2.0590140312   -0.8555554306
 H   -0.6458731665    1.7143253740    0.8639915422
 H    1.9381697913    1.6832111725   -0.8432904605
 H    2.5722611415    3.6787903108    0.6516595036
 H    0.9796995422    3.4725450158    1.5314458916
 H    0.5702269004    1.3712082869    2.7378475445
 H    1.1044706374   -1.0590229089    3.0892917772
 H    2.5225633768   -0.9064789472    1.9492940010
 H    3.5455484480    0.8649376267    3.4017760625
 H    2.1457286092    0.7435921004    4.5736425948