12

 N    0.0460807423   -1.0906013145    0.0017733825
 C    0.0211897696    0.0671726901    0.0037740222
 C    0.0038237761    1.4833016645    0.0193046768
 C    0.0907031129    2.4877469929    1.1566283768
 C   -0.8232170859    3.4082857982    0.3103268127
 C    0.1825108942    3.4322279828   -0.7826666472
 C    1.1218783302    2.5126817249    0.0364018909
 N   -0.9121900310    2.3953298108   -0.8032060949
 H    0.2205583502    2.3126777080    2.2142882852
 H   -1.6472291048    4.0650105393    0.5568653373
 H    0.3452137635    4.1124010353   -1.6084747310
 H    2.1902851427    2.3603277577    0.0744983887