21

 C   -0.0224988885    1.5850640225    0.2001303191
 C    1.5345909499    1.6136787108    0.1154691012
 C    1.5559276705    0.0651707061   -0.0322502466
 C   -0.0144383018    0.0478089514   -0.0509740043
 C   -0.3261914647   -0.5594298020   -1.4455898859
 C    0.1436974774    0.3742920965   -2.5689874264
 O    1.5815039767    0.3725049358   -2.4534866719
 C    1.9020262755   -0.5547824789   -1.4045022867
 C    0.8007835923   -1.6213427533   -1.5377475970
 H   -0.4045327269    1.8397073286    1.1918726102
 H   -0.5586378080    2.2006536703   -0.5261788042
 H    1.9306059418    2.1340523288   -0.7576580901
 H    2.0320953258    1.9940765896    1.0101628784
 H    2.0433114290   -0.4747961167    0.7837597892
 H   -0.5069855611   -0.5392464228    0.7284208988
 H   -1.3492078386   -0.9163271576   -1.5762183493
 H   -0.1449338994   -0.0096671771   -3.5571847660
 H   -0.2270674296    1.4003223501   -2.4831419377
 H    2.9370584480   -0.8712211758   -1.5422401205
 H    0.7874786897   -2.3393626667   -0.7134043609
 H    0.8330462218   -2.1540677497   -2.4919228493