13

 C    0.0361303385    1.3950059571   -0.1207862095
 O    1.2684396236    1.9287115079    0.3882689404
 C    1.9771490577    0.8047501571    0.7313349668
 C    3.2163322991    0.4301512530    1.1635726404
 N    3.1017272042   -0.9259864452    1.4577616756
 C    1.8265191120   -1.4033994616    1.1667082213
 C    1.1303079596   -0.3124691326    0.7332455384
 O   -0.1439058641    0.0654344273    0.3914553741
 H   -0.7924891233    2.0236607593    0.2122313530
 H    0.0889204244    1.3531120862   -1.2198398177
 H    4.1372707912    0.9648404424    1.3158932496
 H    3.8964489456   -1.5281677927    1.5804554058
 H    1.5608141188   -2.4342235681    1.3217060317