17

 O   -0.0098801073    1.2724369671   -0.0944018301
 C   -0.0657834771   -0.1167937747   -0.0236018699
 C   -0.5089546339   -0.6883565037    1.3388765409
 C   -1.4295631190   -0.6786116667    0.0801403394
 C   -1.3507748571   -2.1968814229    0.0268771170
 C   -2.4508248054   -3.1914097747   -0.2328916765
 C   -1.2559790675   -3.1418514579   -1.1435042282
 C   -0.5107221634   -2.1896458514    1.2923904453
 O   -0.1196781430   -3.0587489310    2.0237016751
 H    0.8272016785    1.5609928402    0.2846996442
 H    0.6937377155   -0.6427825190   -0.6036051703
 H   -0.5114238844   -0.0419452086    2.2069872821
 H   -2.3155975498   -0.0751759879   -0.0649010520
 H   -2.5309475320   -4.0158734307    0.4677235795
 H   -3.3959902090   -2.8089344397   -0.6030923934
 H   -1.3857566723   -2.7237048576   -2.1361498555
 H   -0.5255727827   -3.9410769308   -1.0734015477