15

 O    0.0222348780    0.2457273907   -0.8621553209
 C   -0.0054922037    1.2419449297   -0.1800970534
 C   -1.3180504832    1.8327220681    0.3346652573
 C   -1.2114726973    3.0921060902    1.2221705511
 C   -0.1368856107    4.0356070917    0.7112199213
 O   -0.3156106608    5.1912648031    0.4105738614
 C    1.2191724003    3.3941253298    0.5809280401
 O    1.4741063023    2.3332901745    1.4996264141
 C    1.2753771846    1.9732238912    0.1347291787
 H   -1.8978219318    2.0637117187   -0.5676734953
 H   -1.8672556688    1.0354584786    0.8441672901
 H   -2.1607909020    3.6292751824    1.2550040789
 H   -0.9385474166    2.8012786714    2.2418920388
 H    2.0536010494    4.0549100340    0.3575887868
 H    2.1555832102    1.6050534059   -0.3882024689