25

 C    0.0304747863    1.5949617539    0.0089404463
 C    0.0122316082    0.0705192314    0.1743954712
 C   -1.3919924316   -0.5181580568    0.0507947434
 C   -2.0347259383   -0.6274948199   -1.3712677796
 C   -1.2415964234   -1.9560363006   -1.5379022280
 C   -1.5249283843   -2.0760038839   -0.0121503179
 C   -3.0584772531   -2.2872883463   -0.0105390354
 C   -3.7419440573   -2.2077775333    1.3533368739
 C   -3.4442606654   -1.1486632913   -1.0247380261
 H    1.0407279058    1.9966886275    0.1354836956
 H   -0.3240982530    1.8918120200   -0.9836920136
 H   -0.6160691695    2.0807634527    0.7484558965
 H    0.6984926609   -0.3800900539   -0.5508710348
 H    0.4100627344   -0.1890509167    1.1646562908
 H   -2.0304571843   -0.0270771957    0.7958129274
 H   -1.9674576885    0.1815360955   -2.1007601834
 H   -1.6676006249   -2.7233019832   -2.1924768529
 H   -0.1892984158   -1.8122106519   -1.7821596037
 H   -0.9342187455   -2.7272491959    0.6360399056
 H   -3.2849531127   -3.2675342189   -0.4464939367
 H   -3.5424638529   -1.2569024878    1.8585396073
 H   -4.8287833507   -2.3016320507    1.2515170583
 H   -3.4009321717   -3.0133801931    2.0134410553
 H   -4.0662653842   -0.3768815012   -0.5588678663
 H   -3.9806447586   -1.5276042101   -1.8998155835