15

 N    0.1446792001    1.4042502079   -0.1078550645
 C    0.0132673191   -0.0001953487   -0.0432103730
 C   -1.0907007213   -0.8328065149   -0.0061351590
 C   -0.5968981555   -2.1695775379   -0.0185470795
 O   -1.3103078227   -3.3394794880    0.0085539728
 C    0.7782879213   -2.1296689969   -0.0495274078
 N    1.7813636174   -3.1233052929   -0.0563962550
 N    1.1275827452   -0.7846852915   -0.0675835897
 H    0.3664522723    1.8119752382    0.7966072920
 H   -0.7190428679    1.8264072196   -0.4264209170
 H   -2.1229389506   -0.5177631678    0.0467436508
 H   -2.2438811195   -3.1208777252    0.0701615016
 H    1.7541450847   -3.6782416135   -0.9068494729
 H    1.6638444769   -3.7713861643    0.7162292877
 H    2.0704045005   -0.4519362241   -0.1741573367