18

 C   -0.7723780378    0.8748841876    0.1401602226
 N    0.4856956534    0.1677926221   -0.1339894115
 C    1.0622254302   -0.4922315882    0.9691515205
 C    2.0172212916   -0.1295578936    1.8925202629
 C    2.2147451503   -1.2454445816    2.7584119010
 C    1.3709117291   -2.2553462550    2.3555185708
 C    1.1515368308   -3.6282882683    2.8982882664
 N    0.6761953836   -1.7816846127    1.2633221774
 H   -0.6821461037    1.6542431708    0.9125281730
 H   -1.1351637859    1.3337968178   -0.7845410159
 H   -1.5261928404    0.1572154984    0.4767025442
 H    1.1593133759    0.8063712325   -0.5383276151
 H    2.5103154774    0.8296077208    1.9447249466
 H    2.8944119321   -1.3001811371    3.5959897107
 H    0.1188164945   -3.7829214233    3.2368712794
 H    1.3707594422   -4.4106328185    2.1598568238
 H    1.8071974551   -3.7950928499    3.7562484818
 H    0.0454072214   -2.3143111718    0.6886413414