19

 O    0.0637700772    0.0159567705   -0.0042607027
 C    0.0041447637    1.2146055273    0.0093071080
 C   -1.1832780982    2.1579690729    0.0432745242
 C   -0.7975749665    3.2526195497    1.1114334747
 C   -1.1159671405    4.3421621622    0.0617072984
 C   -0.8439321454    3.2720326106   -1.0205258099
 C    0.6877058196    3.0834190343   -1.2447783897
 C    1.1266158165    2.2691981330   -0.0058253076
 C    0.7423359064    3.0607669984    1.2655045644
 H   -2.1847329805    1.7374911014    0.0611154798
 H   -1.3287401831    3.2739369064    2.0636657536
 H   -2.1701835483    4.6328916654    0.0873216262
 H   -0.4965200994    5.2463192551    0.0564903524
 H   -1.4159474180    3.3104924754   -1.9482437885
 H    0.8808237611    2.5126281591   -2.1596523531
 H    1.2082291626    4.0426139914   -1.3335721951
 H    2.1387838664    1.8687169399   -0.0314551284
 H    1.2665842075    4.0184338870    1.3486669466
 H    0.9749398588    2.4737193200    2.1606933266