17

 C    0.0249901537    1.4608001311   -0.4330796942
 C   -0.0668808410    0.0978066924    0.2739527288
 C   -1.4192003761   -0.5376816444    0.1499635874
 N   -2.2782550346   -0.5216393700    1.1809380859
 N   -3.3750959490   -1.1351594473    0.7358020278
 C   -3.2662652813   -1.5568924291   -0.5521860921
 C   -4.3592842023   -2.2560390554   -1.2126687938
 O   -5.4177682252   -2.5011985776   -0.6713611534
 C   -1.9961926619   -1.1794715489   -0.9655379363
 H    1.0261914706    1.8881566478   -0.3222185266
 H   -0.1854825451    1.3675082491   -1.5033691125
 H   -0.6965106060    2.1665290615   -0.0107836192
 H    0.6912418738   -0.5782443011   -0.1385373822
 H    0.1561318065    0.2171356827    1.3383049925
 H   -4.1781248816   -1.2632314071    1.3311672026
 H   -4.1557897072   -2.5541032322   -2.2614431622
 H   -1.5558006634   -1.3513674316   -1.9352271925