20

 C   -0.0738476654    1.5024820535    0.0210045140
 C   -0.0908894887    0.0081786788   -0.0462436103
 C   -0.0828177518   -0.7634697877   -1.1365362987
 C   -0.0136860898   -2.2496076891   -0.8196282997
 O    1.1393314919   -2.8752394506   -1.3617845810
 C   -0.0215026314   -2.2543061114    0.7126659827
 N    1.2203125012   -1.6390364191    1.2480549321
 C   -0.0586309423   -0.8571794807    1.1943497413
 C   -0.7180342637   -0.4124791481    2.4733662394
 H    0.8253213353    1.8623781239    0.5372398140
 H   -0.0921408597    1.9449854840   -0.9781512137
 H   -0.9333775657    1.8928129994    0.5800608637
 H   -0.0314794667   -0.4046484396   -2.1589699112
 H   -0.8676765549   -2.8030037527   -1.2271322693
 H    1.8767023599   -2.5103784374   -0.8522181564
 H   -0.4752897681   -3.0734541910    1.2598499762
 H    1.3602945915   -1.9773850968    2.1997019600
 H   -0.2230660049    0.4704736492    2.8931183095
 H   -1.7692708126   -0.1549417835    2.3042468958
 H   -0.6853598341   -1.2056411410    3.2272727116