23

 C   -0.5026702846    1.1991768715   -0.2175713469
 O   -0.3021112860   -0.1994796939   -0.2951470054
 C    0.7839180855   -0.5648535286   -1.1146356219
 C    0.9343889195   -2.0972483660   -1.0458212522
 C    0.7824211755   -2.5577789491   -2.5068966302
 C    0.0807509333   -1.3688085308   -3.1987494254
 C    0.5041400425   -1.1811964063   -4.6522295528
 C   -1.4483489240   -1.4450338582   -3.0754681892
 O    0.5833393274   -0.2269373618   -2.4695264440
 H    0.3846539984    1.7077141270    0.1905725532
 H   -0.7286476004    1.6282485284   -1.2006988609
 H   -1.3467515507    1.3660806270    0.4554020346
 H    1.6764825365   -0.0084043405   -0.7907582853
 H    1.8950339352   -2.3863925986   -0.6150198442
 H    0.1475897761   -2.4914505056   -0.3994810122
 H    1.7635949597   -2.7174076195   -2.9645950519
 H    0.2161427904   -3.4876291659   -2.6018279884
 H    0.2054813768   -2.0453563544   -5.2541023288
 H    0.0356075938   -0.2895519219   -5.0794806660
 H    1.5892959486   -1.0650944171   -4.7214551458
 H   -1.7543051628   -1.5651672093   -2.0337964948
 H   -1.9000934365   -0.5238109281   -3.4554458544
 H   -1.8417037846   -2.2853694086   -3.6573948672