22

 C   -0.1335634476    1.6453500746    0.0590103745
 C    0.0061740599    0.1150282770    0.0721544719
 C    0.6709006650   -0.3549974594    1.3822981635
 O    1.9515958789    0.2102768366    1.6119947067
 C   -1.3900409990   -0.5401472167    0.0030104702
 O   -2.0880492934   -0.2509800226   -1.1963435084
 N    0.7870002639   -0.4807104213   -1.0363381755
 C    0.8134962948    0.1258808213   -2.3649349761
 C    2.0282318221    0.1291199526   -1.5076989333
 H    0.8366048610    2.1461292963    0.0694700353
 H   -0.7147944243    1.9807053087   -0.8024184425
 H   -0.6684871664    1.9688839452    0.9575423807
 H    0.0489953464   -0.0447795592    2.2292287411
 H    0.7193986924   -1.4529651155    1.3817245415
 H    2.5688163719   -0.2251523506    1.0171424788
 H   -1.2826283374   -1.6254139041    0.1427117755
 H   -2.0130828369   -0.1531535827    0.8165330661
 H   -1.6385022711   -0.7236459453   -1.9036020565
 H    0.7311134036   -0.5687793984   -3.1977757833
 H    0.3219005566    1.0815318668   -2.5218612896
 H    2.3364093966    1.0880277873   -1.1002491922
 H    2.8429932030   -0.5641434408   -1.7043731884