23

 C   -0.1117438306    1.4827445700   -0.0366837980
 C    0.2188516267    0.0000761829   -0.0687579699
 O    0.4006707610   -0.4506406613    1.2606817193
 C    0.6780107425   -1.8264925506    1.3552276831
 C    2.1198647677   -2.3567565378    1.0266434106
 C    2.1624169694   -2.9823082226    2.4256084265
 C    2.0257191131   -1.9425336384    3.5008145486
 C    2.6360367198   -0.5556405265    3.4846250887
 C    0.7819998368   -2.3813034023    2.7690311573
 H    0.7032271100    2.0486266570    0.4237625728
 H   -0.2675126228    1.8620643162   -1.0511584217
 H   -1.0208824068    1.6594099919    0.5450750289
 H   -0.5961165215   -0.5678639101   -0.5494295271
 H    1.1287314025   -0.1788645959   -0.6646027668
 H   -0.0651943093   -2.3923640497    0.7731496387
 H    2.1253070753   -3.0881733317    0.2156808746
 H    2.8768770180   -1.5949065427    0.8180751012
 H    2.5209714669   -3.9822905436    2.6376430731
 H    2.0573600703   -2.4016839703    4.4884938425
 H    2.5246707543   -0.0664445725    2.5169886767
 H    2.1436842595    0.0835208417    4.2254938363
 H    3.7020052733   -0.5989554032    3.7367588660
 H   -0.0480421862   -2.8365394006    3.2968844086