16

 C   -0.3658137523    0.9210233906   -0.4867755618
 O    0.5762458570    1.3217483533    0.5047158944
 C    0.4672787629   -0.0737549441    0.2083552332
 C   -0.0387040328   -0.9282747801    1.3309624377
 C   -1.4488678301   -1.4486395878    1.4507002849
 O   -2.2336797705   -1.4653921774    0.2665084890
 C   -1.5778993041   -2.3009635964   -0.5838260706
 N   -0.5266332053   -2.8893871112   -0.1781591291
 C   -0.3052677922   -2.4144960531    1.1715664662
 H   -1.4120975262    1.0260979940   -0.2102427281
 H   -0.1194922011    1.2045096288   -1.5094708100
 H    1.3252409385   -0.4782073214   -0.3290986778
 H    0.3956530042   -0.6701038451    2.2937059406
 H   -2.0437022249   -1.3509774531    2.3489542996
 H   -2.0286401897   -2.3964484417   -1.5637569166
 H    0.1113836467   -3.1257107455    1.8739672185