14

 N    0.1322502340    1.3855343144    0.2040979916
 C    0.0253839485    0.0067446556    0.0315521659
 C   -1.0423889432   -0.8357168844    0.0190844852
 O   -0.6321136182   -2.1222588093   -0.1016069950
 N    0.7497691972   -2.1545429730   -0.1752078690
 C    1.1188780394   -0.9018203383   -0.0896716643
 O    2.4003518077   -0.4694860444   -0.1369133630
 C    3.4105687267   -1.3834098389    0.0284353386
 N    4.5903368649   -0.9933050413   -0.1563676639
 H    1.0225580146    1.7415076901   -0.1187466989
 H   -0.6266037633    1.9121540487   -0.2060137160
 H   -2.1076282938   -0.6854907065    0.0843212098
 H    3.0487859458   -2.3703892115    0.3216408224
 H    5.2402540597   -1.7566592013    0.0223779865