15

 N   -0.1027591499    1.2368044314   -0.5441045041
 C   -0.0466316509    0.0691132725   -0.1042276488
 O    1.0141241988   -0.6512277094    0.4497607708
 C    0.1837572581   -1.8422323752    0.6107363380
 C    0.0800442574   -2.2722715854    2.0020037586
 N   -0.0368194212   -2.6370122113    3.0919167074
 C   -1.0042171034   -1.0607978666    0.0305586710
 C   -2.4405577380   -1.0092243150    0.4658444924
 C   -2.0901368091   -1.4923384393   -0.9130883417
 H    0.7876690994    1.7280240967   -0.4671754470
 H    0.5623646708   -2.6604033222   -0.0086464242
 H   -2.7577047731   -1.7378968241    1.2042176837
 H   -2.8732406128   -0.0213935360    0.5753321583
 H   -2.2806965084   -0.8382601166   -1.7566134788
 H   -2.1764091977   -2.5530798696   -1.1232320854