12

 N    0.0518448399    1.3846025796    0.1823572389
 C   -0.0850575854    0.0338698261    0.0667054075
 C   -1.1442954835   -0.8358937585    0.0420460578
 N   -2.5286846427   -1.0112029466    0.0489097558
 C   -2.6532167339   -2.2899321461   -0.0055932332
 O   -1.4808668622   -3.0469491349   -0.0510658053
 C   -0.5195919814   -2.0901733369   -0.0200645004
 N    0.7848709512   -2.1077043155   -0.0385938359
 O    1.0543726993   -0.6887080202    0.0190195387
 H    0.9384398088    1.7584582388   -0.1222262575
 H   -0.7501159223    1.9284119753   -0.0957705123
 H   -3.5641353180   -2.8680336909   -0.0212326143