22

 C    0.0406639459    1.5859294950    0.1681564885
 C    0.0241910521    0.0599223691    0.0411924504
 C    0.6586914935   -0.4693263308   -1.2559137088
 C    0.7498136773   -2.0192840375   -1.3072260283
 C    0.5147490609   -2.4069273579   -2.7853627919
 C   -0.1889354629   -1.1929146235   -3.3593952004
 C   -0.8262996953   -1.2234996129   -4.7125691968
 C   -0.1004044913   -0.1533749984   -2.5267276878
 H    1.0644808326    1.9747935007    0.1278784902
 H   -0.5258296016    2.0647945860   -0.6372019399
 H   -0.3999357767    1.9090379281    1.1166545053
 H    0.5593929421   -0.3781026877    0.8940971370
 H   -1.0085635762   -0.3075231575    0.1053560193
 H    1.6702603868   -0.0351332331   -1.3248470000
 H    1.6938891555   -2.3996852672   -0.9074727940
 H   -0.0530732705   -2.4389479292   -0.6898486267
 H    1.4601142376   -2.5847630410   -3.3193915041
 H   -0.0712557476   -3.3278114969   -2.8950839706
 H   -1.6169247521   -1.9834818406   -4.7626831539
 H   -1.2657140354   -0.2575598175   -4.9766036977
 H   -0.0959193642   -1.4878603830   -5.4886786159
 H   -0.4922667806    0.8355229357   -2.7435471041