16

 C   -0.0103024727    1.5327106230    0.0017788973
 C    0.0338677291    0.0284465992   -0.0065267957
 C    0.3157396530   -0.7860785405    1.2104668667
 N    1.3242605818   -0.6842866263    0.1342088067
 C    1.2760682754   -1.8133400125   -0.7463087390
 N    2.2253361673   -2.6429392929   -0.8280763848
 N    0.0522626192   -1.7735817839   -1.4288907754
 C   -0.7473229850   -0.6950887998   -1.0781266847
 O   -1.8065002854   -0.3950935088   -1.5694762948
 H    0.6048463514    1.9317808492    0.8111447405
 H    0.3567096221    1.9388588445   -0.9453304319
 H   -1.0420040713    1.8687583350    0.1377115165
 H    0.5878307467   -0.2721021837    2.1269835819
 H   -0.1923248996   -1.7370862129    1.3440862326
 H    2.0192146223   -3.3860232185   -1.4951573867
 H   -0.2366108544   -2.4558271209   -2.1133578092