20

 C   -0.3396508743    1.4491097568   -0.0327003494
 C    0.1342768687    0.0089327278   -0.0445602822
 O    1.1781109672   -0.1451937344   -1.0251672361
 C    2.0396020380   -1.1260208061   -0.6189309317
 O    2.9513657043   -1.5305634685   -1.2848147255
 N    1.6526797960   -1.5381085530    0.6413401037
 C    0.7485271654   -0.5689411034    1.2658590855
 C    1.5366047207    0.4674377493    2.0846991222
 C   -0.3076778950   -1.2594252344    2.1312508754
 H    0.4749923984    2.1378522031    0.2019936430
 H   -0.7381306527    1.7143643254   -1.0152216991
 H   -1.1380265124    1.5820156602    0.7041426052
 H   -0.6936880124   -0.6479021224   -0.3450068756
 H    2.3526878158   -2.0176879588    1.1870605621
 H    2.2637362021    0.9950289711    1.4608305200
 H    0.8741761753    1.2062597315    2.5453202938
 H    2.0836031804   -0.0335349297    2.8904770072
 H    0.1490348926   -1.7102678793    3.0184253419
 H   -1.0562110215   -0.5390719152    2.4773760015
 H   -0.8135872666   -2.0487989298    1.5695187082