18

 C   -0.0857487751    1.5006985966   -0.1730161929
 C    0.0032833995    0.0162201068    0.1980368025
 C   -1.3379492443   -0.6814401954    0.0936825029
 O   -1.9109241842   -0.6579661445   -1.2595656007
 C   -2.1518110008   -2.0615134147   -1.1983326356
 C   -0.8601813017   -2.8253293333   -1.1053897982
 C   -1.4427363123   -2.2080797490    0.1419324350
 C   -3.3900433159   -2.5831141822   -1.6811805189
 N   -4.3877019047   -3.0201816497   -2.0715820910
 H    0.8935226353    1.9816686710   -0.0995640897
 H   -0.4496120871    1.6190408501   -1.1973165610
 H   -0.7730352755    2.0351213024    0.4916061716
 H    0.7308291470   -0.4891126107   -0.4462054419
 H    0.3597000221   -0.0983121951    1.2301165688
 H   -2.0645010842   -0.2230309261    0.7766722288
 H   -0.9505969899   -3.9052510627   -1.1550510659
 H    0.0119579804   -2.4060285139   -1.5966039228
 H   -1.7343397087   -2.7948869995    1.0016217288