13

 N    0.0145537467    1.3943363421    0.1334324464
 C   -0.0572811292    0.0279520543    0.0457206889
 C   -1.1975804991   -0.7246844769    0.0243303192
 N   -1.1176968778   -2.0902572177   -0.0127147019
 N    0.0051030351   -2.7943473456   -0.0310436945
 C    1.1235985144   -2.1102084480   -0.0171268857
 C    1.2351707398   -0.6659268964    0.0145038929
 O    2.2970371923   -0.0371582683    0.0046459631
 H    0.9516799777    1.7253407744   -0.0656818956
 H   -0.7372924670    1.9473690764   -0.2444778342
 H   -2.2004941897   -0.3144247898    0.0385241274
 H   -1.9571811233   -2.6463915014   -0.0273208463
 H    2.0368246000   -2.6951956030   -0.0412190098