16

 N   -0.3538637666   -1.1221575065   -0.1747229753
 C   -0.2254187832    0.0252097237   -0.0933856991
 C   -0.0653249378    1.4434469568   -0.0116992298
 C    0.5077049300    2.0748887694    1.2717013793
 O    0.8852467525    1.2243083428    2.3004209290
 C    2.2984093017    1.0156196369    2.3445794137
 C    2.7868704601    0.4538159184    1.0222787061
 O    2.5063143656    1.3514199592   -0.0610983183
 C    1.3370357859    2.0827054587    0.0280825805
 H   -0.8274441887    2.0142515274   -0.5323264209
 H    0.0328020126    2.9930889925    1.6116880502
 H    2.8151319295    1.9572069002    2.5796957538
 H    2.4754795951    0.3026413068    3.1529234073
 H    3.8729474067    0.3269512435    1.0288283755
 H    2.3149129420   -0.5169198695    0.8334992386
 H    1.4275947746    3.0093480497   -0.5292633507