25

 C   -0.0705964439    1.5557687959    0.1492810884
 C   -0.0218324780    0.0414001802   -0.0773354122
 C    0.9216674503   -0.4091496765   -1.2077593982
 C    2.3891306651   -0.0525054052   -0.9269379786
 C    0.7683360795   -1.9156221004   -1.4618916125
 C    1.3641294661   -2.4083372213   -2.7773765862
 O    1.6699509472   -1.6509819838   -3.6714992480
 C    1.5321492877   -3.9173239928   -2.9126822563
 C    1.9460665146   -4.3664481909   -4.3116966680
 H    0.8915997223    1.9517786707    0.4874650892
 H   -0.3414110276    2.0833444464   -0.7722456056
 H   -0.8149953933    1.8121631579    0.9096787604
 H    0.2682223706   -0.4595260789    0.8572947231
 H   -1.0354204851   -0.3131360813   -0.3068399353
 H    0.6234348158    0.1024307464   -2.1314800130
 H    3.0328687863   -0.3851720462   -1.7449872170
 H    2.5281080726    1.0266466588   -0.8196108699
 H    2.7368652962   -0.5263951569   -0.0000139448
 H    1.1905724761   -2.5022057341   -0.6341041857
 H   -0.2972306882   -2.1905554574   -1.4913336140
 H    2.2762863637   -4.2264358525   -2.1643437612
 H    0.5975064977   -4.3986477953   -2.5942242206
 H    1.1897003420   -4.0899219441   -5.0512020799
 H    2.8810239645   -3.8871734039   -4.6113949708
 H    2.0825484777   -5.4509193947   -4.3467132233