21

 C   -0.2183913156    1.4648164418    0.3860205623
 C   -0.0543582202   -0.0404166283    0.1648885808
 C    0.6389700159   -0.4098866025   -1.1582715557
 C    0.8912686830   -1.9241698010   -1.2646705350
 C    1.6904466010   -2.3397230128   -2.5016647351
 N   -0.1267512484    0.0761943951   -2.3048344210
 C    0.3360947641    0.9870491940   -3.2025044756
 O    1.4289060863    1.5129804930   -3.1769850720
 H    0.7521160997    1.9715147055    0.3891185448
 H   -0.8237576686    1.9188287843   -0.4039207245
 H   -0.7080810363    1.6681810428    1.3431119488
 H    0.5316879307   -0.4728489476    0.9846775939
 H   -1.0362810324   -0.5339479451    0.2036561845
 H    1.5962462465    0.1178375638   -1.2205655334
 H    1.4206858376   -2.2419956736   -0.3584645586
 H   -0.0747662456   -2.4493042837   -1.2489822405
 H    1.8466613037   -3.4225074632   -2.5204465185
 H    1.1711899284   -2.0594565572   -3.4227565104
 H    2.6728008281   -1.8566690633   -2.5177499246
 H   -1.0588704075   -0.2852091084   -2.4419144948
 H   -0.4179923205    1.2044421265   -3.9862249655