14

 C    0.1988731653    1.4636299023   -0.0048867121
 C   -0.0054104521    0.0306960871   -0.1541115073
 C   -0.1738669461   -1.1537506618   -0.2774654478
 C   -0.3883562302   -2.5819332184   -0.4169477098
 C   -1.5417441337   -3.1310195084    0.4131075263
 O   -2.2551143144   -2.4917279290    1.1439270052
 C   -1.7934753169   -4.6411320290    0.2855488827
 O   -1.1400234515   -5.3680483747   -0.4149632945
 H    1.2309850822    1.6904926427    0.2837980384
 H   -0.0091419390    1.9947369062   -0.9401328081
 H   -0.4607247526    1.8766234514    0.7659172266
 H   -0.5789292166   -2.8679911387   -1.4613302512
 H    0.5068938003   -3.1595589922   -0.1453363311
 H   -2.6436140446   -4.9868651476    0.9102554029