16

 C   -0.0330874308    1.5229597764    0.0134258466
 C   -0.0374833996    0.0325898735   -0.0185791127
 C   -1.0482669903   -0.8324709114   -0.1413787809
 C   -0.5630535132   -2.2518303507   -0.1212533570
 N    0.8803025557   -2.0998443383    0.0311727248
 C    1.7273468945   -3.1958444502    0.0958068094
 O    2.9215747635   -3.1679245966    0.2197840937
 C    1.2426315196   -0.7271069117    0.0977320582
 O    2.3528783209   -0.2801351394    0.2220602516
 H    0.5897742552    1.9209746834   -0.7946351292
 H   -1.0414470698    1.9317237321   -0.0822939307
 H    0.4093690481    1.8840530766    0.9478727188
 H   -2.0986301854   -0.5909441146   -0.2448591665
 H   -0.9965380019   -2.8222432629    0.7114246635
 H   -0.8146257754   -2.7850089903   -1.0481086457
 H    1.1472839590   -4.1394259859    0.0161603960