21

 C   -0.1192949232    1.4569048417   -0.2166172118
 O   -0.0817166513    0.1435748217    0.2973142305
 C   -1.2983249436   -0.5559371722    0.1522407925
 C   -1.4870178000   -1.1796737334   -1.2597264694
 C   -0.8954166813   -2.5266541178   -0.7327137661
 C    0.5601960040   -2.7075707362   -1.0793043196
 O    1.0470777281   -3.7510186653   -1.4388701118
 C   -1.1535967258   -1.9897938038    0.7266732739
 C   -0.1627775052   -2.2587200351    1.8496276795
 H    0.8592033293    1.9051994867   -0.0299613776
 H   -0.3156563499    1.4763019967   -1.2986524842
 H   -0.8915581319    2.0607181735    0.2841955707
 H   -2.1273280191    0.0533493828    0.5410103020
 H   -2.5378215488   -1.2828855835   -1.5397585600
 H   -0.9518521220   -0.6898234956   -2.0775747843
 H   -1.4258070489   -3.4424225026   -1.0001356513
 H    1.1774438072   -1.7874473503   -0.9841116634
 H   -2.1497293902   -2.3360199481    1.0210467057
 H    0.8187706463   -1.8328302994    1.6322822403
 H   -0.5143544452   -1.8164871449    2.7876616996
 H   -0.0461265484   -3.3356198547    2.0092346346