23

 C   -0.0372023803    1.6385755817   -0.0692658363
 C   -0.1405164943    0.1099373777   -0.1276798403
 C    0.7311877577   -0.5142018927   -1.2192003067
 C    2.2443956121   -0.3054206330   -1.0277149672
 O    2.8658796924   -1.3189169299   -1.8003283871
 C    2.1060742150   -2.5014049369   -1.6004742949
 C    0.6579489471   -2.0466756630   -1.3648540725
 C   -0.2778154039   -2.9246895313   -0.5752181377
 C   -0.4918496889   -2.7261733017   -2.0565586244
 H    0.9792800868    1.9652134206    0.1734742661
 H   -0.3090953003    2.0900150378   -1.0299478105
 H   -0.7061448891    2.0497000165    0.6929033157
 H    0.1352155192   -0.3172440864    0.8449452529
 H   -1.1887944459   -0.1678886701   -0.2970269889
 H    0.4542937119   -0.0670552109   -2.1835781671
 H    2.6111904479    0.6589527083   -1.3870974955
 H    2.5115244177   -0.4037435326    0.0402542997
 H    2.2283574185   -3.1322774627   -2.4867104787
 H    2.4848044028   -3.0576633930   -0.7264543747
 H    0.1018428456   -3.8849589394   -0.2380949112
 H   -0.9824994636   -2.4664143904    0.1098879834
 H   -1.3325077058   -2.1129134464   -2.3683401041
 H   -0.2753959526   -3.5532037321   -2.7259038199