19

 C    0.0310939990    1.5675599727   -0.0179158146
 C    0.0986189796    0.0402532424   -0.0053676006
 C    0.7705461111   -0.5433531977   -1.2595764458
 C    0.7734292412   -2.0695998003   -1.2424978312
 O    1.5815196294   -2.5055782929   -2.3297077601
 C    1.2878453770   -2.5927752614    0.0765568304
 C    1.2944739667   -1.8736167306    1.2037277107
 C    0.7748133196   -0.4875868102    1.2646555444
 O    0.8613253596    0.1731793566    2.2806059530
 H    1.0332102874    2.0006173181   -0.1029853077
 H   -0.5655578617    1.9209940732   -0.8641392393
 H   -0.4102665847    1.9396412915    0.9083493095
 H   -0.9301773152   -0.3553808776    0.0360817837
 H    0.2686908888   -0.1878163223   -2.1646706174
 H    1.8133268167   -0.2077893198   -1.3160216815
 H   -0.2632955756   -2.4299007350   -1.3758159173
 H    1.4876651199   -3.4595302407   -2.4183553172
 H    1.6670905962   -3.6138833111    0.0752741466
 H    1.6850385050   -2.2673353248    2.1371647544