16

 C   -0.0277633888    1.4459863240   -0.1077821350
 C    0.0077311558   -0.0439253403    0.0160940582
 N   -0.0102297244   -0.8166884339   -1.0605739492
 N    0.0324889231   -2.0913025549   -0.5840512064
 C    0.0771367135   -2.1295781821    0.7780669306
 C    0.0628585079   -0.8281844975    1.2046498150
 C    0.0286360126   -3.2245107653   -1.4482543648
 N   -0.0202685396   -2.8758015077   -2.7517604288
 O    0.0670106198   -4.3469505903   -0.9964828906
 H    0.8641453788    1.9014837220    0.3359508387
 H   -0.0772976151    1.7351587857   -1.1593736617
 H   -0.8972463553    1.8655792380    0.4095635457
 H    0.1138558640   -3.0756881560    1.2912671062
 H    0.0880066782   -0.4766518148    2.2235608405
 H   -0.0500858030   -1.9024767119   -3.0080524837
 H   -0.0278380874   -3.6076807349   -3.4385240048