15

 C   -0.0473207096    1.4951086162    0.0095493551
 C    1.4625450336    1.2635536085   -0.0057755951
 C    1.1896375083    0.1004062055    1.0051436293
 C    2.1451691205   -1.0500249241    0.7059536599
 O    1.5385814808   -2.1263511096   -0.0235974568
 C    2.1314943869   -1.0426579446   -0.7534860694
 C    1.1706321877    0.1106427581   -1.0230913024
 N    0.0173925273   -0.0380887854    0.0011962857
 H   -0.5014366426    1.9030027963    0.9169440680
 H   -0.5183312074    1.9121080558   -0.8850027768
 H    2.2832762316    1.9912135874   -0.0097933657
 H    0.8945771678    0.3133653472    2.0332781178
 H    2.9931576404   -1.2963538777    1.3357740009
 H    2.9675091237   -1.2825386756   -1.4015390016
 H    0.8563793810    0.3339412819   -2.0433146789