23

 C   -0.0390052671    1.5779877290    0.0419643507
 C   -0.0189555213    0.0500827728    0.0041165068
 O    0.7769860509   -0.4815576193    1.0638994624
 C   -1.4291773771   -0.5525936637    0.0039197975
 C   -1.4298162167   -2.0816758685   -0.0827100722
 C   -2.8272610819   -2.6948764925   -0.0604629753
 O   -3.6457809972   -2.2290542793   -1.1453331123
 C   -2.8166881143   -4.2253509907   -0.0791874894
 O   -4.1295231958   -4.7404409623   -0.1202081172
 H    0.9809895769    1.9712696120    0.0588691595
 H   -0.5579937757    1.9906177120   -0.8290977866
 H   -0.5598696853    1.9373294167    0.9386836926
 H    0.5017920233   -0.2754026607   -0.9061693150
 H    0.4128125187   -0.1516420488    1.8933385119
 H   -1.9481942729   -0.2365960672    0.9214650275
 H   -2.0058264429   -0.1340802530   -0.8287267646
 H   -0.9156659298   -2.3996609113   -1.0029590682
 H   -0.8406016825   -2.4895864435    0.7459745783
 H   -3.3669584577   -2.3673859328    0.8367805073
 H   -3.1597387016   -2.3911316720   -1.9633324917
 H   -2.2203781628   -4.5689799105   -0.9456794749
 H   -2.3333756690   -4.6160429520    0.8230919459
 H   -4.6101661683   -4.1554303946   -0.7209101329