17

 C   -0.0305746706    1.5335899983   -0.0263227078
 C   -0.0073931645    0.0215357522    0.0088294592
 C   -0.0234959833   -0.6928615049   -1.1911790239
 C   -0.0032133006   -2.0847772676   -1.2094383841
 C    0.0340196556   -2.8026558578   -0.0149527167
 C    0.0505238710   -2.1128083626    1.1873121050
 C    0.0303225247   -0.7121978053    1.2129189923
 C    0.0500587830   -0.0467767193    2.5368631917
 O    0.0821378590   -0.6346862644    3.5956415456
 H    0.8554303514    1.9700204720    0.4466649399
 H   -0.0601589846    1.8877762035   -1.0595557654
 H   -0.9057155354    1.9440936626    0.4882233208
 H   -0.0525361873   -0.1462311072   -2.1289371731
 H   -0.0165840704   -2.6086813750   -2.1598276674
 H    0.0498780480   -3.8870369193   -0.0259737340
 H    0.0793992547   -2.6326392439    2.1385114660
 H    0.0335400694    1.0620765188    2.5173375817