19

 C   -0.0533072282    1.4852501643   -0.4620784331
 C   -0.0523870443    0.1809215594    0.3447567448
 C   -1.4072785663   -0.4818316831    0.3513418271
 O   -1.8050397447   -1.1588564049   -0.8579173352
 C   -1.5868509047   -1.9335062395    0.2973350760
 C   -0.5860860678   -3.1003900825    0.4217820482
 N   -1.7080074835   -3.8804201621    0.9847946648
 C   -2.6121049672   -2.8106132593    0.9874711564
 N   -3.7845983221   -2.5908286987    1.4019462077
 H    0.9365222008    1.9505638297   -0.4583078511
 H   -0.3376459342    1.2932556494   -1.5007355594
 H   -0.7652183441    2.2063705198   -0.0466598202
 H    0.6862965619   -0.5146168073   -0.0688173343
 H    0.2406906479    0.3809618093    1.3836659395
 H   -2.2180525388    0.0895892013    0.8066930974
 H   -0.2056345469   -3.4940783752   -0.5248462769
 H    0.2445043576   -2.9207814581    1.1137732176
 H   -1.6287485745   -4.5836474627    1.7047827839
 H   -4.1857599308   -3.4052787798    1.8697397869