16

 O   -0.2775898478    1.3079270103   -0.2608301335
 C   -0.1323448779   -0.0705492441   -0.1026903746
 C   -0.3412440781   -0.6320176333    1.2826106564
 O   -0.7349346137    0.3050541763    2.2555622785
 C   -1.3573334719   -0.9236283350    0.2017037308
 C   -2.7455375205   -0.3098495070    0.2353745442
 C   -3.2385024278    0.0001270298   -1.1647336296
 O   -4.2755098607   -0.3998174974   -1.6288884283
 H   -0.4744640505    1.6602518125    0.6187017678
 H    0.6430206299   -0.4775095154   -0.7445231673
 H    0.2729836910   -1.4485635385    1.6548002728
 H    0.0520392036    0.5745651117    2.7417503629
 H   -1.3238419424   -1.9381612377   -0.1862770361
 H   -3.4638031514   -0.9720641132    0.7266044125
 H   -2.7193139749    0.6313584815    0.7952580406
 H   -2.5485128168    0.6450277897   -1.7516175369