19

 O    0.0262802346   -0.0905431504   -0.1923216125
 C    0.0329799953    1.1186625910   -0.0486017388
 N   -1.1484272658    1.8111544277    0.1230459008
 C   -1.4129293476    3.2288288665   -0.1182980798
 C   -0.4949080464    4.2121687032    0.6391704182
 N    0.9468563029    3.9727926106    0.5649047704
 C    1.3775523940    3.2590109611   -0.6810232156
 C    1.3356016557    1.8970716013    0.0619956918
 C    1.3719971961    2.7676893667    1.3455604210
 H   -1.9421217929    1.1947768342    0.0143097306
 H   -1.3797605568    3.4525502262   -1.1946746095
 H   -2.4423969247    3.4223814756    0.1991265243
 H   -0.7122340773    5.2121490020    0.2414183895
 H   -0.7651042712    4.2274121429    1.7006210107
 H    0.7466803070    3.3976564995   -1.5618932446
 H    2.4007015889    3.5461013059   -0.9431731548
 H    2.1492896823    1.1929158773   -0.1113601764
 H    2.3866855995    2.9073400397    1.7331050515
 H    0.7084316064    2.4825320590    2.1660326032