25

 C    0.1264415892    1.5608717426   -0.1412355553
 C    0.0380600812    0.0385351812   -0.0094475967
 C   -1.4016874911   -0.4874578397    0.0161137175
 O   -2.1143982663   -0.0824230836   -1.1690073301
 C   -1.4625894710   -2.0072877876    0.2216602919
 C   -2.8777625768   -2.6352483276    0.2833639294
 C   -2.7524304493   -4.1518143362    0.4549646553
 C   -3.7180384040   -2.0441667784    1.4297510839
 O   -3.5579282149   -2.4476953657   -0.9578067405
 H    1.1670586022    1.8919641758   -0.2056355541
 H   -0.4006415242    1.9041318106   -1.0351810931
 H   -0.3295223862    2.0570718126    0.7225435086
 H    0.5723602239   -0.4437686271   -0.8414035696
 H    0.5450353838   -0.2913986351    0.9056287897
 H   -1.9411467745    0.0168428082    0.8263018343
 H   -1.6607669765   -0.4773790989   -1.9240390018
 H   -0.9149447009   -2.4941048458   -0.5977363035
 H   -0.9220841054   -2.2487452797    1.1455486311
 H   -2.2824935074   -4.4068482554    1.4097998275
 H   -3.7446109366   -4.6109094843    0.4214412458
 H   -2.1545603050   -4.5794043424   -0.3553115501
 H   -3.9044171020   -0.9763224405    1.2795134184
 H   -4.6892468526   -2.5453886057    1.4658889838
 H   -3.2269251248   -2.1713526124    2.4009911263
 H   -3.4793778609   -1.5062912251   -1.1679540788