16

 C    0.0764222950   -1.2171903744   -0.0529047503
 C    0.0609449613   -0.0181204691   -0.0166198661
 C   -0.0013779502    1.4421054073    0.0193740920
 C    1.3432357005    2.0403625528   -0.0057450924
 N    2.3792390684    2.5503505314   -0.0206548396
 C   -0.8766971734    2.0004298476   -1.1351150039
 C   -0.8936151573    3.5284581424   -1.3513915859
 C   -0.3116233064    3.1851999606   -2.7384943154
 O   -0.2917921809    1.7708227727   -2.4206086899
 H    0.1021368758   -2.2786139162   -0.0889114038
 H   -0.4785303998    1.7571836605    0.9592082298
 H   -1.8622266235    1.5265858636   -1.0446617737
 H   -1.8831859725    3.9858374699   -1.3463347405
 H   -0.2254809033    4.0946295779   -0.7008148128
 H   -0.9673309586    3.3955264662   -3.5905133106
 H    0.6933339549    3.5645494267   -2.9463583271