17

 O    0.1330855959    1.3649939424   -0.0137127400
 C   -0.0017838422   -0.0132499362   -0.0201124884
 C   -0.4688357801   -0.6769044509    1.2337763725
 O   -0.7527264326    0.2369438780    2.2574855290
 C   -2.1439277221    0.4696763057    2.4848831755
 C   -2.8102349505    1.0446805539    1.2294502030
 C   -2.6678486825    0.0773646873    0.0633139158
 O   -3.5539205817   -0.1087051950   -0.7408668362
 C   -1.3903499146   -0.6886344293    0.0156238890
 H    0.1032120795    1.6284086426    0.9179681604
 H    0.7287975223   -0.5135220101   -0.6488102408
 H   -0.0376851513   -1.6111700519    1.5839671284
 H   -2.6344741214   -0.4652183124    2.7902405862
 H   -2.1946590824    1.1704628156    3.3219307894
 H   -3.8730391017    1.2442823202    1.3894345408
 H   -2.3200726658    1.9883913636    0.9613368750
 H   -1.4586346087   -1.6098928635   -0.5522356896