16

 O   -0.6227405653    0.4455708814    0.5259300076
 C    0.0720923421    0.8829650629   -0.3515843408
 C    1.2543913245    1.8083990622   -0.1308483363
 C    1.2271595680    3.0048963127   -1.0719180403
 N    0.1600448948    4.0611783795   -0.8821756955
 C    0.4588161629    4.7320474309    0.3769366477
 C    1.2427859829    5.1398538579   -0.8272612755
 C    2.3118509578    4.1128016550   -1.0637037327
 O    3.4747825393    4.1428612897   -1.3380047989
 H   -0.1096766549    0.6206884607   -1.4199918674
 H    1.2904042449    2.0853780174    0.9249323720
 H    2.1683889333    1.2401822996   -0.3571777372
 H    1.1471592014    2.6529227065   -2.1090063541
 H   -0.3189878002    5.4178870100    0.6977233322
 H    0.9474650552    4.1962866519    1.1857861924
 H    1.1450645132    6.1124755517   -1.2944661531