16

 C    1.2387316143   -0.5095880645    1.1804370408
 C    1.5631878609    0.7717117314    0.3576875877
 C    0.3232770315    1.5899314666    0.1031162293
 C   -0.8448943322    0.7641537038    0.5832909118
 C   -1.4700643709   -0.1405654798   -0.5140116681
 O   -1.4013627806   -1.3394452636    0.4066309115
 C   -0.1359858891   -0.6158862455    0.5694010758
 C   -0.0000886092   -0.3917672075   -0.9421913342
 N    0.8923932767    0.7764887508   -0.9997091302
 H    1.2605528170   -0.3093649687    2.2548253079
 H    1.9121032905   -1.3361622320    0.9397839034
 H    2.5523250791    1.2123052141    0.3964272765
 H    0.3296999704    2.6680935090   -0.0068521548
 H   -1.4354782805    1.0481387244    1.4510436825
 H   -2.3928316825   -0.0520839786   -1.0873938428
 H    0.2432894946   -1.2209609100   -1.6024776172