21

 O   -0.0838913446    1.4527205218    0.0215030108
 C    0.0106798101    0.0402571336    0.1456600899
 C   -1.3797312567   -0.5388657754   -0.0775916319
 C   -1.4062338664   -2.0698172844    0.0044961012
 O   -0.8821148654   -2.5438314192    1.2386971601
 C   -2.8183551664   -2.6155086455   -0.1932603189
 C   -3.0359299338   -4.1371601978   -0.0552362169
 C   -4.0210147213   -3.7531945406    1.0636739794
 O   -3.6253526189   -2.3615562908    0.9919350358
 H    0.7743005324    1.8287119773    0.2371166808
 H    0.7100116406   -0.3782889274   -0.5981560574
 H    0.3750880675   -0.2576226976    1.1380154706
 H   -2.0679046702   -0.1216383744    0.6675851995
 H   -1.7440110185   -0.2188353006   -1.0615492390
 H   -0.7612581182   -2.4928219432   -0.7781034752
 H   -1.5733867366   -2.3568228675    1.8891149141
 H   -3.2820163949   -2.1720511867   -1.0847337110
 H   -3.4523319668   -4.6517152179   -0.9217044006
 H   -2.1466831223   -4.6577233548    0.3020109534
 H   -5.0808264504   -3.8776209895    0.8091710019
 H   -3.8393418193   -4.1785810794    2.0564621733