16

 C   -0.0078708224    1.4535895569   -0.0369987671
 C    0.0097231057    0.0021555226   -0.0223692324
 C    0.0253637298   -1.2080595756   -0.0083322106
 C    0.0424509047   -2.5676724990    0.0061663854
 C    0.0598430782   -3.7790063864    0.0228374499
 C    0.0627039277   -5.2436285001   -0.0044961768
 C   -1.3653827129   -5.8100970973    0.0120373191
 O    0.8167368108   -5.7496936304   -1.1038859194
 H    1.0083876383    1.8625788386   -0.0659399380
 H   -0.5463810737    1.8351454969   -0.9118681998
 H   -0.5015717720    1.8512619119    0.8569353663
 H    0.5952449765   -5.6110388103    0.8817452671
 H   -1.9262464618   -5.4594398713   -0.8601706239
 H   -1.3204434018   -6.9020024766   -0.0124002752
 H   -1.9007053875   -5.4921996152    0.9113042473
 H    0.4758243705   -5.3335389646   -1.9037060617