13

 O   -0.0000108350   -0.0029804877   -0.0615182260
 C   -0.0336872755    1.1933127380   -0.0475653282
 N   -1.1634214370    2.0246994479   -0.0797055743
 C   -0.7187976329    3.3278841932    0.1226213092
 C    0.6424660174    3.3078781601    0.1246513722
 O    1.0904273247    2.0061729929    0.0196615551
 C    1.1300536860    4.6307731051    0.0273926872
 C   -0.0036368909    5.4216208273   -0.0225778195
 N   -1.1404707843    4.6182426615   -0.0173500586
 H   -2.0565683505    1.6312853523    0.1662305774
 H    2.1496773736    4.9779578428    0.0133502485
 H   -0.1020307865    6.4939764600    0.0063730224
 H   -2.0812074291    4.9603649266    0.0678809147