21

 C   -0.0550745410    1.5341650755    0.0036722289
 C    0.0401185670    0.0191027044   -0.0030289493
 C    1.1083014998   -0.6898540109   -0.8943707235
 C    1.1050806183   -1.7870442718    0.1896993834
 O    2.3014848251   -2.5036170085    0.3572036141
 C    0.6943480522   -0.7003023263    1.2143041872
 C   -0.1010981235   -2.7094672249   -0.0606675167
 O   -1.1863844203   -2.0140627804   -0.6542367138
 C   -1.3197309904   -0.6522683436   -0.2674689120
 H    0.9139355187    1.9835885385    0.2428869843
 H   -0.3730169540    1.9179383475   -0.9724658553
 H   -0.7777320950    1.8847610051    0.7503741535
 H    0.8341053057   -0.9725557137   -1.9131336635
 H    2.0557615642   -0.1451292777   -0.8893641575
 H    2.1991675703   -3.0950166587    1.1115228601
 H    1.5685248583   -0.1565900143    1.5840243445
 H    0.0502136619   -0.9906226545    2.0516941527
 H    0.1846955830   -3.4983604394   -0.7645496106
 H   -0.4074435073   -3.1870159588    0.8878375010
 H   -1.9562585666   -0.5582304326    0.6288293280
 H   -1.8399037464   -0.1618136948   -1.0984482055