17

 N   -0.0669713397    1.3433465161    0.0064885606
 C    0.1081396857   -0.0140263079    0.0824787511
 O    1.2044297219   -0.5176627569    0.2279115016
 C   -1.1879028545   -0.8106562410   -0.0129895588
 C   -1.9317885537   -0.8736081111   -1.4035301216
 C   -1.8501373542   -2.4029328365   -1.3443570772
 C   -0.4168924792   -2.8384336647   -1.2497644427
 C   -1.0969557981   -2.3366481108   -0.0098224851
 H    0.7563138933    1.9201207430   -0.0577284750
 H   -0.9494262112    1.7458974711   -0.2583913274
 H   -1.8778703077   -0.4436420486    0.7533321993
 H   -2.9496648193   -0.4819865870   -1.3442322045
 H   -1.4217064956   -0.4014921294   -2.2503507675
 H   -2.6420371000   -3.0769949785   -1.6460573208
 H   -0.2580097377   -3.9117439995   -1.2745479735
 H    0.3783564946   -2.2596244548   -1.7094974388
 H   -1.2073784247   -2.9559296838    0.8712039002