20

 C    0.1640494089    1.5933192796    0.0076043671
 C   -0.0491299998    0.0754488267   -0.0747005836
 C    0.5309431242   -0.5150035298   -1.3276163014
 C   -0.0406466264   -0.3538180090   -2.7523986860
 C    0.4425127221   -1.7961229856   -3.0970895007
 C    1.5022173010   -1.9666326554   -4.1445954525
 O    2.2557417013   -1.0833265707   -4.4858224678
 C    1.0223571033   -1.8996885275   -1.6450504423
 N    1.9570336900   -0.8203504364   -1.3780675309
 H    1.2315622960    1.8332337055   -0.0045778495
 H   -0.3064493249    2.1086115336   -0.8368325653
 H   -0.2660250179    2.0008296221    0.9272600734
 H    0.4198382993   -0.4121406815    0.7865832005
 H   -1.1218727112   -0.1527825783   -0.0305754264
 H   -1.1305361371   -0.2786889545   -2.7775730550
 H    0.3934706004    0.4487113862   -3.3537323119
 H   -0.3762886055   -2.5030171062   -3.2529637675
 H    1.6122168749   -2.9940757950   -4.5591622922
 H    1.0720615110   -2.8049470996   -1.0502566441
 H    2.4265619803   -0.4824054841   -2.2178256640