19

 C    0.0260658718    1.5913731707   -0.2057520585
 C    0.0419609157    0.0630380211   -0.1354926156
 C   -1.3541390326   -0.5324060865    0.1350341715
 C   -1.3805823858   -2.0172023458    0.1875325774
 C   -1.6075432137   -2.9132001223    1.1907274966
 O   -1.8898659054   -2.5677949748    2.4803738084
 C   -1.4825676614   -4.2273162518    0.6304006887
 C   -1.1850040484   -4.0335425186   -0.6812008844
 O   -1.1169085473   -2.7132233142   -0.9683889607
 H    1.0259202874    1.9915582349   -0.4003818166
 H   -0.6352990197    1.9446052525   -1.0049964218
 H   -0.3304728401    2.0282592581    0.7339450295
 H    0.4267885221   -0.3503903380   -1.0748907680
 H    0.7283711477   -0.2699566545    0.6520910080
 H   -1.7353041209   -0.1638580568    1.0939190026
 H   -2.0497283575   -0.1742745655   -0.6370838087
 H   -2.0924900427   -3.3654605143    2.9763794028
 H   -1.5992949115   -5.1737996123    1.1365495799
 H   -1.0018451177   -4.7064492718   -1.5026173009