16

 O    0.2010435428    1.4170489132   -0.2058170953
 C    0.0331224787    0.0152497634   -0.0403660384
 C    0.6194176066   -0.5446732386    1.2655898429
 C   -0.2815996659   -1.2991924862    1.9233869221
 C   -1.5173091641   -1.2770689275    1.1488297315
 C   -1.3875680128   -0.5007425212    0.0166875828
 C   -2.6241812425   -0.5304730213   -0.6708855045
 C   -3.4703980235   -1.3284601217    0.0794543319
 N   -2.7829264193   -1.7836671867    1.1902493969
 H   -0.3294772532    1.8427021044    0.4768271818
 H    0.5748286504   -0.4301332163   -0.8863668992
 H    1.6354127442   -0.3338783968    1.5720338856
 H   -0.1246445914   -1.8242675050    2.8574829499
 H   -2.8888776618   -0.0341377901   -1.5921503094
 H   -4.5009307424   -1.6038424287   -0.0778895719
 H   -3.1645669158   -2.3918600711    1.8936100734