20

 C   -0.3004291051    1.4421868697   -0.1986541685
 N   -0.2276159284   -0.0110859163   -0.1457981449
 C    0.6440990207   -0.5924662916   -0.8492243655
 C    0.7806608779   -2.1115747393   -0.8457319379
 C    1.9051285662   -2.5742501225   -1.7742354799
 C    3.1602667201   -1.6925279147   -1.5047076555
 C    2.4621049548   -0.6483079003   -2.4066688489
 C    1.7639021125   -1.8227239876   -3.1309595497
 O    1.5089322570    0.1110983073   -1.6491558922
 H    0.6416643754    1.9128873658    0.1121179746
 H   -0.5177559590    1.8055447166   -1.2118165197
 H   -1.0950003598    1.7847628973    0.4688055856
 H    0.9609489765   -2.4364685252    0.1843866964
 H   -0.1805579251   -2.5422102362   -1.1454744902
 H    2.0130259379   -3.6604521816   -1.7799429497
 H    3.3823436064   -1.3964740952   -0.4760667645
 H    4.0586609954   -2.0929360275   -1.9802678626
 H    3.0445783824    0.0843543191   -2.9654656628
 H    2.4024943229   -2.2473844301   -3.9090749940
 H    0.7617681511   -1.6407919777   -3.5280650802