14

 C   -0.1430183486    1.3496032064    0.0815257048
 O   -0.0768788828   -0.0560402421    0.0680943987
 C    0.7991507812   -0.5718477359    1.0433886367
 C    0.7965361142   -2.0721393237    0.9446196497
 C    1.1573333723   -2.9110414838    2.0925112364
 O   -0.2031975307   -2.7709483305    1.6873959536
 H    0.8409033027    1.8075279934   -0.1104783668
 H   -0.8334518882    1.6516075262   -0.7094130991
 H   -0.5161661366    1.7323482726    1.0446209869
 H    1.8242467286   -0.1913534785    0.8820000417
 H    0.4874549468   -0.2732008772    2.0578880649
 H    0.9623288090   -2.4607733954   -0.0604707336
 H    1.6039057108   -3.8899724797    1.9248735129
 H    1.4124690812   -2.4441574219    3.0436268832