20

 C    0.0342843141    1.5756885121    0.0669421321
 C    0.0299817253    0.0428866515    0.0176631565
 C    0.6389620636   -0.5004854604   -1.2392530458
 C    0.2236925507   -0.3005070561   -2.7248600786
 C    1.6108224416    0.3196876512   -2.9497742376
 N    2.1030706641   -0.1730148630   -1.6116244131
 C    2.3665540210   -1.6562643801   -1.6984309352
 C    0.8631320854   -1.9746396778   -1.6691696411
 O    0.2448968119   -1.7287655432   -2.9541051211
 H    1.0548412801    1.9558574755   -0.0348453249
 H   -0.5701712053    2.0007922528   -0.7414990110
 H   -0.3743288542    1.9384872628    1.0142268113
 H    0.5882937659   -0.3544745255    0.8754796584
 H   -0.9946075567   -0.3412356458    0.1073696609
 H   -0.6817748561    0.1689872641   -3.1177196448
 H    2.1768841111   -0.0320881476   -3.8170536703
 H    1.5889322967    1.4148703324   -2.9462697517
 H    2.9293822014   -1.9835227780   -2.5772873251
 H    2.8833670299   -1.9853746808   -0.7902847811
 H    0.4806207694   -2.8799464140   -1.1908022777