14

 N    0.5468273355    1.5397863955   -0.0469657426
 C    0.1015952545    0.1550262836    0.0254973432
 C    0.3960995373   -0.6381118398   -1.1880241853
 N    0.6227264015   -1.2148221333   -2.1636606324
 C    0.7334952928   -0.4844511876    1.2664363389
 C    1.2845518299   -1.8540943862    1.2823052759
 O    2.1380082865   -0.7121479965    1.1824238470
 C    0.2666366241    0.0920290949    2.5170460237
 N   -0.1334158378    0.5214279063    3.5117514284
 H    1.5459063262    1.5734490982   -0.2280373400
 H    0.0782007478    2.0307173678   -0.8008148276
 H   -0.9861702214    0.1526800343    0.1644284301
 H    1.3267534665   -2.3843861433    2.2305383346
 H    1.2093772267   -2.4616558137    0.3841968659