18

 C   -0.2478233412    1.5426875930   -0.0989293009
 C   -0.0110081763    0.0358617679    0.0601620782
 C    0.7941467910   -0.5525186228   -1.0648682318
 C    0.1980569240   -0.9725951536   -2.4019985757
 C    0.8728512423   -1.9818034167   -1.4872647422
 O    2.2290365133   -2.2786103993   -1.7123205749
 C    2.8965421047   -1.0319381746   -1.7976399327
 O    2.1274159290   -0.0759196337   -1.0954213264
 H    0.7037535842    2.0793161850   -0.1430813039
 H   -0.7982780344    1.7586687010   -1.0204066700
 H   -0.8253490644    1.9385888869    0.7416342464
 H    0.5132812413   -0.1633864330    1.0025388752
 H   -0.9700739215   -0.4924075127    0.1105523844
 H   -0.8849526747   -1.0194398826   -2.4564790763
 H    0.6818544406   -0.6836550488   -3.3283404463
 H    0.3368920081   -2.8056941870   -1.0328367497
 H    3.8851829778   -1.1167903329   -1.3348055406
 H    3.0054514261   -0.7327901059   -2.8533689229