21

 C   -0.2663736443    1.4534457771    0.0802403584
 C    0.0551649436   -0.0336070727   -0.1274874123
 C    0.8612670552   -0.2560898434   -1.4099991074
 O    0.0921869645    0.2193040702   -2.5039204592
 C    0.7980298958   -0.5883645797    1.0762701541
 C    0.0815083695   -1.1184548919    2.2704190492
 C    0.8855804977   -2.0841456280    1.4056601309
 C    0.1604997829   -3.0951148199    0.6062865631
 O    0.5996140928   -4.1851659501    0.3282011537
 H    0.6526237016    2.0318130456    0.2352104791
 H   -0.7761758009    1.8582073382   -0.7960989723
 H   -0.9037152853    1.5981913292    0.9577339714
 H   -0.8929654822   -0.5712847993   -0.2506141729
 H    1.8231435757    0.2796214171   -1.3349065946
 H    1.0905545803   -1.3268492888   -1.5214364083
 H    0.5928089183    0.0733437192   -3.3114805711
 H    1.7281424663   -0.0636901028    1.2865347298
 H    0.4598566097   -0.9112168098    3.2646234496
 H   -1.0000025250   -1.2016459428    2.2100491183
 H    1.8336011996   -2.4415748871    1.7929207006
 H   -0.8587707358   -2.7902445404    0.2751164801