17

 C   -0.0143435378    1.5348240526    0.0623108693
 N    1.3786099988    2.0421898988    0.0052884302
 C    2.3016112792    0.8990250301   -0.0245281715
 C    2.0257796852    0.0667625093    1.2302613911
 O    0.7140062901   -0.5071194878    1.1247381203
 C    0.0319811991    0.0028501723   -0.0012423962
 O    0.6519454921   -0.4077460163   -1.2045669480
 C    2.0242779253    0.0063708340   -1.2435622216
 H   -0.5006048697    1.8441783182    0.9963721221
 H   -0.6134912553    1.9140565764   -0.7717966637
 H    1.5079658742    2.5987295629   -0.8321435895
 H    3.3348215495    1.2580389676   -0.0268754715
 H    2.7495681728   -0.7512509481    1.3251183000
 H    2.0832373178    0.6984014533    2.1254871400
 H   -0.9620723636   -0.4473527469    0.0048241832
 H    2.1987281787    0.5558855209   -2.1785751510
 H    2.6707767736   -0.8833890274   -1.2467708130