21

 C    0.0247130630    1.4534984934    0.3002506326
 C    0.3451311928   -0.0392568967    0.1781671383
 C    0.6665549233   -0.5098402960   -1.2585348645
 C    1.9687857002    0.0964566293   -1.7957201750
 C    0.6404477523   -2.0477939108   -1.3113114087
 C    1.5826493262   -2.8629601610   -2.1392710376
 N    1.7012340994   -2.8645124297   -0.6786936556
 C   -0.6916120317   -2.5953412631   -1.1145501025
 N   -1.7683669013   -2.9969497863   -0.9880629702
 H    0.8790747796    2.0868998858    0.0429223849
 H   -0.8084352166    1.7324970540   -0.3542736932
 H   -0.2645411395    1.6998878691    1.3261087471
 H    1.1878476862   -0.2926939901    0.8353062063
 H   -0.5113837092   -0.6138237213    0.5479833117
 H   -0.1512409073   -0.1714755835   -1.9087519013
 H    2.8473324041   -0.2527864604   -1.2394755191
 H    2.1195932352   -0.1321031423   -2.8538419106
 H    1.9449291243    1.1842199924   -1.7006047300
 H    1.2349268728   -3.7971671612   -2.5690047789
 H    2.3226205242   -2.3328934719   -2.7290120402
 H    2.4594988320   -2.2515559095   -0.3866554035