21

 C   -0.0731333697    1.5330540135   -0.0732879125
 C   -0.0160924421    0.0067741932    0.0337558938
 C   -1.4383910781   -0.5569036466    0.1026730665
 O    0.6388573396   -0.5075939717   -1.1699250217
 C    1.7909609524   -1.1927283049   -0.7206332770
 C    1.3117609327   -1.9132851652    0.5395587639
 C    0.9107027334   -0.5551279507    1.1595873016
 C    2.2792183766    0.1374571508    1.0661089647
 O    2.7605758417   -0.2699185518   -0.2334310486
 H    0.9007233298    1.9490175047   -0.3352399642
 H   -0.7752617107    1.8188196685   -0.8621175880
 H   -0.4170502763    1.9841830338    0.8638988266
 H   -1.9581235076   -0.3476304204   -0.8367487652
 H   -1.4494431855   -1.6378292093    0.2593548644
 H   -2.0006703447   -0.0867084905    0.9163653489
 H    2.2212544078   -1.7507839968   -1.5504700333
 H    0.4886655912   -2.6024671944    0.3548434090
 H    2.1130149150   -2.4193978061    1.0823398758
 H    0.4619611285   -0.5605502424    2.1530232200
 H    2.2382242961    1.2280052898    1.1153502348
 H    2.9645108298   -0.2187058835    1.8471056105