13

 O    0.0307498784    1.4104518984    0.0075179916
 C   -0.0219560022    0.0086144826    0.0021485381
 C   -1.4459417798   -0.4708873938    0.0127589810
 N   -2.3920369392    0.3981781200    0.0238684497
 O   -3.6957631331   -0.1307432628    0.0333222637
 C   -3.8689206033   -1.4550171051    0.0305558929
 N   -2.9807753374   -2.3751388961    0.0197203243
 C   -1.6514011623   -1.9487772139    0.0093005509
 O   -0.7086476393   -2.7086050476   -0.0017048839
 H    0.9563029015    1.6708114414   -0.0028319530
 H    0.4591474204   -0.4399842178   -0.8823014124
 H    0.4746569326   -0.4472487896    0.8742439611
 H   -4.9327660562   -1.6868147859    0.0391660361