17

 C   -0.2154600806    1.5889668391    0.2016416318
 C   -0.0485094114    0.1065033778    0.0639744604
 C    0.0599485813   -0.6433862112   -1.0968202123
 C    0.0707221955   -0.2665609960   -2.5464588485
 C    1.4576002101   -0.4846165885   -3.1388876164
 O    1.7063491225   -1.2880481388   -3.9988188406
 N    0.2087578909   -1.9379947041   -0.6969978960
 N    0.1906460701   -2.0905256513    0.6378009442
 C    0.0371653350   -0.8542781180    1.1002497397
 H    0.7314262824    2.0915542985    0.4325062990
 H   -0.6072799671    2.0404392488   -0.7152173117
 H   -0.9137276571    1.8331601654    1.0082932055
 H   -0.6476282887   -0.8499151128   -3.1316304170
 H   -0.1854866693    0.7946738493   -2.6394033724
 H    2.2522944893    0.1462909376   -2.6824449975
 H    0.3069208764   -2.7506197823   -1.2835373620
 H   -0.0149850192   -0.6848409635    2.1665845939