20

 C   -0.0751313186    1.5444367746    0.0194825440
 C    0.0793788603    0.0403674954   -0.0516800941
 C    0.7655582016   -0.6911776105   -1.1710210526
 C    1.3885409959   -0.6921824195    0.2108125088
 C    2.6340078233    0.1072554776    0.0924691944
 N    3.5081344728    0.2579644337    0.9930693243
 O    2.7038837663    0.6689898704   -1.1582252677
 C    1.7205365628    0.0973392418   -2.0559129148
 C    2.4226934414   -0.7620014458   -3.0992740473
 H    0.8033800912    2.0707044582   -0.3601463595
 H   -0.9434205256    1.8695563568   -0.5641920325
 H   -0.2309589689    1.8635397359    1.0548396980
 H   -0.7739832371   -0.5012911996    0.3493497964
 H    0.3123186770   -1.5810127458   -1.5923255771
 H    1.4030633718   -1.5461873407    0.8737220904
 H    4.2850874793    0.8202975963    0.6416335658
 H    1.2265054677    0.9454979851   -2.5445878329
 H    2.9082158471   -1.6230784321   -2.6294714767
 H    1.7010979667   -1.1293880273   -3.8363972106
 H    3.1837837152   -0.1777401744   -3.6228425964