23

 C   -1.7366303948    1.6908769891   -1.2351206989
 C   -1.8096197897    0.1680877990   -1.3591349492
 O   -0.9558091518   -0.3056810557   -2.3994003756
 C   -1.5128669399   -0.5323997483   -0.0245867973
 C   -1.5644117184   -2.0700710200   -0.0623456441
 C   -0.9196887761   -2.6701467510    1.1923629494
 C   -3.0198404441   -2.5756202937   -0.2332549694
 C   -3.1223149998   -4.0198429936   -0.4059069447
 C   -3.1904465739   -5.2110003542   -0.5552597426
 H   -1.9287251895    2.1596559737   -2.2038880469
 H   -2.4694344581    2.0668216397   -0.5136988500
 H   -0.7423853460    2.0056736314   -0.8930933376
 H   -2.8160203683   -0.1020563146   -1.7009622582
 H   -0.0540435761   -0.0482034603   -2.1757039538
 H   -0.5080797819   -0.2239900055    0.3004904460
 H   -2.2042925437   -0.1551428756    0.7419195676
 H   -0.9987040967   -2.3981807821   -0.9413568608
 H   -1.4352951143   -2.3332128326    2.1003323802
 H   -0.9602286508   -3.7624052259    1.1703677853
 H    0.1296265695   -2.3689267257    1.2759151668
 H   -3.6094471712   -2.2709090907    0.6432778930
 H   -3.4836466212   -2.0876248708   -1.0983497644
 H   -3.2610838532   -6.2617594123   -0.6890527246