13

 C   -0.0354352207    1.4769254544   -0.0321663556
 C   -0.0112098702   -0.0147071944    0.0256330884
 N   -0.0317350939   -0.7545844641   -1.0742911019
 N    0.0003023895   -2.0347169204   -0.6384721754
 C    0.0406804003   -2.1440860440    0.7008118229
 C    0.0348220501   -0.8461271435    1.1872854512
 C    0.0675289823   -0.4351560122    2.5394369209
 N    0.0934838670   -0.0756379395    3.6406046902
 H    0.8535528200    1.9044487335    0.4427435747
 H   -0.0712130166    1.8058697937   -1.0720163756
 H   -0.9072003404    1.8778672884    0.4949684961
 H   -0.0079378842   -2.7789205856   -1.3157391026
 H    0.0698588366   -3.0938287762    1.2098612667