19

 C   -0.0416186087    1.5871582498   -0.0173097371
 C    0.1092693660    0.1050473876   -0.0525839237
 C    0.1235235427   -0.7701732780   -1.1347717529
 N    0.0095340732   -0.3639440534   -2.4878144594
 C    0.2921767301   -2.1204625744   -0.6678054545
 C    0.3194074379   -2.0197582692    0.7027172415
 C    0.7324343284   -2.4414499468    2.1029227389
 C    0.6722983089   -0.9018551481    2.4306292352
 N    0.1689235033   -0.7113278382    1.0578028615
 H    0.2339694533    2.0026112795   -0.9912590067
 H   -1.0657855988    1.9174914633    0.2069726016
 H    0.6134541926    2.0444553613    0.7342025923
 H   -0.8399471414    0.1602542769   -2.6642074291
 H    0.0142513346   -1.1615967821   -3.1108268019
 H    0.3627432497   -3.0044465829   -1.2833727323
 H    0.0223212436   -3.0592188533    2.6602495356
 H    1.7302002324   -2.8786024208    2.1966380153
 H   -0.0228579238   -0.5839160167    3.2134931866
 H    1.6538292860   -0.4500888046    2.6057752889