21

 C    0.3586479068    1.5169661624    0.0928617363
 C   -0.0141637276    0.0721898193    0.1582044438
 C   -1.3831361367   -0.5836477989   -0.1044488979
 C   -0.9769404451   -1.7358706919    0.8711433275
 C   -1.7892147040   -2.0556706191    2.1529113612
 C   -1.3482882272   -3.5392187869    2.0110388953
 C   -0.9677933916   -3.2448819426    0.5331370205
 C    0.3688419104   -1.0210410952    1.0688859572
 O    0.9725747239   -0.9019267908   -0.2282757906
 H    1.3668045462    1.6698110951    0.4872695471
 H    0.3400054746    1.8766774020   -0.9424132728
 H   -0.3429128779    2.1266283170    0.6715600018
 H   -2.2260337910    0.0002913919    0.2780957836
 H   -1.5714470769   -0.8610462672   -1.1455235238
 H   -1.5167290788   -1.5224009449    3.0688202605
 H   -2.8639038477   -1.9308757444    1.9869473484
 H   -0.4706456222   -3.7652485145    2.6229115573
 H   -2.1035706620   -4.3061653110    2.1957856110
 H   -1.7787964666   -3.5067322136   -0.1537910996
 H   -0.0340773882   -3.6563027301    0.1427734839
 H    1.0347145214   -1.0392515266    1.9266479791