22

 C   -1.9751492055    1.6891728332   -1.1381796313
 C   -1.9519997750    0.1687929271   -1.2984128837
 O   -1.0374843914   -0.2263352951   -2.3216116751
 C   -1.6535498271   -0.5465440764    0.0287328968
 C   -1.6254800737   -2.0837375971   -0.0498043246
 C   -0.9206917155   -2.6958184298    1.1667156785
 C   -3.0382705207   -2.6672064221   -0.2014632061
 O   -3.0440849550   -4.0773296879   -0.3762036458
 H   -2.1613575951    2.1698753915   -2.1023251313
 H   -2.7539904491    2.0031406739   -0.4356504390
 H   -1.0143205305    2.0541454470   -0.7529405741
 H   -2.9276592954   -0.1556439556   -1.6789073738
 H   -0.1614290854    0.0811686389   -2.0616525850
 H   -0.6770613025   -0.1909799314    0.3901292905
 H   -2.3850076759   -0.2244299489    0.7832339588
 H   -1.0614472869   -2.3490961109   -0.9551026546
 H   -1.3996338828   -2.3727466895    2.0994121862
 H   -0.9695640962   -3.7867883816    1.1283510853
 H    0.1312830215   -2.3951922474    1.2118343980
 H   -3.6136189868   -2.4833037563    0.7145607157
 H   -3.5737483950   -2.1727303820   -1.0254764820
 H   -2.6011658562   -4.2670140498   -1.2097310032