17

 O    0.0037808993   -0.0007942734    0.1259235280
 C   -0.0130541191    1.1809108199    0.0594698178
 C   -1.0850204830    2.3528943541   -0.0344799164
 C   -0.6936704895    3.0466583495    1.2585095039
 C    0.6528997601    3.0647264688    1.2383411555
 C    1.0238282055    2.3811639185   -0.0660512783
 C   -0.0529268948    2.9464059172   -1.0231538676
 C   -0.0742973751    2.8738047909   -2.5158630902
 C   -0.0815984805    4.2178712885   -1.7992607770
 H   -2.1309575129    2.1919929847   -0.2848065631
 H   -1.3702204182    3.3390994229    2.0483234264
 H    1.3447069917    3.3755247088    2.0076621173
 H    2.0657413156    2.2482506734   -0.3476330220
 H    0.8335665775    2.5776774959   -3.0315190372
 H   -0.9889101845    2.5532263979   -3.0042496520
 H   -1.0010373246    4.7934431430   -1.8095042361
 H    0.8213497826    4.8178971296   -1.8367889991