20

 O    0.0045071227    1.3607557527    0.5164066240
 C   -0.0679570557    0.0096216995    0.1127847107
 C   -1.5076819898   -0.5198755243   -0.0541191562
 C   -2.1704285791   -0.0524857974   -1.3766837707
 C   -2.1534643744    1.3943282986   -1.5825218419
 N   -2.1122897399    2.5392114418   -1.7430393018
 C   -1.5465261355   -2.0350394390    0.0031649652
 C   -1.5839069684   -2.7444859334    1.3320669611
 C   -2.7982344110   -2.7579841632    0.4366565536
 H   -0.3007685772    1.9251504963   -0.2023599522
 H    0.5047432237   -0.1759198865   -0.8121939800
 H    0.4163831478   -0.5655854757    0.9080719904
 H   -2.0895313669   -0.1164518791    0.7834719307
 H   -1.6560297453   -0.5175265971   -2.2272209108
 H   -3.2094731601   -0.3964051705   -1.4126205010
 H   -0.9650669606   -2.5238083764   -0.7765808558
 H   -1.0141667575   -3.6599935097    1.4435435172
 H   -1.6253678087   -2.1358024020    2.2294047270
 H   -3.6508600314   -2.1579101867    0.7390884260
 H   -3.0626079525   -3.6828685879   -0.0635173655