18

 C   -0.3119130059    1.5304874761    0.1075036424
 C    0.1988497699    0.0982325726   -0.0767700637
 C    0.8026729642   -0.4860338292    1.1953078096
 C   -0.1039780385   -1.0930562868    2.2465039473
 C    0.7857702541   -2.0113931781    1.4387195299
 C    0.2417600599   -2.8936313762    0.4498733942
 C   -0.2043321907   -3.6490611865   -0.3728118890
 C    1.9855218814    0.1883481829    1.6726369965
 N    2.9350777212    0.7360094842    2.0434478552
 H    0.4958780352    2.2037227147    0.4103070717
 H   -0.7335412316    1.9097022520   -0.8276076684
 H   -1.0928299673    1.5774617141    0.8735336547
 H   -0.6140485347   -0.5603903669   -0.3960178240
 H    0.9529368052    0.0667932196   -0.8711500560
 H    0.1426493215   -0.9472663947    3.2910390884
 H   -1.1628453938   -1.0990973162    2.0153876120
 H    1.6592406583   -2.3925234060    1.9584697443
 H   -0.5966624583   -4.3172228256   -1.0991670550