23

 C    0.0835313174    1.5033007873   -0.1022841731
 C    0.0107887314   -0.0168899959    0.0478685818
 O    0.7364773761   -0.4615176223    1.1937569218
 C   -1.4211702611   -0.5370462537    0.0730739010
 C   -2.2543034184   -0.4769609839   -1.2455374336
 C   -2.6988739529   -1.9207260855   -0.9748088889
 C   -4.1230097453   -2.3838406113   -0.8663219917
 C   -3.2161838717   -2.9374795502   -1.9446797421
 C   -1.6235546207   -2.0809476671    0.1081357482
 H    1.1251843025    1.8354514611   -0.1119143525
 H   -0.3968672411    1.8360989834   -1.0281127826
 H   -0.4259719218    1.9992560115    0.7338057347
 H    0.5336022771   -0.4847685900   -0.7970632419
 H    0.3193061914   -0.0713545623    1.9700746196
 H   -1.9649337635   -0.0531167452    0.8947713461
 H   -3.0367275302    0.2845178336   -1.3068446772
 H   -1.6145638754   -0.3900474936   -2.1319389405
 H   -4.3889673649   -3.0350756516   -0.0391580882
 H   -4.9108044899   -1.6986436062   -1.1646299102
 H   -3.3928847595   -2.6258218723   -2.9696718907
 H   -2.8707561851   -3.9620007682   -1.8454708014
 H   -0.7343309405   -2.6153237800   -0.2429657882
 H   -1.9360099639   -2.5196117678    1.0594001095