17

 C    0.4158123887    1.7017516104   -0.3326780198
 N    0.2136403439    0.2988056971    0.0166843545
 C    1.3486425468   -0.5914373287    0.0929458750
 C    0.5800468510   -0.2387961823    1.3331536195
 C    1.1910088685    0.5549374037    2.4291883462
 N    0.7409062509    0.4895889736    3.6084164564
 O    2.2539113434    1.3633905945    2.0181795241
 C    3.3721369821    1.4368862284    2.7995604049
 O    4.2548387759    2.1979520115    2.5624502701
 H    1.3861263115    2.1150513251   -0.0346296223
 H    0.3167187306    1.7889047710   -1.4188991472
 H   -0.3778189687    2.2984830708    0.1269779387
 H    1.2202776527   -1.5792229826   -0.3428929174
 H    2.3460346184   -0.1665652025   -0.0060071771
 H   -0.1466727554   -0.9380138977    1.7343165504
 H    1.2253535445    1.1078199456    4.2582498639
 H    3.3557270051    0.7070315022    3.6261102400