16

 C   -0.0291646582    1.4106309893   -0.0047169699
 O   -0.0102770406   -0.0027063106   -0.0227231877
 C    0.6174975173   -0.5909134098    1.0260577721
 C    1.2428337550   -0.0009931594    2.1127973365
 N    1.7254584362   -1.0186828692    2.8988253892
 C    1.4222865876   -2.2387573717    2.3387285440
 C    0.7272154130   -1.9950253036    1.1629124933
 C    1.8044027427   -3.4503504455    2.9467188922
 C    2.1386407616   -4.4789150064    3.4796225604
 H    0.9890548242    1.8238667274   -0.0204855446
 H   -0.5622346130    1.7296541171   -0.9016199337
 H   -0.5517113307    1.7917625313    0.8838064046
 H    1.3815121825    1.0304888030    2.3857880454
 H    2.2287550226   -0.9034724224    3.7605496528
 H    0.3439723508   -2.7382955445    0.4833041377
 H    2.4279022191   -5.3909118949    3.9400316575