20

 C   -0.0352798022    1.6094478993   -0.0550393956
 C   -0.0267456442    0.0941707244    0.0433354123
 C   -1.2927846574   -0.5508212792   -0.4785110690
 O   -1.4266696793   -0.2375704578   -1.8603124425
 C    1.2638036441   -0.6589045093   -0.1804202115
 C    0.6449162249   -0.6248690707    1.1958959452
 C    1.3138709495    0.0949747281    2.3369093886
 O    2.2615912709   -0.7972255348    2.9133838282
 H    0.9279766438    2.0479556284    0.2158705926
 H   -0.2635377835    1.9061086814   -1.0824051610
 H   -0.8009116306    2.0484900490    0.5968444326
 H   -1.2436212757   -1.6403748105   -0.3255868360
 H   -2.1590993627   -0.1762710487    0.0920774115
 H   -2.2974371777   -0.5251401490   -2.1492095341
 H    1.2353615793   -1.5868029591   -0.7411027130
 H    2.1648201055   -0.0740771322   -0.3363202440
 H    0.1627825121   -1.5444639795    1.5200061756
 H    1.8049316760    1.0126811100    1.9810016161
 H    0.5595008463    0.3976208863    3.0818970615
 H    2.6459434806   -0.3649977063    3.6819365923