18

 C    0.1182242211    1.3071364585    0.2815007610
 O   -0.0123784808   -0.0156588819   -0.2261188876
 C   -1.2794882690   -0.5051893723   -0.1485508005
 C   -1.7594828520   -1.9316566768   -0.0926735907
 C   -2.1692631101   -0.8979150784    0.9961953288
 N   -3.4087119936   -0.2814164919    0.4394038969
 C   -4.1653568867   -1.4450543215   -0.1617562397
 C   -2.9404583190   -1.6981166942   -1.0619627439
 C   -2.6155392207   -0.1743630135   -0.8824002805
 H    1.1708671112    1.5795310294    0.1844933340
 H   -0.4920970669    2.0181096674   -0.2910458449
 H   -0.1804413989    1.3571563534    1.3362889107
 H   -1.2096788488   -2.8337553484    0.1362942407
 H   -1.9860862688   -1.0333870684    2.0538900065
 H   -4.4809458189   -2.2149700969    0.5484843192
 H   -5.0300568929   -1.0640599704   -0.7131678044
 H   -2.9667921111   -2.2273238929   -2.0137208606
 H   -2.8601269642    0.6268117689   -1.5771086351