16

 C   -0.0262257939    1.4518350749    0.0263108081
 N   -0.0435011523   -0.0046838494   -0.0010615826
 C   -1.1848022740   -0.7094216321   -0.1579956343
 C   -1.1816196142   -2.0671000695   -0.1805761932
 C    0.0951130543   -2.6962978952   -0.0269468229
 N    0.1814671384   -4.0558398998   -0.0780514717
 N    1.2188783633   -2.0312583530    0.1339028159
 C    1.2242671485   -0.6651056523    0.1506315896
 O    2.2109274421    0.0318196956    0.2886276488
 H    0.6115558348    1.8351385961   -0.7733678595
 H   -1.0447178395    1.8245829632   -0.0986113830
 H    0.3862744524    1.8052040901    0.9741155815
 H   -2.0956269786   -0.1299503721   -0.2649027168
 H   -2.0948634473   -2.6293780981   -0.3165949592
 H   -0.6416913660   -4.6155918891    0.0604218802
 H    1.0665576318   -4.4545162793    0.1919824093