19

 C   -0.2672386374    1.5754327089    0.2531794140
 C    0.2492293573    0.1656919186   -0.0572111841
 C    0.8496885548   -0.5063144921    1.1584568048
 C   -0.0038505372   -1.2470694258    2.1358630276
 C    0.9722360097   -2.0317443360    1.2557949027
 C    0.4747772030   -2.8745444764    0.2207276923
 C    0.0757131488   -3.6090864452   -0.6558776292
 C   -0.4334989748   -4.4528333956   -1.6982881902
 O    0.0477939465   -5.5144916271   -2.0289439337
 H    0.5389054859    2.2230304180    0.6148701747
 H   -0.6932598383    2.0422776067   -0.6398238648
 H   -1.0436876220    1.5505229904    1.0246921765
 H   -0.5659121311   -0.4535822902   -0.4473388064
 H    1.0029334752    0.2144304476   -0.8528319724
 H    1.7059896391    0.0133602622    1.5819972903
 H    0.2256437112   -1.2001069843    3.1942141498
 H   -1.0569828996   -1.3600848953    1.9031708719
 H    1.8645780321   -2.4005104071    1.7523570940
 H   -1.3366187835   -4.0494211072   -2.2022770477