19

 C   -0.0758328044    1.5297457761    0.0060969919
 C   -0.0570307711    0.0355103819   -0.0750013807
 C    0.7312006707   -0.8162202458   -1.0739741673
 C   -0.1962151525   -2.0304823959   -0.6985540891
 C   -0.6996896062   -2.9570077485   -1.7767477212
 N    0.5122038269   -2.7168982374    0.4063437356
 C    0.4468390572   -1.9063061736    1.3828447888
 N   -0.3436784209   -0.7229100560    1.2193737798
 C   -1.1317943575   -0.9864359340    0.0022459488
 H    0.8994487957    1.9145607118    0.3248199059
 H   -0.3044403172    1.9675199659   -0.9716057018
 H   -0.8251483170    1.8658730267    0.7266895883
 H    0.5247100206   -0.4646764559   -2.0888366165
 H    1.8071782919   -0.9584130304   -0.9358807169
 H    0.1296346037   -3.5157663118   -2.2202997932
 H   -1.4073654541   -3.6816313365   -1.3609067683
 H   -1.2051569790   -2.3990248553   -2.5714016529
 H    0.9498306959   -2.0578335774    2.3327816213
 H   -2.2148339728   -0.9143802339    0.0281726277