14

 N    0.1742851400    0.2264475893    0.9571703152
 C   -0.1239197077    0.2288512309   -0.3636298312
 O    0.2134180871    1.0938192680   -1.1443847983
 C   -1.0249147447   -0.9304804666   -0.8495014843
 C   -0.8596077667   -2.2492332892   -0.1791557617
 N   -0.7325624522   -2.5147023389    1.0921051578
 C   -0.6339384792   -3.8831191025    1.0931618172
 N   -0.6962418411   -4.4431890708   -0.0816104108
 O   -0.8455778248   -3.3463956624   -0.9422504546
 H    0.7651044383    0.9641839412    1.3040183597
 H   -0.0564600828   -0.5620964138    1.5452912864
 H   -2.0620516095   -0.5977026839   -0.7130082837
 H   -0.8606946178   -1.0385120512   -1.9215319025
 H   -0.5137174289   -4.4715350600    1.9908859707