17

 C    0.1864205963   -1.2146925197    0.8318435195
 C    0.0201117306   -0.1115579439    0.3847763778
 C   -0.2105219676    1.2285570176   -0.1624849420
 N    1.0525059537    1.9766509707   -0.2447489381
 C    1.5733876461    2.7976257238   -1.2916329779
 C    0.5877326886    3.8925983083   -1.8474593280
 N   -0.7336728471    3.7187333911   -1.1960601832
 C    0.3690146522    4.4118741855   -0.4859617487
 C    1.3491051113    3.3299913231    0.1042416534
 H    0.3382272526   -2.1882980389    1.2270380953
 H   -0.6706555687    1.1519812642   -1.1512974829
 H   -0.9291486628    1.7662009753    0.4619138976
 H    2.4938017880    2.5205482238   -1.7952534906
 H    0.6980166745    4.4209166745   -2.7850163986
 H   -1.3494805115    4.4402752768   -1.5701926723
 H    0.2725588947    5.4310951397   -0.1364154869
 H    2.0617710589    3.5459716280    0.8935683357