16

 C    0.0663666431    1.4411724729   -0.0177615225
 N    1.2787866665    0.5801556228   -0.0008659688
 C   -0.0411413068   -0.0275758634   -0.0105997408
 C   -0.6542892495   -0.9181195709    1.0408064875
 C   -1.6933377049   -1.3751949191    0.0823112894
 C   -0.7112516642   -0.9154727802   -1.0688766103
 C   -0.0121585584   -2.2653670985   -0.8226149768
 N   -0.6575172908   -2.3403160913    0.5342251986
 H   -0.0941151323    2.0135362274    0.8921691369
 H   -0.1855708186    1.9708703948   -0.9335247326
 H    1.6982330751    0.5451795997   -0.9279362607
 H   -0.7047051584   -0.7852888545    2.1127541928
 H   -2.7619970587   -1.5187016087    0.1628949411
 H   -0.9548322579   -0.5331310273   -2.0588825935
 H   -0.4081087586   -3.0815116201   -1.4317229906
 H    1.0837301442   -2.2890399635   -0.8237639198