21

 C    0.2604074286    1.4262362797    0.0239751288
 N    0.0992233657   -0.0243228462    0.0318307913
 C   -0.0604009568   -0.6180158480    1.2522493441
 O   -0.0448951407   -0.0371173203    2.3218171805
 C    0.0166883027   -0.7440454341   -1.2656392078
 C    1.1627200213   -0.2641065961   -2.1789075351
 C    0.1613643718   -2.2662295797   -1.0876741876
 C   -1.3438584160   -0.4526424339   -1.9339642909
 H    1.2782686131    1.7204116116   -0.2528555372
 H   -0.4390966036    1.8996368085   -0.6713322514
 H    0.0585430206    1.7789288071    1.0347523238
 H   -0.2064139026   -1.7054459405    1.1906721849
 H    2.1347072729   -0.4375869252   -1.7069567479
 H    1.1374778630   -0.8152273601   -3.1233226581
 H    1.0809586920    0.7990694552   -2.4166502765
 H   -0.6863757656   -2.7136548593   -0.5627121771
 H    0.2049419044   -2.7254448960   -2.0792692451
 H    1.0806105081   -2.5271486928   -0.5553791435
 H   -1.4828455972    0.6148014963   -2.1251692824
 H   -1.4156400771   -0.9712624667   -2.8953073569
 H   -2.1648706345   -0.7949871796   -1.2970917259