21

 C   -0.0500462736    1.5463029661   -0.0916698872
 C    0.0260279377    0.0219679091    0.0471129481
 C   -1.3481450207   -0.6131642332    0.1351722240
 O   -2.1337792075   -0.4128855241   -1.0686954052
 C   -2.4882724060   -1.8082564795   -1.1261818640
 C   -1.5189860515   -2.1464980387    0.0187734160
 C   -0.3551801516   -3.1470746252   -0.1241808564
 C   -0.9898407703   -3.8402775473    1.0957649974
 O   -2.0366115511   -2.8460972981    1.1593064471
 H    0.9474785945    1.9849158865   -0.1880273227
 H   -0.6317221631    1.8190822569   -0.9764618231
 H   -0.5337394998    1.9980852584    0.7811373174
 H    0.5604446405   -0.4031865601   -0.8113321840
 H    0.5930236816   -0.2497923322    0.9475476357
 H   -1.8912600589   -0.2423578570    1.0181257622
 H   -3.5375359049   -1.9886388339   -0.8576424669
 H   -2.2781274695   -2.2495427101   -2.1083258940
 H   -0.3570401292   -3.7243003838   -1.0506249587
 H    0.6410148149   -2.7322349991    0.0359822733
 H   -1.3919342150   -4.8447249748    0.9202108711
 H   -0.3854308867   -3.8532512198    2.0099844198