18

 C   -0.8428477647    1.2858654281    0.3583286636
 C   -0.0390637613    0.0577183953    0.0125261305
 O    1.2240888344    0.2470349679   -0.6346759862
 C    1.2151970057   -0.3569530473    0.6653665898
 C    1.8946596268    0.4018515475    1.7727947993
 C    1.7895284196   -0.2179327835    3.2009711690
 C    3.3318752403   -0.3617780524    3.1330085300
 O    4.1985084803   -0.7578130875    3.8624393347
 N    3.3433511312    0.1661003890    1.8633314938
 H   -0.2236221492    2.0780801751    0.7828317138
 H   -1.3237447006    1.6814380028   -0.5421930149
 H   -1.6322342542    1.0347162381    1.0748681297
 H   -0.6296778452   -0.7485756298   -0.4282137299
 H    1.4603647755   -1.4218915575    0.6591336281
 H    1.6427379381    1.4643886609    1.7276166037
 H    1.4291909645    0.4542470160    3.9806926100
 H    1.2547760572   -1.1684506499    3.2578364821
 H    4.0988182215    0.3867610573    1.2309580430