16

 C    0.1875018851    1.1554897244    0.2959051216
 O   -0.1671929916   -0.1288062438   -0.1972175171
 C    0.6173253532   -0.5785365088   -1.2683854544
 C    1.9770587484   -1.1860509167   -0.9106772484
 C    0.8072032537   -2.0846637670   -1.2164906981
 O    0.1660710844   -2.7876807008   -0.2082675399
 C    0.4372578550    0.1087146020   -2.5167899674
 C    0.2914538109    0.6909617121   -3.5596065051
 H    1.2223947830    1.1713707340    0.6627221926
 H    0.0736729907    1.9192933797   -0.4825593565
 H   -0.4939245673    1.3732760261    1.1205594249
 H    2.7808152067   -1.0964030950   -1.6324636409
 H    2.2668377656   -1.1053021472    0.1317084544
 H    0.8055090994   -2.6188678722   -2.1608798831
 H   -0.2753944797   -2.1281122723    0.3449708541
 H    0.1542279625    1.1963824455   -4.4835083464