14

 O   -0.0672211451    1.4038973803    0.0046784702
 C    0.0370641560   -0.0048545740   -0.0508993086
 C   -1.3935091742   -0.5326135603    0.0624716385
 N   -1.4333017812   -1.9833303958    0.0106183933
 N   -1.2028433046   -2.6810522155   -1.0960542804
 C   -1.3103416979   -3.9245673052   -0.6446529430
 N   -1.5910118759   -3.9798407254    0.6762446987
 N   -1.6641102713   -2.7359035729    1.0807876846
 H    0.8136286169    1.7787686436   -0.0829831023
 H    0.4765800059   -0.3538491413   -0.9960628508
 H    0.6393592573   -0.4107508655    0.7758621366
 H   -1.8346536205   -0.2385837174    1.0153498058
 H   -2.0018752598   -0.1373495226   -0.7537129173
 H   -1.1905914356   -4.7936573179   -1.2707445652