18

 C   -0.3407018568    1.4519836779   -0.0054157441
 C    0.1572736532    0.0234158299   -0.0713233537
 O    1.3985930124   -0.0973970319   -0.8081430834
 C    2.0313116999   -0.7961296244    0.2794635849
 C    0.7993078802   -0.6208566194    1.1817205408
 C    0.8512673637    0.0358017135    2.5883283464
 N    0.2146735236   -1.1835404014    3.1015440741
 C    0.1414161528   -1.8256104757    1.8896701399
 O   -0.2751615978   -2.8985862016    1.5438471806
 H    0.4066345774    2.1133341814    0.4431946846
 H   -0.5514571955    1.8135758598   -1.0166167861
 H   -1.2667230880    1.5145017906    0.5765263761
 H   -0.6094119680   -0.6319505053   -0.5072534879
 H    2.2564299377   -1.8396366150    0.0263317843
 H    2.9477160475   -0.2965701649    0.6172944244
 H    1.8609547102    0.2124981798    2.9744097834
 H    0.2487621580    0.9411553463    2.7098108617
 H   -0.0578046303   -1.4662275196    4.0309557239