19

 C    0.0002083917    1.5408737392    0.0263377160
 C    0.0222310395    0.0161135100   -0.0242961191
 O   -1.3029884177   -0.5235421356    0.0244366887
 C    0.8137658104   -0.5627150996   -1.2252971672
 C    1.3069637813   -1.9548235024   -0.7647683630
 O    2.5043769071   -2.3951277248   -1.3791948890
 C    1.5064631793   -1.7755015061    0.7256107245
 O    2.1479002153   -0.5401395785    1.0836707169
 C    0.7252782979   -0.6209208216    1.1720881572
 H    1.0152585107    1.9358476126    0.1237495031
 H   -0.4379347442    1.9576849674   -0.8887856351
 H   -0.5948439779    1.8840136623    0.8782741913
 H   -1.8274182513   -0.0762144182   -0.6479597345
 H    0.1890456598   -0.6081249649   -2.1224585773
 H    1.6900976469    0.0531610162   -1.4404441362
 H    0.5044917792   -2.6978834146   -0.8952468069
 H    2.3213182457   -2.5555344184   -2.3099738118
 H    1.7395598443   -2.6251042003    1.3605604814
 H    0.2880122221   -0.5319031026    2.1631703810