16

 C   -0.0329331391    1.5211541126    0.0369225319
 C    0.0605545718    0.0089168922    0.0170067087
 O    1.1105819456   -0.5890675520    0.0210318858
 N   -1.1579011971   -0.6881764074   -0.0063849879
 C   -2.4402724239   -0.1604650502   -0.0128321395
 C   -3.3309395041   -1.1944834487   -0.0361220896
 C   -2.5654527006   -2.4096493330   -0.0451308024
 O   -3.0426763925   -3.6825559823   -0.0677177404
 C   -1.2402588587   -2.0817344056   -0.0268469196
 H    0.9817231389    1.9168660732    0.0491063502
 H   -0.5585474527    1.8977266015   -0.8456051584
 H   -0.5695522854    1.8727479911    0.9232306188
 H   -2.6079063906    0.9022049144    0.0003862981
 H   -4.4078352913   -1.1082569828   -0.0460456190
 H   -4.0035318994   -3.6532984134   -0.0780214662
 H   -0.3472315507   -2.6788568096   -0.0258645805