21

 C   -0.2864146529    1.4954190862    0.2975423099
 C    0.0590690092    0.0055245748    0.2707833438
 C    0.7229942284   -0.4480485464   -1.0280216060
 C    1.1154205770   -1.9312539379   -1.0193860416
 O    0.0890888239   -2.8068120072   -0.6206076722
 C   -0.7982196098   -3.2050959118   -1.6529935298
 O   -0.1867200680   -0.1993963526   -2.1241515337
 C    0.2359039489    0.5318534958   -3.1705048933
 O   -0.4409880310    0.7395667034   -4.1323837246
 H    0.6065337561    2.1174639582    0.1652962060
 H   -0.9954365743    1.7504009733   -0.4948434842
 H   -0.7411931152    1.7697199007    1.2535864910
 H    0.7445643296   -0.2381001822    1.0915523469
 H   -0.8361889409   -0.6031733491    0.4278457119
 H    1.6408493601    0.1350168953   -1.2022617055
 H    1.5075583781   -2.2063686543   -2.0115495083
 H    1.9272763339   -2.0540571230   -0.2917052507
 H   -1.4108840631   -2.3749640346   -2.0205147263
 H   -0.2478518499   -3.6359379164   -2.5029416701
 H   -1.4462429541   -3.9749514071   -1.2271281357
 H    1.2663772341    0.9164476848   -3.0359509175