18

 C   -0.2251031077    1.5151153241   -0.0608836372
 C    0.0717490549    0.0352214122   -0.0152606291
 O    1.2957110232   -0.3150622031   -0.7696159776
 C    1.9257305235   -0.7777745064    0.3498613433
 O    3.0285972589   -1.2259044198    0.4470709276
 C    0.7118352519   -0.5526551656    1.2753642059
 N    0.8177167493    0.3064454649    2.4296853138
 C    0.1499248003   -1.9126379861    1.7141689612
 O    1.0114148873   -2.5311531380    2.6506993617
 H    0.6338904661    2.1053298640    0.2698613554
 H   -0.4798154553    1.8220387283   -1.0789912098
 H   -1.0685759578    1.7419162547    0.5972456675
 H   -0.7599438430   -0.5542634114   -0.4131268416
 H    1.1214952972   -0.2573192972    3.2190487204
 H    1.5088742043    1.0370920369    2.2993448278
 H   -0.8063245865   -1.7590268120    2.2250281410
 H   -0.0252128832   -2.5477774890    0.8336750628
 H    1.8675158468   -2.6570276865    2.2207108870