14

 N   -0.0021935458   -1.1336548802    0.0220061694
 C   -0.0157450251    0.0206917912    0.0335330352
 C   -0.0028300686    1.4747487376   -0.0102515833
 O   -0.6049900609    2.0765279277    1.1445917874
 C   -0.3854607580    3.4300708983    0.7027425760
 C    1.1450073699    3.3914103238    0.4637062599
 C    1.3943707368    2.1682589835    0.0147160912
 C   -1.0731095996    3.3761978790   -0.6847631169
 C   -0.8368499779    2.1530554944   -1.1408094949
 H   -0.7658293106    4.1459397580    1.4278662306
 H    1.8185999679    4.2265064078    0.5869517726
 H    2.3095310937    1.7083968531   -0.3250386995
 H   -1.5715939609    4.2032335819   -1.1683214516
 H   -1.0824335910    1.6852570639   -2.0817045159