23

 C    0.6560962737    1.5094579119   -0.3654101896
 C    0.0448234830    0.1564725984    0.0272393488
 C    0.2469030053   -0.9126227277   -1.0645911554
 C    1.6832378878   -1.4415384888   -0.8407176461
 C    1.9902161682   -1.2027141372    0.6648806733
 C    0.7317600463   -0.5148825201    1.2492575090
 C    0.9719205395    0.4042567582    2.4257367062
 C    2.0529443708    0.2172767950    3.4023619544
 O    2.1331818113    1.2432690618    2.4100001584
 H    1.7259026383    1.4282035999   -0.5804758721
 H    0.1632547259    1.9003196438   -1.2618683553
 H    0.5447897885    2.2508910712    0.4304896746
 H   -1.0220056602    0.3078461589    0.2311060572
 H   -0.4766240307   -1.7234927405   -0.9187439106
 H    0.0910315958   -0.5211998978   -2.0745880715
 H    1.7721086656   -2.4955175309   -1.1175522999
 H    2.3965752313   -0.8964705871   -1.4657958686
 H    2.2140274779   -2.1351913639    1.1903130463
 H    2.8568315937   -0.5476714145    0.7871509121
 H    0.0428634044   -1.2935047105    1.6075877365
 H    0.0771122120    0.9200903764    2.7819475246
 H    1.9253196227    0.5676304286    4.4257840997
 H    2.7565370189   -0.6041367252    3.2787487682