17

 C   -0.0386240009    1.4939405352    0.0118181751
 C    0.0287165825   -0.0099265902    0.0255258529
 C    0.3514435003   -0.7701460529    1.2544629519
 N    1.3536880960   -0.6653854987    0.1497513210
 C    1.2329353205   -1.7832208492   -0.7271703561
 N    0.1840506091   -1.9225510132   -1.4323751788
 C   -0.7154252234   -0.7906323841   -1.0846096730
 C   -2.0521346198   -1.2419287299   -0.7141778386
 C   -3.1547641099   -1.5869866523   -0.3845575902
 H    0.6264648312    1.9223684551    0.7657735744
 H    0.2546866298    1.8888085894   -0.9667482805
 H   -1.0597376435    1.8297098515    0.2219986068
 H    0.6266201277   -0.2348234190    2.1579834707
 H   -0.1190556325   -1.7372523848    1.4076131706
 H    2.0689695595   -2.4753287055   -0.7798797734
 H   -0.7991908851   -0.1482823503   -1.9727694033
 H   -4.1301495715   -1.9001616410   -0.1045026394