21

 C    0.0114291175    1.5474415860   -0.0101848956
 C   -0.0279129065    0.0147288103    0.0471797842
 C    0.7641313147   -0.5382252950    1.2392309835
 N   -1.4016413543   -0.4835837043    0.0417071578
 C   -2.3523560367   -0.2569746039    0.9976793766
 C   -3.5151241290   -0.8968217824    0.6247527836
 C   -3.2619341533   -1.5475073053   -0.6153551963
 N   -4.2119490481   -2.2544025821   -1.3837844443
 C   -1.9508393926   -1.2777412580   -0.9496404614
 H    1.0448347108    1.8993419024   -0.0895558956
 H   -0.5496614523    1.9167518035   -0.8726186888
 H   -0.4246494615    1.9861075371    0.8928093810
 H    0.4222846188   -0.3735482642   -0.8724673285
 H    0.3545792841   -0.1739523318    2.1866345237
 H    0.7315894944   -1.6309127611    1.2524618770
 H    1.8102073818   -0.2214135557    1.1814524478
 H   -2.1363335813    0.3383031202    1.8702536369
 H   -4.4461792863   -0.8943698759    1.1718218702
 H   -4.8519523965   -2.7779501893   -0.7990600038
 H   -3.7755644600   -2.8993102935   -2.0309925557
 H   -1.3649245936   -1.5739097570   -1.8054091524