15

 O   -0.0269355611    0.0507309344    0.3990919572
 C   -0.0788920067    1.2126029083    0.1097552777
 C   -1.1926151979    2.2379539307   -0.1899505557
 C   -0.0581765518    3.2957064172   -0.0532447817
 C    0.1531127417    4.0106389723    1.2564982742
 C    1.2193401620    3.5264333210    1.8959135755
 C    1.8795870495    2.3938788687    1.1281042193
 N    0.9333746913    2.1832733529    0.0260942983
 H   -1.6570778367    2.1579512525   -1.1748981915
 H   -1.9659385129    2.2674346913    0.5798165121
 H    0.0660893663    3.9539254865   -0.9206947394
 H   -0.4618554964    4.8389349706    1.5863877270
 H    1.6128180671    3.8919147839    2.8371579314
 H    2.8795442111    2.6696764190    0.7679652750
 H    1.9798098045    1.4686380905    1.7058905706