17

 O   -0.2724921213    0.5856965611    1.1777434652
 C   -0.1470040885    1.3329424350    0.2400246859
 C   -1.2941602667    1.7526820881   -0.6791279159
 C   -1.3523374471    3.2688538104   -0.7642347370
 N   -0.9458996121    3.9586132858    0.4724025485
 C   -0.0693715461    4.0257674141   -0.7056994259
 C    1.2009653513    3.2275271907   -0.6385309691
 C    1.8274446478    2.8177083220    0.6635537725
 N    1.0908668983    1.8640552266   -0.1489932820
 H   -1.1409612079    1.3319871345   -1.6807434429
 H   -2.2177578502    1.3387509935   -0.2682523101
 H   -2.1722708157    3.6904585869   -1.3408974732
 H   -1.4481604415    4.8321584145    0.5968048563
 H   -0.0026493929    4.9657395190   -1.2472742376
 H    1.8464950868    3.3425005666   -1.5079269224
 H    2.9010847820    2.6643279608    0.7219065063
 H    1.3397066139    3.1574081204    1.5721497816