13

 O    0.0008693423    1.3941296059   -0.0121413249
 C   -0.0574590407    0.0263128555    0.0150420825
 C   -0.4934687849   -0.7500618539    1.1898451940
 O   -1.4955531489    0.0141604888    1.8971770894
 C   -2.3944629259   -0.1227866680    0.8214237993
 N   -3.5955016566    0.1889109729    0.7200141063
 C   -1.3967845787   -0.7997943642   -0.0622608873
 C   -1.6247776690   -1.8086928905   -1.0343666828
 N   -1.7796277388   -2.6315920464   -1.8329586517
 H   -0.4517187398    1.7310924354    0.7728561562
 H    0.7103357911   -0.4284138152   -0.6036800556
 H    0.0075988436   -1.5423369366    1.7304818095
 H   -3.9601111437    0.6248156161    1.5673760850