20

 C   -0.0251028885    1.5402786948   -0.1880119605
 C   -0.0454664329    0.0350897962    0.0222224031
 O    0.0345427039   -0.5126916955   -1.2786343419
 C   -0.4590272296   -1.8374341518   -1.3783178543
 C    0.0097932072   -2.6546503139   -0.1810111118
 N   -0.0779791385   -1.8856865203    1.0688100730
 C    0.8263051292   -0.6586482607    1.1237224619
 C   -0.1440129001   -0.1275555512    2.2030052681
 C   -1.0143827709   -0.6722528990    1.0494030768
 H    0.0202709744    2.1087206062    0.7410137774
 H    0.8463643545    1.8022580573   -0.7958085905
 H   -0.9161490861    1.8482118418   -0.7435149702
 H   -1.5601055857   -1.8205197027   -1.4102719562
 H   -0.1042826903   -2.2423877361   -2.3307481592
 H   -0.5945357483   -3.5641153565   -0.0806546284
 H    1.0539443858   -2.9677274472   -0.3015064964
 H    1.9128022754   -0.7640301904    1.1701363882
 H   -0.1787932131   -0.7389622900    3.1040892797
 H   -0.1637918349    0.9395556075    2.4125319965
 H   -2.1008315113   -0.7789137686    1.0229357749