25

 C   -0.1904890212    1.6373019228   -0.7430713200
 C   -0.0440893599    0.1972196587   -0.2437783775
 C    0.8071869756   -0.6784736267   -1.1701841289
 C    0.9514622177   -2.1226237450   -0.6875905320
 C   -0.3101040632   -3.0185564728   -0.8941553444
 C    0.3524295844   -3.6195257008   -2.1477878214
 C    1.7230670593   -3.0557799136   -1.6700694586
 O    0.1966024724   -5.0095310281   -2.2612117388
 C    0.8190749969   -5.5478753218   -3.4047415014
 H    0.7863235671    2.1244966024   -0.8395573862
 H   -0.6718580842    1.6684529851   -1.7270339202
 H   -0.7959296740    2.2391275253   -0.0580329020
 H    0.4049446152    0.1997550293    0.7584340625
 H   -1.0385901170   -0.2522002422   -0.1271362817
 H    0.3749997588   -0.6658874838   -2.1812661977
 H    1.8080775571   -0.2343711897   -1.2661652548
 H    1.3414491313   -2.1200885172    0.3350181283
 H   -0.4034345133   -3.7856476727   -0.1212715619
 H   -1.2760653282   -2.5231862162   -1.0216048698
 H    0.0183261874   -3.1267930508   -3.0745054568
 H    2.3698339315   -2.5756684528   -2.4099319083
 H    2.2890479354   -3.8297645038   -1.1438601865
 H    0.4175676076   -5.1078165579   -4.3317955639
 H    1.9084593777   -5.3908385374   -3.3955591223
 H    0.6203229357   -6.6224698804   -3.4101922557