17

 C   -0.0296886519   -1.1860672331   -0.0954584686
 C   -0.0143079695    0.0164234833   -0.0241148837
 C    0.0244436847    1.4294194383    0.0555416875
 C   -1.0343156914    2.3126814275    0.7251796462
 C   -0.3671418305    3.4022738207    1.5409669075
 C    0.8543527885    3.6283751457    0.6701907690
 C    0.5260187887    3.3718804871   -0.7901384796
 C    1.2886096159    2.3371897867    0.0078613923
 C   -0.7431061278    2.4893510529   -0.7451003697
 H   -0.0470133673   -2.2453076251   -0.1589745509
 H   -1.9619173721    1.8445784112    1.0301213813
 H   -0.9941781422    4.2975024024    1.6218225779
 H   -0.1063723011    3.0657793945    2.5502047452
 H    1.6056145200    4.3683076007    0.9193034674
 H    0.8549415805    3.9855427879   -1.6164161918
 H    2.3078645548    1.9920664631   -0.0896228223
 H   -1.4567782594    2.3293263961   -1.5407379376