19

 C   -0.1103607504    1.6627010739   -0.1799537886
 C   -0.0328999344    0.1623432476    0.0342194330
 O   -1.3327896529   -0.3552785190    0.2131110104
 C   -1.4384194373   -0.9707949341    1.5172713249
 C   -0.1079141333   -0.7202750279    2.3068451225
 C    0.7886283506   -0.5516554634    1.1187825846
 C    2.1143645172   -0.1358785722    0.4436112274
 C    1.1151099120   -0.6774249216   -0.6460660601
 O    0.8089366507   -1.7823313828    0.2589465529
 H    0.8472958430    2.1076565459   -0.4586464385
 H   -0.8204201637    1.8585201591   -0.9895423842
 H   -0.4886251382    2.1707108552    0.7136346813
 H   -2.3080443260   -0.5451867714    2.0289843421
 H   -1.5925267475   -2.0451710134    1.3841396935
 H   -0.1493001790    0.1964404694    2.9027386100
 H    0.1431993951   -1.5604162945    2.9571003259
 H    2.4045838960    0.9157518012    0.4528545066
 H    2.9513740290   -0.8087542633    0.6260729633
 H    1.3192246889   -0.9148418486   -1.6916220669