21

 C    0.1055016511    1.5357330074    0.0765990052
 C   -0.0241127607    0.0002597086    0.0848180878
 C    0.7285779483   -0.6143656574    1.2823959907
 O   -1.4031250183   -0.4086382456    0.0704485195
 C   -2.2542294581    0.0448509505    1.1135670002
 C   -3.5355470431   -0.7668499191    0.9733331849
 O   -3.2826202393   -2.1511409493    1.0933775897
 C    0.5348334655   -0.5405757987   -1.1623322756
 C    1.0255281704   -0.9706086266   -2.1706332800
 H    1.1525156621    1.8210048931   -0.0514177864
 H   -0.4733744830    1.9577979318   -0.7483500386
 H   -0.2506238443    1.9621227947    1.0186504026
 H    0.3815913832   -0.1889134442    2.2278631461
 H    0.5782791351   -1.6961774383    1.3033525400
 H    1.7990244686   -0.4129644465    1.1933683722
 H   -1.8123488668   -0.1414235080    2.1014512848
 H   -2.4701622497    1.1192100565    1.0220278279
 H   -4.2345721947   -0.4914555154    1.7700440501
 H   -4.0076925061   -0.5240121106    0.0081011236
 H   -2.5562949861   -2.3313692803    0.4842337153
 H    1.4494197559   -1.3539599127   -3.0658903701