20

 C   -0.5018847001   -0.7708021418    1.2024437538
 N   -0.0077636994   -0.0833921100    0.0250120706
 C    0.6865119488   -0.6739777996   -0.9829358378
 C    1.3602816274   -0.0259726399   -1.9748303446
 C    1.5152278227    1.4516290833   -2.1582812288
 C    1.9466441568   -0.9939735623   -2.8898627521
 O    2.6152794284   -0.7589706525   -3.8796551926
 C    1.5828650639   -2.4037976426   -2.3911228572
 C    0.7429076980   -2.1802426374   -1.1209111006
 H   -1.0012605183   -1.7006904746    0.9199993762
 H    0.2892312901   -1.0128308494    1.9269723376
 H   -1.2385948530   -0.1369586079    1.7018211969
 H    0.0926933539    0.9164646613    0.1037663509
 H    1.9744629830    1.9379729327   -1.2867404746
 H    2.1610230335    1.6306432716   -3.0221949599
 H    0.5570414364    1.9544395774   -2.3445373689
 H    1.0353851622   -2.9390174606   -3.1722008510
 H    2.4973338996   -2.9723615360   -2.1995666191
 H    1.1925937251   -2.6394195070   -0.2324020865
 H   -0.2665975092   -2.6005930948   -1.2062987725