15

 C    0.0544613808    1.4118662322   -0.0238524111
 N   -0.0860869068   -0.0256424065    0.0049693779
 C   -1.2673939104   -0.6657408924    0.0037941579
 N   -2.3774074958    0.0268756951   -0.0257420575
 O   -3.5654966630   -0.7209894319   -0.0249486804
 C   -3.5437134674   -2.0452917096    0.0043695572
 C   -2.4279228043   -2.8121425938    0.0358109970
 C   -1.1527555997   -2.1617804352    0.0381756646
 O   -0.0451718283   -2.6855306812    0.0642762898
 H    1.1160892570    1.6631143615   -0.0164006364
 H   -0.4069774618    1.8362025547   -0.9230608408
 H   -0.4283402491    1.8739585702    0.8450491725
 H    0.7097734603   -0.6465159574    0.0297142000
 H   -4.5549330854   -2.4400792095   -0.0001900572
 H   -2.4957451661   -3.8914978063    0.0586904165