18

 C    0.0514986367    1.5378556078   -0.1094665834
 O    1.4753465958    1.4890867384    0.2101369009
 C    1.3868355205    0.1570839749    0.5553544183
 N    2.2518466393   -0.4896995659    1.1810376158
 C    1.9820169656   -1.8500450497    1.6250277500
 C    0.6699702804   -2.5414065693    1.1836935050
 C   -0.6084686821   -1.8286510179    1.5779722653
 C   -0.9658671148   -0.6589405460    1.0478114139
 C   -0.0501951715    0.0079334254    0.0626592161
 H   -0.4905840347    2.1287836965    0.6352095551
 H   -0.1188400247    1.9375102477   -1.1113308158
 H    2.8220829170   -2.4785257851    1.3032895053
 H    2.0260240713   -1.8362119279    2.7227368796
 H    0.6929848076   -2.6703987987    0.0922046556
 H    0.6776643067   -3.5513115247    1.6065583291
 H   -1.2594433098   -2.3150274242    2.2994458214
 H   -1.8996675771   -0.1719631622    1.3141952818
 H   -0.0897712264   -0.4872583091   -0.9160298239