16

 O    0.0350897376   -0.0162736043    0.1817987413
 C   -0.0195522766    1.1638142850   -0.0335440334
 O   -1.2289067336    1.7468600787   -0.2392091736
 C   -1.3357454038    3.1055509550   -0.7022727197
 C   -0.2131271657    3.9806005802   -0.1834211120
 C    0.1857671684    3.7389707514    1.2975751773
 N    1.4995523987    3.1189803495    0.9008794887
 C    1.1751552464    3.4318666139   -0.5337432180
 C    1.2108681528    2.0258979486   -0.0805724554
 H   -1.3559290918    3.0998713805   -1.8000967882
 H   -2.3101977239    3.4497122653   -0.3443312076
 H   -0.3826047326    5.0250353221   -0.4483350604
 H    0.3912387212    4.6612153112    1.8432482881
 H   -0.4597601298    3.0954735200    1.9014524477
 H    1.8997690127    3.8565428333   -1.2198563300
 H    2.1013771702    1.4393195995   -0.2720188949