17

 O   -0.1119594772    0.1311066202    0.0642348330
 C    0.0562780782    1.2963186736   -0.1775684364
 C    1.4198635281    1.9074950325   -0.4501434026
 O    1.2507044755    3.2990222588   -0.6054339444
 C    2.4156286378    3.9637437447   -0.9674208954
 C    2.9436465994    3.9772847986   -2.3864143482
 C    1.7652938576    4.1163262271   -3.3489288638
 O    1.2437798551    5.2649395492   -2.6323251327
 C    2.3479039619    5.2341125331   -1.7392837428
 H   -0.7784817620    2.0290984993   -0.2277365082
 H    2.0947204366    1.6635476384    0.3860549113
 H    1.8438359080    1.4440103201   -1.3553264323
 H    3.2075819405    3.9421464980   -0.2152339790
 H    3.9586883705    3.7182202261   -2.6566946589
 H    2.0636742201    4.4032218404   -4.3623232702
 H    1.0457759804    3.2914714288   -3.3890976256
 H    2.7687641595    6.1820890413   -1.4220159137