16

 C    0.2037256492    1.4918584894   -0.3309643401
 C    0.0814423850    0.0505541947    0.0522380169
 N   -0.6787142145   -0.7779702917   -0.6630947328
 N   -0.5514672822   -1.9719533582   -0.0496627072
 C    0.2516220336   -1.9332212023    1.0432004862
 C    0.5228048243   -3.1687953770    1.8448579433
 O   -0.6158053098   -4.0199434186    1.9222870984
 C    0.6849797921   -0.6267718348    1.1417001545
 H    1.2408071652    1.7591540541   -0.5621597383
 H   -0.4076845422    1.6940262748   -1.2128702618
 H   -0.1279860135    2.1521374021    0.4779467386
 H   -1.0686665220   -2.7690674815   -0.3807214112
 H    1.2995842799   -3.7795645261    1.3697843234
 H    0.8993989835   -2.8859961542    2.8376803117
 H   -1.3107013999   -3.5335231287    2.3793445211
 H    1.3447559314   -0.2189421321    1.8916317373