17

 C   -0.0557901881    1.5285883476    0.0392517497
 C    0.0900528127    0.0414583625    0.0140072017
 N   -0.8437307186   -0.8838460636    0.7059369993
 C    0.6077075942   -0.9230603447    1.0025919560
 C    1.3177431098   -1.7539246506   -0.1150570671
 C    0.3548310301   -2.1927636797   -1.2039335590
 C    0.7599295388   -0.7555068643   -1.1521360683
 C    2.6466564495   -2.2396836984    0.0040736992
 N    3.7331128242   -2.6248190454    0.1229599711
 H    0.8775022165    2.0183190912   -0.2586122118
 H   -0.8427277406    1.8616288497   -0.6474443762
 H   -0.3122618205    1.8785831256    1.0446576380
 H   -1.2889837339   -0.3605533621    1.4592888797
 H    0.9995255520   -0.7814027248    2.0011668522
 H    0.8197487004   -2.7708867449   -1.9951679286
 H   -0.6448428161   -2.4918177839   -0.9182312744
 H    1.3311994395   -0.2757120441   -1.9357816015