21

 C    0.0692509088    1.5662990291    0.0116788471
 C    0.0740243985    0.0435237583    0.1983878955
 C   -1.3201981480   -0.5547508935    0.0661888015
 C   -2.0214178308   -0.7436572738   -1.3230043980
 C   -1.0975780876   -1.9687704944   -1.5768615062
 C   -1.5556703127   -2.0926664317   -0.0953877604
 C   -2.9987115679   -1.7497264210   -0.6147603996
 C   -4.0156662931   -1.2694542429    0.2984007693
 C   -4.8903698655   -0.8988840935    1.0370451982
 H    1.0693852600    1.9871655104    0.1537954808
 H   -0.2688349004    1.8411541439   -0.9932436243
 H   -0.6021659201    2.0509491259    0.7289630067
 H    0.7808807431   -0.4049037740   -0.5073032699
 H    0.4556003057   -0.1968416316    1.1996669284
 H   -1.9781361310   -0.0988725580    0.8131531043
 H   -2.3138840800    0.0289396201   -2.0358292477
 H   -1.4759099562   -2.7274925206   -2.2677430141
 H   -0.0422436454   -1.7717400019   -1.7603982547
 H   -1.3055819605   -2.8815244698    0.6161215272
 H   -3.4155918994   -2.5055834414   -1.2880029615
 H   -5.6571590475   -0.5669286895    1.6922405772