17

 N   -0.0343012278   -1.1376949888   -0.0782478547
 C   -0.0088536180    0.0170520932   -0.0343930538
 C   -0.0217811254    1.4746458753    0.0485741349
 C   -0.1643516802    2.0643609838    1.4916179552
 C    1.3809724556    1.9515569976    1.5115065169
 N    1.3788640976    2.0544364089    0.0024079601
 C    1.2616220898    3.4797030186   -0.3784423959
 C    0.1888408034    4.2134850994    0.4054071674
 C   -0.5091428462    3.5307967973    1.3134738152
 H   -0.7058779293    1.8730886281   -0.7048934677
 H   -0.7716055153    1.5391204484    2.2293312464
 H    1.9372417519    2.7350113716    2.0295981434
 H    1.7512941117    0.9659557447    1.8040288056
 H    2.2431265245    3.9467221863   -0.2262717749
 H    1.0637022982    3.5329203158   -1.4568750066
 H    0.0221404046    5.2682080627    0.2077977873
 H   -1.2935010853    3.9779311570    1.9141197712