19

 C   -0.3142415629    1.5127871721    0.0070702563
 C    0.1239813224    0.0343345205    0.0413358455
 C    0.8138422933   -0.3841246877   -1.2232078318
 C    1.9772584550   -1.0255509947   -1.2499752313
 C    2.6764910097   -1.4542546930   -2.5096066924
 C    2.6795916452   -1.3851650677    0.0238658188
 O    2.0991841082   -0.8998250574    1.2361662508
 C    0.9272378388   -0.2303673094    1.3131070536
 O    0.5476447975    0.1345408197    2.3937129751
 H    0.5500079934    2.1719515624   -0.1203888680
 H   -0.9978321672    1.6836050634   -0.8299766345
 H   -0.8175115192    1.7750592865    0.9386601781
 H   -0.7912227532   -0.5653033316    0.1636986445
 H    0.3092701690   -0.1340635177   -2.1543906552
 H    3.6656606436   -0.9870683877   -2.5960725364
 H    2.8393648327   -2.5394555285   -2.5270655344
 H    2.0946215152   -1.1851088403   -3.3941408725
 H    2.7517243494   -2.4783394821    0.1193111561
 H    3.7115734792   -1.0085436368    0.0069892179