17

 O   -0.0838557980    0.0166432180   -0.2730586567
 C   -0.0875670602    1.1940408635   -0.1152120798
 C   -1.2334059859    2.2578147333    0.1925527442
 C   -0.1576593916    2.9223135381    1.0984860655
 C    0.8643476420    4.1337854762    1.0700351313
 C    2.0022133520    3.0117729357    1.1303224183
 C    0.9493985918    2.3025448402    0.2400697264
 O    0.9411497357    3.1357120392   -0.9510940193
 C    0.8908009971    4.4735841790   -0.4090776377
 H   -1.5309476129    2.8063023277   -0.6992622346
 H   -2.1107652565    1.8497125519    0.6967276986
 H   -0.1809139344    2.4833029185    2.0970934493
 H    0.8163589060    4.9436890720    1.7969726960
 H    2.9728359034    3.2513298641    0.6912213140
 H    2.1077336468    2.5778215427    2.1242851275
 H   -0.0079227899    4.9932332055   -0.7604245999
 H    1.7768556947    5.0379735745   -0.7197410330