16

 C   -0.0229892169    1.5363463851   -0.1137068136
 C   -0.0041978565    0.0342424290    0.0267510700
 N    1.3155962830   -0.6276374259   -0.1002764585
 C    0.6190654266   -0.6528443239    1.1765336276
 C    1.1732276041   -0.1230929756    2.4949287579
 O    0.6123388577   -1.2574493013    3.1985181112
 C    0.1285455638   -1.8558063094    1.9782689269
 H    0.8634219888    1.9765687140    0.3509267328
 H   -0.0289374601    1.8290823025   -1.1688435626
 H   -0.9131745549    1.9629078830    0.3613029929
 H   -0.8541983314   -0.4807651216   -0.4218241764
 H    1.2293047640   -1.5250240564   -0.5725269803
 H    2.2683944029   -0.0961920886    2.5533595466
 H    0.7627610207    0.8275515032    2.8571740868
 H   -0.9557340068   -2.0260660118    1.9999955669
 H    0.6373644750   -2.8046257821    1.7539975719