17

 O   -0.6798561889    0.7364399552    0.6931806534
 C    0.1064946922    0.9130588697   -0.2022467567
 C    1.3578601420    1.7521834651   -0.1056901594
 C    1.3795127858    2.8823998170   -1.1412650098
 C    2.6052163398    3.7940181039   -1.2373936418
 C    3.5527633168    3.0701670816   -2.2117261121
 O    2.9565436112    1.8213818934   -2.5670470624
 C    1.6953475240    2.5446872662   -2.6333798259
 C    2.4546230152    3.9170698550   -2.7518370258
 H   -0.0605560706    0.4480677111   -1.2026802470
 H    1.4318087893    2.1515383749    0.9103000554
 H    2.2231917967    1.1055492142   -0.2976885311
 H    0.4723312811    3.4932061961   -1.0915684726
 H    2.9463486412    4.5411008954   -0.5322255005
 H    4.6300505193    3.1640114538   -2.2227685925
 H    0.9754881299    2.1004385918   -3.3171346786
 H    2.4074754150    4.7597368857   -3.4260957924