22

 C   -0.1733964666    1.4204312113   -0.0792932441
 C    0.1307112942   -0.0738193441    0.1028153925
 C    0.8804881305   -0.6540774179   -1.1019044636
 C    0.8788430275   -0.3671629303    1.4336723971
 C    2.1531383206    0.4597281278    1.5490423761
 O    3.1858513899    0.1958506060    0.9874620560
 N    0.0270293050   -0.0464890810    2.5754456496
 C   -0.8981513300   -1.0854040492    3.0122070859
 C    0.3073388800   -0.7590827495    3.8213329466
 H    0.7418520361    1.9939860525   -0.2663157947
 H   -0.8335250748    1.5729494962   -0.9387164358
 H   -0.6604160508    1.8325809861    0.8079640526
 H   -0.8275980795   -0.6025422429    0.1957577149
 H    1.8752361800   -0.2109967935   -1.2033740237
 H    1.0095257046   -1.7376693343   -1.0096502027
 H    0.3241060857   -0.4591198495   -2.0243714115
 H    1.1824231532   -1.4295087547    1.4239417219
 H    2.0546797096    1.3567300374    2.1998746017
 H   -1.8810789857   -0.7443692538    3.3237199248
 H   -0.8938769605   -2.0318556138    2.4736543847
 H    1.1166061278   -1.4876313082    3.8223728241
 H    0.2210828934   -0.1721560346    4.7308195072