21

 C    0.0909603737    1.2578237993   -0.3907284096
 C    1.4045090121    0.6190840845   -0.0508047056
 C    2.3432148421    1.1034855523    1.0434762875
 C    1.8972460591    0.9213453450    2.5113858525
 C    0.7038308939    1.7228419033    2.9385692744
 C   -0.5606058599    1.2785035301    2.9255149172
 C   -0.9838525600   -0.0318966583    2.4416885083
 C   -0.6329079779   -0.6514027091    1.3017263151
 C    0.0975842298   -0.1827543506    0.0953748105
 H   -0.2974087738    1.9981278126    0.2976598595
 H   -0.1564984630    1.4395885516   -1.4315852184
 H    1.9621450160    0.2831110092   -0.9218843695
 H    3.2891726796    0.5601754321    0.9305018571
 H    2.5813729384    2.1600954362    0.8652746988
 H    1.6962585740   -0.1421614175    2.6767927192
 H    2.7503282284    1.1928952529    3.1446721086
 H    0.8979880448    2.7243587138    3.3183171506
 H   -1.3378638097    1.9065631145    3.3595352541
 H   -1.6785467579   -0.5654965731    3.0899137183
 H   -1.0340717090   -1.6555680549    1.1731987554
 H   -0.0016904107   -0.9072664838   -0.7077738240