19

 C   -0.0979439876    1.3082842054   -0.0400562617
 O    0.2220132950   -0.0705411616    0.0238407865
 C    0.7363768028   -0.6180147407   -1.1651998830
 C    1.3004761620   -1.9958021520   -0.7614887098
 O    2.2672176046   -1.8541256750    0.2493929463
 C   -0.3186074141   -0.7587700031   -2.2614506663
 O   -1.5069675309   -0.6964499851   -2.0318083904
 C    0.1514774426   -0.9838647046   -3.6944230605
 O   -0.9296698604   -1.1598834733   -4.5576713328
 H    0.7758553170    1.9063427852   -0.3386472942
 H   -0.9225026469    1.4991833013   -0.7361404678
 H   -0.4054085955    1.6071354689    0.9641431865
 H    1.5694835268   -0.0036029926   -1.5481126656
 H    0.4586346985   -2.6298822167   -0.4429287221
 H    1.7889998156   -2.4735019703   -1.6152471805
 H    1.8532833259   -1.3098258843    0.9308701220
 H    0.7647456630   -0.1128607648   -3.9852607859
 H    0.8274024804   -1.8538535256   -3.7234915124
 H   -1.7178924386   -1.0407419311   -4.0030959882