21

 C    0.4513194655    1.4278423110   -0.0694733918
 O    0.8107227449    0.0680934582   -0.1335198056
 C    0.0372528653   -0.6581258942   -1.0647614074
 C    0.4407634008   -2.0954898905   -0.9927994317
 C    0.5687114409   -2.9985007896    0.2413946943
 C    1.6620691100   -3.8264164554   -0.5367117832
 C    1.4138694522   -5.3080653466   -0.7798481638
 C    1.4538542964   -2.8708044624   -1.7269067265
 O    0.0651937665   -2.9357915604   -2.0926780401
 H    0.5970486359    1.9352626200   -1.0362019521
 H   -0.6007025903    1.5586151723    0.2299824540
 H    1.0933055851    1.9004106480    0.6776260093
 H   -1.0384047277   -0.5560730721   -0.8349250373
 H    0.1874020055   -0.2891528190   -2.0922792158
 H    0.9709794838   -2.4754105201    1.1104663179
 H   -0.3441600175   -3.5339903421    0.5160568927
 H    2.6461952087   -3.6608951299   -0.0870195154
 H    0.4523844628   -5.4533953830   -1.2802779384
 H    2.1970684713   -5.7437995951   -1.4101918158
 H    1.3971171006   -5.8645194236    0.1632288116
 H    2.1503495793   -2.5741061654   -2.5039914451