18

 C    0.0467039414    1.6205613393   -0.0304694357
 C    0.0172303541    0.0913097275   -0.0365787378
 C   -1.4097373578   -0.4653923742    0.1083049145
 C   -2.0865406466   -0.0478129560    1.4038345960
 O   -3.1891287572    0.4352907282    1.4548260557
 C    0.8710968130   -0.5831740099   -1.1438958782
 O    1.7723599479   -1.1303853734   -0.1311870830
 C    1.0416746159   -0.5600361052    0.8863016637
 N    1.1977916744   -0.5948072379    2.1299883837
 H    1.0648556321    1.9976460440   -0.1628095323
 H   -0.5777136224    2.0202202848   -0.8365040710
 H   -0.3331685711    2.0117101864    0.9176567295
 H   -2.0388788468   -0.1434420065   -0.7278532014
 H   -1.3721254035   -1.5639424416    0.1035210810
 H   -1.4864748719   -0.2323194813    2.3189517828
 H    0.3884284911   -1.3838101789   -1.7097154922
 H    1.4040253040    0.0939813933   -1.8158129002
 H    2.0160244534   -1.1447963685    2.3967576550