21

 O   -0.2036842720    0.0803294962    0.0616436456
 C   -0.0526410534    1.2696336967    0.1847035188
 C    1.2647358856    2.0086814884    0.0687212779
 C    1.6388222258    2.5755268125    1.4874347380
 C    2.5882233298    1.3643107763    1.6873195787
 C    2.4880306915    1.0517055477    0.1699028327
 C    1.2714540157    3.0017057603   -1.0772406168
 C    0.7630351677    2.6383701265   -2.4514604826
 C    0.0431087055    3.6844244553   -1.6369173287
 H   -0.9168628697    1.9247430734    0.4405794957
 H    2.1688671219    3.5281956548    1.4019317076
 H    0.8205545324    2.7030022849    2.2034271986
 H    3.5812523747    1.5832558646    2.0847178424
 H    2.1355223473    0.5810052061    2.3001583387
 H    2.2943269064    0.0171666954   -0.1164789585
 H    3.3417017261    1.4312897694   -0.3974248244
 H    2.1664569886    3.6197045089   -1.0655438584
 H    1.3376770092    2.9552046288   -3.3145012247
 H    0.2797017263    1.6740811295   -2.5710172378
 H   -0.9349988565    3.4368303077   -1.2415266872
 H    0.1412666572    4.7233653668   -1.9316840056