15

 N   -0.0371061446    1.4975624860   -0.0513350054
 C    0.0297379706    0.0512476889   -0.0524456424
 C    0.1465984341   -0.5281682112    1.3919990664
 N   -1.3182094928   -0.7261820479    1.4165356709
 C   -1.4030717838   -0.6091542344   -0.0496484489
 C   -2.5032973216    0.2023761126   -0.5680978113
 N   -3.3599615721    0.8357348684   -1.0151170083
 C    0.9570875220   -0.5127107380   -1.0412180874
 N    1.7020374403   -0.9229627844   -1.8250231745
 H    0.8808616672    1.8942498814    0.1257850903
 H   -0.3549302374    1.8477557937   -0.9508482160
 H    0.7437687352   -1.4467097098    1.4247088923
 H    0.5140832238    0.1836558637    2.1358353931
 H   -1.6441745935   -1.6083459935    1.7926796986
 H   -1.3867023874   -1.5626713455   -0.5931691274