16

 C    0.1267232571    1.5167677331   -0.1640789979
 C    0.0484368855    0.0273219736   -0.0355194987
 C   -0.0224761906   -0.9154813966   -1.0203269341
 C   -0.0089644776   -0.8266431984   -2.5121702613
 C    1.3858538110   -0.4508041717   -3.0034730444
 O    1.6416685442    0.5749405574   -3.5758641723
 O   -0.0782759202   -2.1508680368   -0.4820573789
 N   -0.0554211720   -2.0475101477    0.9037447828
 C    0.0176301986   -0.7635169827    1.1494894818
 H    0.9505024610    1.9231886895    0.4316389553
 H    0.2925124517    1.8164437195   -1.2017591179
 H   -0.7935574055    1.9999000800    0.1831977334
 H   -0.2811486045   -1.8049689564   -2.9233344303
 H   -0.7158159650   -0.0760138750   -2.8744251107
 H    2.1724460936   -1.1997800780   -2.7658892203
 H    0.0491067928   -0.4292175297    2.1778534235