18

 C   -0.0346152839    1.5140178024    0.0759629471
 N   -0.0094847176    0.0690575323    0.1468224163
 C   -1.2544690230   -0.6597759220    0.4699019633
 C   -0.4319042886   -1.5901880487    1.3640699264
 C   -0.8479128997   -2.4825647563    2.4592894562
 N   -0.2401153421   -3.0166349137    1.2225275445
 C    0.7168982049   -0.5638341138    1.2679456221
 C    2.0660220705   -1.0346688189    0.9581693721
 N    3.1406830674   -1.3903900918    0.7277174889
 H    0.9786975381    1.8907094441   -0.0930368999
 H   -0.6541406993    1.8274264006   -0.7698801030
 H   -0.4344472567    1.9884229693    0.9918484369
 H   -1.9861834837   -0.0600505250    1.0353737626
 H   -1.7538876561   -1.1060714839   -0.3980203029
 H   -0.2329580384   -2.5883233226    3.3490012093
 H   -1.9148688761   -2.6138611011    2.6248565141
 H   -0.9440971235   -3.4189426720    0.6084937097
 H    0.7649173078    0.0677717513    2.1710657064