21

 C    0.9203808348   -0.4260128744   -1.1762406358
 C    0.0534380379   -0.0240053085    0.0192226468
 C   -0.0221122908    1.4972357594    0.1690599552
 N   -1.2899417021   -0.5671829718   -0.1453932065
 C   -2.2499252701   -0.4298873703    0.9666476857
 C   -2.8124435420   -1.8327836119    0.5972892992
 C   -1.4646842395   -2.0322565527   -0.1541932781
 C   -3.1494157658   -2.7482123703    1.6699209211
 N   -3.4103141526   -3.4769330405    2.5289278993
 H    1.9366077513   -0.0386700427   -1.0585028737
 H    0.9903113790   -1.5137388015   -1.2760787544
 H    0.5001675578   -0.0250539039   -2.1041966769
 H    0.5158117576   -0.4402773689    0.9382566583
 H   -0.6275995072    1.7877950208    1.0333318848
 H    0.9780750668    1.9173141792    0.3096767637
 H   -0.4662634706    1.9470082093   -0.7247433062
 H   -1.7777155890   -0.4383605956    1.9618546929
 H   -2.9380788382    0.4166884174    0.8986392589
 H   -3.6486293954   -1.7546583659   -0.1002168413
 H   -1.5089155940   -2.4996750380   -1.1413278395
 H   -0.7339052981   -2.5683679093    0.4719356962