21

 C   -0.0442947724    1.4880861315   -0.2512124871
 C    0.0142357704    0.0304710354    0.1854803022
 O    0.4414963392    0.0180447973    1.5403426312
 C   -1.3523847286   -0.6673207963    0.0079690481
 O   -1.7331958235   -0.4870494828   -1.3419389193
 C   -1.3201752343   -2.1701794426    0.3687121105
 O   -0.8401359968   -2.4111813983    1.6953903563
 C   -2.6867875528   -2.8574585690    0.2422682062
 O   -3.1049061142   -2.8416264114   -1.1220734783
 H    0.9395129340    1.9479151280   -0.1251387921
 H   -0.3513542244    1.5661827635   -1.2948118991
 H   -0.7586025211    2.0384061704    0.3706472386
 H    0.7351678638   -0.5057970229   -0.4548356028
 H    0.5019856384   -0.9089705144    1.8023979790
 H   -2.0672116229   -0.1713196933    0.6964480398
 H   -2.4009912317   -1.1534938695   -1.5580405218
 H   -0.6120550455   -2.6734605852   -0.2992968989
 H   -1.3606761389   -1.8646301594    2.2973520656
 H   -2.5881743002   -3.8861014061    0.6130301969
 H   -3.4132429091   -2.3319813422    0.8832614197
 H   -4.0165850395   -3.1432467329   -1.1732374648