18

 C    0.3156906799    1.5469896831    0.1355905614
 C   -0.2107522571    0.1452924952   -0.1556035625
 N    0.5551084262   -0.4710284965   -1.2402031956
 C    1.7443567687   -1.2275089419   -0.8762342062
 C    0.5116505551   -1.9107151024   -1.3515409217
 C   -0.3683406645   -2.9561653094   -0.6640211774
 O   -0.5050620644   -3.6458774350   -1.9461291298
 C    0.2569734551   -2.7046633751   -2.6151989699
 O    0.5374325781   -2.6775030053   -3.7672390129
 H    1.3562415619    1.5127996831    0.4737484931
 H    0.2713734296    2.1669920770   -0.7636094074
 H   -0.2799900454    2.0234488985    0.9196682753
 H   -0.1841178931   -0.4657457290    0.7642016535
 H   -1.2563992939    0.1960217019   -0.4794963865
 H    2.5981288254   -1.1281280353   -1.5401607195
 H    1.9812944361   -1.3433995476    0.1819120422
 H    0.1118489541   -3.6006717250    0.0751369544
 H   -1.3397378616   -2.6097788062   -0.3031022905