18

 O   -0.7974598309    0.9978573631    0.5803134611
 C    0.1039756780    1.0629926510   -0.2200472209
 C    1.3077256286    1.9539920414   -0.1261482519
 C    1.1542931588    3.3587361146   -0.8338559960
 C    0.4465647112    3.8260944793    0.4675282401
 C    1.4604686091    2.8517687642    1.1367095259
 C    2.8057347931    3.5487235937    0.8510432611
 C    2.5741840679    3.9303098530   -0.6525282911
 H    0.0927938201    0.4226552720   -1.1336649414
 H    2.1850944227    1.3773498466   -0.4477555569
 H    0.6922095440    3.4522599375   -1.8173310867
 H    0.5179029365    4.8876480078    0.7223701775
 H   -0.5821407513    3.4801491447    0.5531218515
 H    1.2898731465    2.4461679294    2.1328555168
 H    2.9567763720    4.4242325871    1.4886904960
 H    3.6622697467    2.8823860650    0.9880608773
 H    3.3020329899    3.4668719165   -1.3245148687
 H    2.5995321970    5.0104288231   -0.8234894738