17

 O   -0.1496212212    1.3269029706   -0.0556194707
 N   -0.0063290313   -0.0748192622    0.0134228377
 C   -1.1274067531   -0.6562026033    0.0346605090
 C   -1.4305564557   -2.1386192791    0.0213194697
 C   -2.3742185348   -2.2038513850    1.2326813903
 O   -3.0821609827   -0.9382642654    1.1851891420
 C   -2.5850136116   -0.2384224732    0.0335131423
 C   -3.0794394552   -0.9879433451   -1.2204752614
 N   -2.2900117807   -2.2695395792   -1.1846083547
 H    0.7666130874    1.6239967996   -0.0357700228
 H   -0.5976906211   -2.8378400370    0.0291761982
 H   -3.0856189619   -3.0307026831    1.1444326377
 H   -1.8300106511   -2.2777720465    2.1812788878
 H   -2.8291498639    0.8170797790    0.1103218787
 H   -4.1517477546   -1.1914510011   -1.1456642947
 H   -2.8903123563   -0.4181684082   -2.1365449645
 H   -1.6919220223   -2.3130944509   -2.0030330547