18

 C    0.1327741121    1.4432143594   -0.0768162324
 C    1.3893103009    0.6691370748   -0.0217977777
 N    0.0286502354   -0.0199728573    0.0675171805
 C    0.2667011420   -0.5890456190   -1.3097553802
 C    1.6717645518    0.0222551216   -1.3533220174
 C    2.4308233179    0.4936664548   -2.5731638217
 C    3.7447675552    1.1241916497   -2.1251321092
 O    4.0696320343   -0.0339462988   -1.3042024078
 C    2.8970740840   -0.7086119095   -1.7701463427
 H   -0.1729001107    1.9754126117    0.8189887853
 H   -0.1766826832    1.9075916189   -1.0117785425
 H    2.0748264986    0.6956518006    0.8178847693
 H    0.2515031887   -1.6814237639   -1.2745784168
 H   -0.4565946124   -0.2416330053   -2.0562878428
 H    1.9849913503    0.5607595418   -3.5569596916
 H    4.4788818753    1.2362131949   -2.9304585236
 H    3.6906316237    2.0488645684   -1.5386601387
 H    2.9682329962   -1.7703483528   -1.9828803401