21

 C    0.0241051981    1.4909385406   -0.0940047321
 C   -0.0470194758   -0.0065708521   -0.0008308338
 O    0.2791011353   -0.7126161979   -1.2301367914
 C   -0.3628803522   -1.8464249649   -0.5761619986
 C    0.6843067057   -2.1817816771    0.5022490703
 C    0.7162940642   -0.7650840390    1.1493234006
 C   -0.2824264253   -0.7403188779    2.3179547770
 C   -1.6384013269   -1.0901979934    1.6260776554
 C   -1.3369604498   -0.8599209317    0.1427753644
 H    1.0465714412    1.8093479476   -0.3243775143
 H   -0.6355268921    1.8651433437   -0.8820351098
 H   -0.2696761413    1.9551229875    0.8527902446
 H   -0.6955527754   -2.6253809954   -1.2629834243
 H    0.3864756958   -2.9682444353    1.2020884306
 H    1.6270569823   -2.4646818591    0.0298043601
 H    1.7110136460   -0.3846915337    1.3856798396
 H   -0.0135906282   -1.4428953297    3.1120702539
 H   -0.3279432588    0.2558383110    2.7728440543
 H   -1.9466191756   -2.1220887812    1.8245498143
 H   -2.4512647789   -0.4476294859    1.9760152235
 H   -2.1637908382   -0.5491128462   -0.4958309243