21

 C   -0.2086694498    1.6495356037   -0.0179321547
 C   -0.0392700553    0.1238878396   -0.0330635574
 C   -1.3855235726   -0.5912665300    0.1281291874
 O   -1.9560143594   -0.1948040435    1.3663948523
 C    0.6756645949   -0.3846149701   -1.2614006272
 C    1.5058931988   -1.6605412135   -1.2796198693
 C    2.1298788772   -0.3593082644   -1.6772001848
 O    1.8277637796   -0.0552457704   -3.0402430754
 C    0.4116318677    0.0095969006   -2.7194200093
 H    0.7598890777    2.1524814115   -0.0960541672
 H   -0.8328825287    1.9905735547   -0.8515989027
 H   -0.6943707824    1.9635817261    0.9080524247
 H    0.5667295370   -0.1587434549    0.8386860216
 H   -2.0452448016   -0.3277509193   -0.7161749835
 H   -1.2253697034   -1.6798154532    0.0935883282
 H   -2.8156550003   -0.6163427018    1.4526056783
 H    1.7759375276   -2.0318108938   -0.2950405748
 H    1.3500190202   -2.4255320150   -2.0360836049
 H    3.0187589116    0.0829277580   -1.2409289079
 H   -0.1871385363   -0.6751159849   -3.3325627099
 H    0.0428278074    1.0334444306   -2.8439990134