14

 O    0.0878090397    0.0461006223    0.2749164077
 C   -0.0157676541    1.2134082239    0.0524027716
 C   -1.2717923092    2.0844197380    0.1110164499
 C   -0.7630416369    3.4995438378   -0.0688107427
 O   -0.3712507750    4.1322248627    1.1706105051
 C    1.0166643977    4.1906078573    0.7632665757
 C    0.7203163041    3.3486350258   -0.4853145695
 O    1.0564762036    1.9743046061   -0.3399763551
 H   -1.9501753337    1.7717833103   -0.6892911774
 H   -1.7835111699    1.9425191423    1.0647943025
 H   -1.4022351966    4.1483219565   -0.6740530345
 H    1.3370356666    5.2182307403    0.5524700879
 H    1.6907036912    3.7297071096    1.4919050326
 H    1.0714944626    3.7014249070   -1.4547541438