15

 O    0.1219654410    1.4008625614   -0.2246998743
 C   -0.0057428852    0.0315947503    0.0129736018
 C    0.2377248661   -0.5730530584    1.4464172080
 C   -1.1098962903   -1.2908959171    1.3314515696
 C   -2.2326390541   -0.2835102730    1.1852139078
 C   -2.1822658033    1.0181201924    1.7985331079
 N   -2.1036838473    2.0686755061    2.2797187771
 C   -1.3882920953   -0.6466500279   -0.0226257275
 H   -0.3920832788    1.8866111654    0.4316637898
 H    0.6524762182   -0.4579754272   -0.7093153814
 H    1.0960675063   -1.2458290374    1.4809523095
 H    0.3205944155    0.1501333105    2.2623838630
 H   -1.3313206728   -2.2979292715    1.6606636909
 H   -3.2285285908   -0.7149651565    1.1671791514
 H   -1.8731982091   -1.0574213571   -0.9001768338