17

 C   -0.1874047710    1.4720660629    0.0706401689
 C   -0.0664772292   -0.0112114240    0.0030895571
 N   -0.1278419168   -0.7503339958   -1.0813491322
 C    0.0266457308   -2.0774942059   -0.6953903767
 C    0.1793874909   -2.1074096454    0.6579949891
 O    0.4177788109   -2.9866183766    1.6659775146
 C    0.2093131208   -2.2529242794    2.8904306767
 C    0.3746325585   -0.7489368394    2.5318045769
 N    0.1080454439   -0.8163209558    1.1082237798
 H    0.7170618592    1.9441227491    0.4736891963
 H   -0.3495972256    1.8492920300   -0.9400083077
 H   -1.0296370627    1.7891975282    0.6978945586
 H    0.0132234602   -2.8874312452   -1.4045439969
 H   -0.8057662997   -2.4520450007    3.2541349879
 H    0.9326385705   -2.6051048969    3.6273333312
 H   -0.3416025010   -0.1208681309    3.0672777813
 H    1.3872867604   -0.3796577843    2.7332441449