24

 C   -0.0196196454    1.3632937586    0.0030656034
 C    0.3328997435   -0.1064307309   -0.2370856568
 N    1.0265076135   -0.7150676398    0.8869592515
 C    0.4437161994   -1.6375123465    1.7087364518
 O   -0.6938240228   -2.0471295189    1.5420909084
 C    1.3271028452   -2.1568995326    2.8463814168
 C    0.5835882401   -1.9800822867    4.1784247913
 C    1.6823302210   -3.6303952711    2.5444164681
 C    2.6543895274   -4.2671325542    3.5413462237
 H    0.8777386356    1.9656970524    0.1836874654
 H   -0.5315409428    1.7810040474   -0.8697611446
 H   -0.6784185478    1.4653777117    0.8701600741
 H   -0.5722110812   -0.6990691178   -0.3852494408
 H    0.9505697443   -0.2050138356   -1.1384439380
 H    1.9527562460   -0.3903197157    1.1114826958
 H    2.2610264617   -1.5780832194    2.8788904661
 H    1.1702516299   -2.3631578332    5.0171902872
 H    0.3733567320   -0.9235603744    4.3736180875
 H   -0.3719033475   -2.5098134855    4.1414095360
 H    0.7490404914   -4.2026318907    2.5019346780
 H    2.1184554041   -3.6823679267    1.5386696744
 H    2.9117123419   -5.2847078702    3.2310575390
 H    3.5878130192   -3.6962950064    3.6098125209
 H    2.2290661413   -4.3306962535    4.5471679507