22

 C   -0.0764165189    1.6368641305   -0.0371628596
 C   -0.0213825463    0.1114310799   -0.0022862878
 C    1.0516594413   -0.5903490895   -0.8845137037
 C    2.0707290534   -0.2636594703    0.2642087847
 C    0.8101910864   -0.5605641464    1.1429231123
 C    0.6819793107   -0.1854348686    2.5969788595
 N    0.7440658095   -2.0560281807    0.9185595235
 C   -0.3765429267   -2.5684678383    0.1080092867
 C    0.8514848928   -2.0799127622   -0.5694653598
 H    0.8973107093    2.1211446112    0.0669318265
 H   -0.5112980383    1.9764048353   -0.9839067802
 H   -0.7182291898    2.0130888551    0.7671305238
 H   -1.0476052802   -0.2406273431   -0.1239933258
 H    1.2251520380   -0.3073243351   -1.9231956056
 H    2.9126350104   -0.9477618087    0.3948843470
 H    2.4137399740    0.7701497948    0.2903761908
 H    0.8156089792    0.8909495333    2.7425961752
 H   -0.3056266574   -0.4601069424    2.9841383838
 H    1.4317493298   -0.7128780667    3.1945159292
 H   -0.4968513822   -3.6444833705    0.2070173311
 H   -1.3183688089   -2.0371078018    0.0432988240
 H    1.5501690340   -2.7915209359   -1.0039296956