18

 C    0.1164783683    1.3268509328   -0.3456240380
 O    0.0120180546    0.0320485199    0.2255397941
 C   -1.2669378164   -0.5580017425    0.1595735078
 C   -1.1989714207   -1.8452727051   -0.6887656229
 C   -0.8830300160   -1.5766374671   -2.0852791116
 C   -0.6388341772   -1.3447334975   -3.2388105152
 C   -1.7222718238   -0.8872407172    1.5983895924
 C   -1.8718611220    0.3200998677    2.4060506099
 N   -2.0013052614    1.2861357380    3.0265800200
 H    1.1548813295    1.6402391776   -0.2172529936
 H   -0.1226318416    1.3130693221   -1.4163646178
 H   -0.5358788376    2.0465960584    0.1662027481
 H   -1.9911370403    0.1303909363   -0.2939055821
 H   -0.4339547658   -2.4994908859   -0.2522334602
 H   -2.1548899841   -2.3804273226   -0.6223245140
 H   -0.4166051199   -1.1496482798   -4.2587386242
 H   -2.6746957321   -1.4285348365    1.5892662382
 H   -0.9740761134   -1.5369955986    2.0656576791