15

 O    0.0558260710    1.4813166153    0.2185177895
 C    0.0532666725    0.0788862015   -0.0214454511
 C    0.6534806062   -0.7520743164    1.1748556424
 O   -0.4383867049   -1.4650505623    1.8541103426
 C   -1.4643957021   -1.3393898499    1.0009133526
 C   -1.3059047171   -0.5459235354   -0.1048406242
 C   -2.5568908050   -0.6300924828   -0.7590614539
 N   -3.4024569953   -1.4190677857   -0.1007695641
 N   -2.7014440165   -1.8551623650    1.0012352751
 H   -0.7152268677    1.6795864127    0.7618119511
 H    0.6823764302   -0.0515511083   -0.9068458333
 H    1.3584392119   -1.5111340581    0.8244968026
 H    1.1359704187   -0.1009782773    1.9054277666
 H   -2.8874618446   -0.1603616207   -1.6739932649
 H   -3.1402365872   -2.4815921275    1.6530675891