13

 N    0.0347890284   -1.1785205091   -0.3036404504
 C    0.0417830533   -0.0409775961   -0.0963039081
 C    0.0739054560    1.3760249280    0.1125663087
 C    0.2515450037    2.3633655395   -1.0385036982
 C    1.3128523225    2.2401717533    0.0258180833
 O    1.2752840542    3.0839992482    1.1373139964
 C   -0.0523285863    3.0572246764    1.6293706221
 O   -0.6346831186    1.8192517329    1.2405636607
 H    0.4901646236    1.9344847802   -2.0052479376
 H   -0.4016096917    3.2279357302   -1.0679226504
 H    2.3039119845    1.8651941743   -0.1915377637
 H   -0.0360019898    3.1217151658    2.7203664814
 H   -0.6333941497    3.8911928064    1.2079014958