16

 O   -0.0476449314    1.3773812123    0.0278442539
 C   -0.0001545674   -0.0183925666    0.0129403430
 C    0.2651391371   -0.7527915917   -1.3452181343
 C   -0.9168320869   -1.6707183938   -1.0264161385
 C   -0.8344158351   -2.0955663389    0.4257201975
 O    0.4202515784   -2.0566071308    1.0817700840
 C    0.8167799438   -0.6846770668    1.1299271349
 C   -1.3687267371   -0.7454629641    0.1119115147
 H    0.8334894694    1.7133086824   -0.1700701475
 H    0.0342957653   -0.0823056923   -2.1767610733
 H    1.2489921660   -1.2125163172   -1.4916882976
 H   -1.5239159127   -2.2066680244   -1.7472492455
 H   -1.4722411730   -2.9005494603    0.7697511283
 H    1.8996885781   -0.6306666363    0.9667684364
 H    0.5745647937   -0.2339954790    2.1043984031
 H   -2.3239018883   -0.3157606524    0.3807358608