15

 C   -0.1801072297    1.5516042928   -0.0585946532
 C   -0.0240242459    0.0405776392   -0.0667167342
 O   -1.1811167452   -0.6245832005   -0.4929232249
 C    1.2421958910   -0.4867686902   -0.7735604749
 O    1.8910060046   -0.7609485811    0.4910924373
 C    0.6640314653   -0.5724703641    1.2138512821
 C    0.8117772956    0.2587140375    2.4050086857
 N    0.8875699062    0.9368308174    3.3382068663
 H    0.7492830245    2.0435447904    0.2389219515
 H   -0.4570701685    1.8976624308   -1.0589784387
 H   -0.9570347120    1.8611671424    0.6501027559
 H   -1.9531066585   -0.1451065897   -0.1736236067
 H    1.0511476379   -1.4024851089   -1.3441153311
 H    1.8107903722    0.2259774836   -1.3781320155
 H    0.1955847425   -1.5266872496    1.4876110103