16

 N    0.0245380988    1.4269137611    0.1892304712
 C    0.0121615744    0.0018825507    0.0007283307
 C   -0.5782480256   -0.8273367961    1.1321565494
 C   -1.3549474251   -0.6528680524   -0.1357385052
 C    1.1306397382   -0.5817381867   -0.7647328782
 N    2.1395661905    0.0527752574   -1.2954287645
 C    2.8464062443   -0.9738412023   -1.8698394797
 N    2.3355708209   -2.1635701158   -1.7203149211
 O    1.1729793294   -1.9067552843   -0.9730027294
 H    0.8841262005    1.7034687989    0.6569167346
 H    0.0437133122    1.8922146668   -0.7147786242
 H   -0.1298256303   -1.7929733107    1.3314459721
 H   -0.8877025728   -0.2572824377    1.9994753272
 H   -2.1910586340    0.0354824692   -0.1281304340
 H   -1.4398171361   -1.4987102056   -0.8070064317
 H    3.7683260544   -0.8295040726   -2.4146434072