20

 C   -0.1026361669    1.6114317879    0.0142616914
 C    0.0622405649    0.0949724361    0.0006259244
 C    1.1195882926   -0.5679923747   -0.8862690748
 N    1.3193409260   -0.6773116939   -2.1334532601
 O    0.3941761845    0.1124587747   -2.8576194129
 C    1.7730819131   -1.2664411305    0.2472418997
 C    2.1665939687   -0.2454429570    1.3024245030
 C    0.7255216639   -0.6334808775    1.2017392107
 C   -0.0428362965   -1.2747415038    2.3202791295
 H    0.8391889290    2.1211232943    0.2376948501
 H   -0.4473387608    1.9600726320   -0.9623156813
 H   -0.8365406978    1.9150333864    0.7686948554
 H   -0.9028159364   -0.3755401303   -0.2280404122
 H    0.6529668796   -0.0640360460   -3.7678682066
 H    2.1914363953   -2.2650137467    0.2307892006
 H    2.6997425757   -0.6681565918    2.1491531346
 H    2.5214635518    0.7377736134    1.0073435511
 H   -0.4793374151   -0.5190073638    2.9846622591
 H   -0.8629789159   -1.8928700533    1.9379811097
 H    0.6040005642   -1.9131646854    2.9307940287