17

 C   -0.0617635235    1.5942547767    0.0490025475
 C   -0.0293686221    0.0667976854   -0.0107521381
 O    0.5187737858   -0.4058179166   -1.2353525369
 C    0.7218502762   -0.5355327256    1.1844553552
 C    0.9362372969   -2.0642037641    1.2120493126
 O    2.3890753425   -1.8642935056    1.1932514213
 C    2.2378088076   -0.5037775039    1.0910218062
 N    3.0887899952    0.4038174245    0.9127831000
 H    0.9560194768    1.9960847368    0.0902279247
 H   -0.5652560586    1.9893586796   -0.8372556885
 H   -0.5979735701    1.9426392096    0.9378400230
 H   -1.0552427793   -0.3218756698    0.0015258452
 H    1.3848345591    0.0084086057   -1.3383347731
 H    0.3446008097   -0.1277405570    2.1260242972
 H    0.6268191214   -2.5962014169    2.1136838790
 H    0.6146596194   -2.5869542779    0.3093526739
 H    4.0349775632    0.0218502291    0.8580503310