19

 C   -0.0568523056    1.3303421724    0.0044403315
 O    0.0826994957   -0.0785533625   -0.0369155038
 C    0.6980982516   -0.5583130794   -1.1619122012
 C    0.2668959393   -0.4348528554   -2.6714940455
 C    1.5389259285   -1.3427591891   -2.6670233092
 C    2.1766210740   -0.3486069353   -1.6500793501
 C    0.9217666961   -2.0441827672   -1.4487269471
 C    1.1854618013   -3.2310791115   -0.6548048571
 O   -0.0306785314   -3.0708949264   -1.4366892266
 H    0.9192819784    1.8345374766   -0.0154681512
 H   -0.6615484192    1.7001857917   -0.8347743080
 H   -0.5629067190    1.5715476925    0.9412652473
 H   -0.6745246937   -0.9102043338   -2.9512247865
 H    0.3911939219    0.5472600511   -3.1342237413
 H    2.0208075960   -1.7971350528   -3.5278764413
 H    2.4140145564    0.6384760920   -2.0521087119
 H    2.9707150645   -0.7337815506   -1.0061415906
 H    1.8654691316   -3.9993941927   -1.0194414175
 H    1.0387901836   -3.2088628997    0.4235215001