19

 C   -0.0906328319    1.6000137977   -0.1943993342
 C   -0.0109599722    0.0879541950   -0.0660416562
 C    0.6811267830   -0.6818234161   -1.2015133148
 O    2.0453118690   -0.2361076450   -1.2443261109
 C    1.6968539685   -1.2574822429   -0.3052022670
 C    2.4765439323   -2.5304915643   -0.3084030300
 C    1.0708041912   -0.5422631033    0.9233001087
 C    1.9260462516    0.3316127425    1.6981436650
 C    2.6356883992    1.0580309877    2.3426672286
 H    0.8824869056    2.0090151297   -0.4751875385
 H   -0.8221614989    1.8839116089   -0.9587767487
 H   -0.3929687421    2.0593681126    0.7515327050
 H   -0.9918614051   -0.3419823470    0.1587870306
 H    0.2578747387   -1.0609752459   -2.1255562540
 H    2.6543989989   -2.8644257731   -1.3339779891
 H    3.4472311011   -2.3864236164    0.1787472598
 H    1.9411306399   -3.3176511624    0.2320780007
 H    0.5842435286   -1.2721584242    1.5790385891
 H    3.2674638526    1.6992487663    2.9057205658