21

 C   -0.0975629476    1.6327609364    0.5772381701
 C    0.0094438976    0.1802768215    0.0919413717
 C    0.9453851307   -0.6359494233    0.9922435404
 C   -1.3709169097   -0.4837163509    0.0019204193
 C   -2.2608703477    0.0343059956   -1.1148212260
 O   -1.8806813758    0.7870637302   -1.9814190497
 C   -3.6922822389   -0.4557739192   -1.0891572267
 C   -4.7654940935    0.4724891844   -1.5038234767
 O   -4.3371124767   -0.5727517866   -2.3561422521
 H    0.8902198613    2.1031595365    0.6133292200
 H   -0.7279874705    2.2273302602   -0.0880778958
 H   -0.5212889194    1.6772738466    1.5884218020
 H    0.4240543489    0.1955025094   -0.9229122757
 H    0.5611118737   -0.6905374882    2.0181517249
 H    1.0639371933   -1.6614860148    0.6261528267
 H    1.9394024048   -0.1794980214    1.0370533084
 H   -1.2710693405   -1.5680803233   -0.1623951514
 H   -1.9171579535   -0.3946334605    0.9533265981
 H   -3.9290757024   -1.2477953543   -0.3792689406
 H   -5.7580787080    0.3598395073   -1.0699133809
 H   -4.4796825461    1.4733830446   -1.8207755961