21

 C    0.1483725064    1.3952916715   -0.5294686985
 C    1.4364123447    1.6018287097    0.3132535835
 C    1.3295461034    0.1381137234    0.7910247282
 C   -0.1586214516    0.1231913549    0.3065352493
 C    2.2479496718   -0.8452626674    0.0563650488
 C    2.0890319289   -2.2458578687    0.6526469401
 O    2.2767778552   -2.2032177306    2.0608411505
 C    1.3786194033   -1.3029822505    2.6508595969
 O    1.5410952005    0.0150956792    2.1931437425
 H   -0.5943392899    2.1945680729   -0.5046268271
 H    0.3670803847    1.1626684268   -1.5747832724
 H    2.3544969435    1.8894669257   -0.2055977596
 H    1.2736982915    2.2780616841    1.1560292261
 H   -0.8300476542    0.3363865850    1.1423375899
 H   -0.5199971923   -0.7610104197   -0.2246371981
 H    2.0287902053   -0.8569553501   -1.0172198023
 H    3.2853350741   -0.5175438428    0.1874219590
 H    1.0894521401   -2.6523135509    0.4213274722
 H    2.8344809880   -2.9404551400    0.2570593569
 H    0.3400236990   -1.6398587430    2.4688860128
 H    1.5872393078   -1.2950056194    3.7225514612