13

 O   -0.1464808353    1.3960808594    0.0216589493
 C    0.0438585458    0.0516053158   -0.0012043403
 C    0.0719219109   -1.0235274502   -1.0242996449
 N    1.2854726439   -1.6354541576   -0.4705816477
 C    0.9622714858   -0.9616885819    0.8223077295
 C   -0.3926787831   -1.5589806064    1.2895488463
 O   -0.7769265887   -2.0344145716    2.3198264680
 C   -1.0560271977   -1.0319626269    0.0526309546
 H    0.6379231710    1.8243795511   -0.3426317189
 H   -0.1716935377   -1.0122712394   -2.0794913886
 H    1.2339624613   -2.6547712768   -0.3972394704
 H    1.7740812250   -0.7495887806    1.5141698924
 H   -2.1021324713   -0.9240066248   -0.1963455293