19

 C   -0.3668403614    1.5367147730    0.0246858828
 C    0.0566567319    0.0689270121    0.0067549804
 C    0.8007838782   -0.4237659369   -1.2300617514
 C    1.4371512339   -1.7049453089   -0.9098545008
 C    1.7415113391   -1.5350934642    0.5868549249
 C    2.8299901261   -0.5237352410    0.1993971701
 C    2.1923767784    0.4883357038    1.1278629582
 N    0.9271086276   -0.3410162577    1.1329117675
 N    2.3012334760   -0.5041611695   -1.2369954148
 H    0.4424220136    2.2198079134   -0.2435247232
 H   -1.1743243352    1.6919210351   -0.6973959317
 H   -0.7416607947    1.8128468372    1.0145635966
 H   -0.8617219648   -0.5328773695    0.0788264904
 H    0.4060957972   -0.2370452582   -2.2245520634
 H    1.4338390542   -2.6144060302   -1.4996008968
 H    1.8373023402   -2.3758435416    1.2708461121
 H    3.9021375059   -0.7259733366    0.1849056381
 H    2.6367507499    0.4859844037    2.1290493549
 H    2.0958158339    1.5204839762    0.7870457063