19

 C    0.3837750821    0.8096495047   -0.2376231167
 O   -0.0277468014   -0.4780881077    0.1619725284
 C   -1.4164368174   -0.7438061516    0.0263266837
 C   -1.8769736735   -0.8166462765   -1.4312627777
 C   -1.6665912631   -2.0499475883    0.7805758449
 O   -1.1108355528   -3.1806604944    0.1189255811
 C    0.1833953733   -3.4709453383    0.3757969123
 N    0.7560787622   -4.3887345215   -0.2740139055
 H    1.4308126016    0.9154715158    0.0567834958
 H    0.3114957536    0.9596901720   -1.3233007880
 H   -0.2052635186    1.5949061242    0.2617990373
 H   -1.9882764472    0.0426312956    0.5516703086
 H   -2.9467927667   -1.0440626625   -1.4757822508
 H   -1.7201006342    0.1338987692   -1.9469004473
 H   -1.3351172940   -1.6027203753   -1.9616909279
 H   -1.2637057522   -1.9619616264    1.7972925272
 H   -2.7414650961   -2.2394037022    0.8460251234
 H    0.6195555557   -2.8550840970    1.1705047494
 H    1.7114840988   -4.4988571698    0.0595245918