27

 C    2.9120242000    1.6965191148   -0.2476361224
 C    1.9899324513    0.4729981010   -0.2637778283
 C    2.5429210873   -0.7463386286   -1.0312791082
 C    3.8256879072   -1.2962883834   -0.3880015201
 C    1.4801066450   -1.8312209475   -1.1228521737
 C    0.2821249778   -1.6818588676   -2.0298561844
 C    1.2938000741   -2.7685771503   -2.3030037821
 C    2.1331171877   -2.7447896136   -3.5666259178
 C    3.3021888568   -3.7368095203   -3.5468952131
 H    3.8492170210    1.5002565067    0.2820293311
 H    3.1669363270    2.0127485535   -1.2658954132
 H    2.4278618528    2.5433116020    0.2492785315
 H    1.7640213754    0.1700540173    0.7682578770
 H    1.0297946282    0.7547362160   -0.7119170048
 H    2.7863835322   -0.4076077301   -2.0478579611
 H    4.1908130454   -2.1773931866   -0.9229543536
 H    4.6301455293   -0.5552482627   -0.3803683791
 H    3.6387116691   -1.5949448125    0.6509076643
 H    1.2667307932   -2.2860326895   -0.1561898699
 H   -0.7027929466   -1.9496628385   -1.6623658251
 H    0.2818308456   -0.8336730296   -2.7096950807
 H    0.9751886439   -3.7727792152   -2.0283464820
 H    1.4822156276   -2.9800286041   -4.4195324734
 H    2.5084696837   -1.7318655368   -3.7520275711
 H    3.8558603159   -3.7150206342   -4.4910300756
 H    4.0072576091   -3.5137361930   -2.7402555659
 H    2.9438504202   -4.7612628270   -3.3960282179