19

 C    0.0513300146    1.4565724305    0.1155744194
 C   -0.0716080461   -0.0278422722    0.0072911293
 C   -0.0967708503   -0.7936765392   -1.1018014459
 C   -0.1603438407   -2.3118235672   -0.8380107303
 C   -0.6549834969   -2.2911159439    0.6199847429
 C   -0.0457712271   -2.5467909994    2.0417967515
 C    1.2219954583   -1.7746840714    1.6715157666
 C   -0.0325633957   -1.0071464627    1.1369111561
 O   -0.6729277423   -1.2435470596    2.4656738871
 H    0.9637420312    1.7368420033    0.6564012309
 H    0.0760176260    1.9309050002   -0.8691709487
 H   -0.7878082251    1.8802657965    0.6795871024
 H   -0.0098813334   -0.3952706082   -2.1083710711
 H   -0.8351513692   -2.8324801551   -1.5245192557
 H    0.8321420613   -2.7608450916   -0.9679485553
 H   -1.7454222544   -2.2510683645    0.6687400058
 H   -0.1868276931   -3.3794687886    2.7319336412
 H    1.7361970343   -1.2991611642    2.5066694186
 H    1.9078019085   -2.2100479925    0.9411431652