17

 N   -0.0145847353    1.3592102704    0.1906255548
 C    0.0511059269   -0.0820994525    0.0358344813
 C    0.3685970586   -0.8907112454    1.3516565289
 C   -0.9261328899   -1.7296017116    1.1839681726
 C   -2.1638127019   -1.0861019699    1.8245905184
 O   -2.3432318873   -0.2060959668    0.6777123036
 C   -1.3111137148   -0.8828743042   -0.0572903932
 C    0.9434715265   -0.4424192608   -1.0623439869
 N    1.6168251242   -0.7629221625   -1.9458851399
 H   -0.0810252861    1.8099023369   -0.7177606509
 H   -0.8824803738    1.5664323289    0.6830212640
 H    1.2963777862   -1.4613525030    1.3030841954
 H    0.3954900650   -0.2473251267    2.2342822383
 H   -0.8382066469   -2.8134308851    1.1863631148
 H   -3.0256588476   -1.7542669139    1.9357798300
 H   -2.0118269821   -0.5282383926    2.7557775682
 H   -1.6436479315   -1.2465781214   -1.0322261093