16

 C   -0.2853995173    1.3324345361    0.3070476919
 O   -0.3162210223   -0.0762738405    0.3927046675
 C    0.9327283906   -0.6279213470    0.7945538612
 C    0.7642839401   -2.1019439481    0.9215629051
 C   -0.3295566813   -2.8170337451    1.3711220882
 N   -1.5297813129   -2.3786894183    1.8380571128
 O   -0.0657127516   -4.1053893143    1.3334398856
 N    1.3435193320   -4.2008179502    0.8067847840
 N    1.7110035556   -3.0261964719    0.6019377495
 H    0.4472394885    1.6726040442   -0.4396757203
 H   -1.2808226597    1.6631376827    0.0025066647
 H   -0.0332535655    1.7941820975    1.2740361432
 H    1.7193067709   -0.4087948720    0.0574541069
 H    1.2415626774   -0.1637133125    1.7477086437
 H   -1.7660440349   -1.4499840937    1.5157787350
 H   -2.2821796594   -3.0500855267    1.8264088509