19

 C   -0.0060229661    1.5281111143    0.0299911287
 C   -0.0024469521   -0.0009684647   -0.0035724453
 C    0.6522738239   -0.6023185873    1.2496959687
 N   -1.3720841060   -0.4695213021   -0.2090477691
 C   -1.6304505705   -1.7636387917   -0.5784519208
 N   -0.7207930720   -2.5741476173   -1.1130850160
 N   -1.4689954769   -3.6930343851   -1.3611271882
 C   -2.7367701485   -3.5048511484   -0.9663378107
 N   -2.8886614636   -2.2963978936   -0.4607739011
 H    1.0119601394    1.9137117063    0.1359590970
 H   -0.4430664809    1.9380272402   -0.8844051149
 H   -0.5890433558    1.8986462309    0.8825844171
 H    0.5641567029   -0.3341448500   -0.8797293095
 H    0.6412102777   -1.6938488010    1.2003348548
 H    1.6932832924   -0.2742827335    1.3389913757
 H    0.1200298093   -0.2881640733    2.1553197094
 H   -2.0680762837   -0.0967607754    0.4207521104
 H   -1.0368687552   -4.4994492208   -1.7778120697
 H   -3.5055445043   -4.2572579674   -1.0618781266