21

 C   -0.2331132500    1.5544022840   -0.0696353607
 C    0.1287594510    0.0720075615    0.0930405183
 C    0.7345953453   -0.5290591938   -1.1599139938
 O    1.9185098318    0.0902157685   -1.5918694525
 C    0.7206412332   -1.9955803664   -1.4415741535
 C    0.1306303604   -3.0327942901   -0.5152003305
 C   -0.1661195874   -1.0625847934   -2.2879472308
 C   -1.5913999392   -1.0788435706   -2.1677189273
 C   -2.7920192883   -1.0877084097   -2.0696671275
 H    0.6505538206    2.1651386011   -0.2863126575
 H   -0.9580675681    1.6938457284   -0.8778346105
 H   -0.6749950304    1.9486892587    0.8498214116
 H    0.8476670697   -0.0470957774    0.9129529734
 H   -0.7699560706   -0.4858609375    0.3673995750
 H    1.7061834001    0.9960723197   -1.8424823121
 H    1.6068908775   -2.3209551079   -1.9790723768
 H   -0.8285847680   -2.7162760566   -0.1000541060
 H   -0.0433013402   -3.9686364229   -1.0561254525
 H    0.8114039461   -3.2477106366    0.3154020100
 H    0.2116521988   -0.8606234483   -3.2859860757
 H   -3.8505316724   -1.0933596206   -1.9897182704