20

 C    0.1810016978    1.3743707943    0.2528111301
 C   -0.1445010019   -0.0990585616    0.0346292636
 N    0.8551215030   -0.7232018650   -0.8408879663
 C    0.6170119175   -2.1318943873   -1.1305780985
 C   -0.5044706164   -2.3446442911   -2.0749618207
 N   -1.3762417659   -2.4611454590   -2.8256656463
 C    1.8733071969   -2.8442255918   -1.6389979839
 C    2.9088879716   -2.1351134015   -2.4243782714
 N    3.1627042130   -2.5311786710   -1.0250366904
 H    1.1835492817    1.4931745278    0.6734788150
 H    0.1383950607    1.9323467841   -0.6894369098
 H   -0.5411946389    1.8278662468    0.9372131455
 H   -0.1219005258   -0.6323332970    0.9928058391
 H   -1.1670285147   -0.2017481882   -0.3643838592
 H    0.9044447374   -0.2027420965   -1.7116398065
 H    0.3320881429   -2.6102137285   -0.1838620477
 H    1.7076911689   -3.9017762439   -1.8302836556
 H    3.4794459761   -2.6781242396   -3.1716080482
 H    2.7739813609   -1.0790161183   -2.6390742920
 H    3.0311179451   -1.7046492525   -0.4416254567