17

 C   -0.1202364946    1.5481165359   -0.1706335308
 C    0.0022844607    0.0559280456    0.0048002609
 O   -1.1263679203   -0.6833990933   -0.3997232991
 C    1.2843465317   -0.7094043364   -0.1795721133
 O    2.4176108090    0.0424902283    0.2697571977
 C    1.9235098914   -0.0140597875    1.6477676605
 C    1.9263786267    1.2545690500    2.3575475008
 C    1.9496903422    2.2801593557    2.9841069605
 C    0.6202106795   -0.6675674678    1.1856118897
 H    0.8105119445    2.0564277371    0.0817579076
 H   -0.3565234301    1.7773255743   -1.2177196861
 H   -0.9241872788    1.9479535200    0.4542670045
 H   -1.2418080063   -0.5430838724   -1.3464504544
 H    1.4439939695   -1.5112888259   -0.8915745060
 H    2.5338635654   -0.7386246090    2.2025431262
 H    1.9613783366    3.1922210849    3.5286236803
 H    0.0686714429   -1.4219943894    1.7287235611