17

 C    0.0271528761    1.3790168425   -0.0341437224
 O    0.0444640002   -0.0441927848    0.0400716753
 C   -1.2033641655   -0.6079479742    0.0387100207
 C   -2.2052304834   -0.5061556561    1.2336431884
 C   -2.7090020166   -1.8751825698    0.7621918903
 C   -2.7505979401   -1.8720221746   -0.7753370649
 C   -1.4547535271   -2.1732339608    0.0149212045
 C   -2.1251894518   -0.5869372519   -1.2134820718
 O   -2.1233614778    0.0531201738   -2.2292605682
 H    1.0696771197    1.7016285380   -0.0480607526
 H   -0.4766977841    1.7191495544   -0.9446026646
 H   -0.4696171657    1.8178010628    0.8427536863
 H   -1.6816247684   -0.5892093541    2.1898415323
 H   -2.9045758550    0.3365606927    1.2493756050
 H   -3.3423877972   -2.5690565349    1.2996410224
 H   -3.3562677279   -2.5685607691   -1.3378185105
 H   -0.7917088854   -3.0181908640   -0.0808459803