18

 C   -0.0191174654    1.5277262784    0.0048015465
 C   -0.0088095470    0.0181560366   -0.0088748709
 C    0.0188826203   -0.6864007888   -1.2152454422
 C    0.0502716541   -2.0775172563   -1.2189635356
 C    0.0536892744   -2.7833395215   -0.0197776703
 C    0.0264362783   -2.1048493087    1.2014363329
 C    0.0537987347   -2.8618296084    2.5073176092
 C   -0.0090061639   -0.7084944427    1.1841457571
 H    0.9974410891    1.9330366688   -0.0736450489
 H   -0.5920333620    1.9316640357   -0.8354533269
 H   -0.4531027076    1.9171123855    0.9302146110
 H    0.0095100845   -0.1419569203   -2.1550250235
 H    0.0640355180   -2.6149199055   -2.1620089268
 H    0.0713794806   -3.8692823209   -0.0300819074
 H    1.0813295133   -3.1087382700    2.8023461725
 H   -0.3849082441   -2.2753739066    3.3197026885
 H   -0.4953835587   -3.8054963220    2.4344728166
 H   -0.0409565487   -0.1705457734    2.1286873183