14

 N    0.0792015324    1.4086425726    0.0820358825
 C   -0.0113096770    0.0391514524   -0.0422247675
 N   -1.2076174230   -0.4674239176   -0.1152778967
 O   -1.2399037324   -1.8757503702   -0.3593571047
 C   -0.1233648997   -2.6136498776   -0.4501357894
 N   -0.1125582750   -3.8697054831   -0.6614292962
 C    1.1580093172   -1.8825048545   -0.2871662623
 N    2.2564682784   -2.6420993814   -0.3479011508
 N    1.2085082697   -0.5994802878   -0.0985928994
 H    0.9124037136    1.7203258972    0.5569809350
 H   -0.7733164030    1.8663152401    0.3680452980
 H   -1.0587420995   -4.2400770625   -0.7520840486
 H    2.1350780454   -3.6283623512   -0.5178190756
 H    3.1659070230   -2.2212752164   -0.2675155043