15

 N   -0.0669109997    1.3903659336   -0.2132316242
 C   -0.1135937578    0.0123269954   -0.0480780635
 C   -1.1524029870   -0.8642600981    0.1893874810
 C   -2.5078819923   -1.4927945901   -0.0838731479
 C   -2.3961934518   -2.2893150072   -1.3765502847
 C   -1.7732992924   -2.8355408128   -0.1186783364
 N   -0.5431402545   -2.0865084791    0.1993971606
 N    0.7616052446   -2.0279582374   -0.0878755305
 N    1.0356059383   -0.7418437819   -0.1405228620
 H    0.8801854022    1.7365939887   -0.1259761663
 H   -0.6937992784    1.8997853881    0.3931984451
 H   -3.4488772644   -1.2679474336    0.3968175345
 H   -3.2994790994   -2.8004450334   -1.7003547083
 H   -1.7606387820   -1.9284746340   -2.1784293970
 H   -2.0034692354   -3.7806474080    0.3515155197