17

 C   -0.0304737436    1.5579748207   -0.1025438692
 C    1.4293525123    1.9513746581    0.0536082302
 C    2.1581170526    1.4093840814    1.2675315555
 C    1.3574939420    0.5254363096    2.2098882374
 C    0.7100606389   -0.4811517832    1.2729369417
 C   -0.0038209812    0.0497559298    0.0840545543
 N    1.3813482038   -0.4805654025   -0.0570892606
 C    2.2618628119    0.6941604186   -0.0608578071
 H   -0.6900812880    2.0538181779    0.6200972358
 H   -0.3919019633    1.8130192295   -1.1047456016
 H    1.7733725055    2.8892713435   -0.3680055145
 H    2.9902590412    1.9840054000    1.6588000713
 H    2.0216372660    0.0166145604    2.9170576129
 H    0.6164537201    1.0811362274    2.7975274216
 H    0.4413692452   -1.4582736888    1.6650119780
 H   -0.7860217224   -0.5452190658   -0.3793839710
 H    3.1703066890    0.6119376934   -0.6427825448