21

 C   -0.1449239969    1.5566084909   -0.0118697372
 C    0.0285134628    0.0449967981   -0.0473538139
 C    0.7297803444   -0.6065075962   -1.2479323073
 C    2.1730770764   -0.1989366527   -1.3230290100
 C    1.7745810996   -1.2529927074   -0.3297943700
 C    1.1262401254   -0.6140070901    0.8927767085
 O    1.9791702465    0.2703658772    1.5897809199
 C    0.5470663271   -1.6269666429    1.8685906944
 O   -0.1283897662   -0.8748767015    2.8758846598
 H    0.8080030489    2.0774342985   -0.1315426075
 H   -0.8192154967    1.8881983910   -0.8092628082
 H   -0.5764081298    1.8721724894    0.9440648917
 H   -0.9373217466   -0.4358217556    0.1370385141
 H    0.2230488352   -1.0554287828   -2.0939217403
 H    2.7130124197   -0.5729709078   -2.1871010192
 H    2.5057958011    0.7740445135   -0.9774286744
 H    2.1894841413   -2.2544931511   -0.3556927897
 H    1.5165285931    0.4885427452    2.4096625390
 H   -0.1377261941   -2.3136101979    1.3507600416
 H    1.3689517568   -2.2155696219    2.3029760309
 H   -0.3375792377   -1.4586485457    3.6099926878