16

 C    0.0693390658    1.3725127432    0.3608288604
 C   -0.0309183634   -0.0599986441   -0.0833377752
 C   -1.2356194336   -0.6882395193   -0.2116160698
 C   -1.4280598185   -2.0614290986   -0.5933851704
 N   -0.6200208571   -3.0613038223   -0.4652036773
 C    0.6302507000   -2.9157151173    0.1331733435
 N    1.1209057117   -3.6718713893    1.0302426633
 C    1.4775532394   -1.8366850299   -0.4564304300
 N    1.1754030855   -0.5969056345   -0.4862843335
 H    0.4998475633    1.9891835526   -0.4344924436
 H   -0.9036899042    1.7763756500    0.6464021350
 H    0.7463811322    1.4478500579    1.2193128140
 H   -2.1351337626   -0.0884926634   -0.1050504321
 H   -2.3990373613   -2.3010967107   -1.0334505681
 H    0.4240840806   -4.3678600403    1.3122181403
 H    2.4284366320   -2.1419246640   -0.8957686566