20

 C   -0.0988188232    1.5327751425    0.0421254431
 C   -0.0020188928    0.0173908326   -0.0077886463
 C    0.7101717841   -0.4946731153   -1.2603740253
 O    0.8963405456   -1.9011942665   -1.2168489156
 C    1.5627819441   -2.3564052227   -0.0357514216
 C    3.0528968220   -2.0023366095   -0.0305443438
 C    0.8212939679   -1.8240380672    1.1942289082
 O    0.7142980242   -0.4104448780    1.1492896834
 H    0.8985502051    1.9827262605    0.0171398758
 H   -0.6740869522    1.9119639195   -0.8080442456
 H   -0.5921891492    1.8493287497    0.9646828319
 H   -1.0119951422   -0.4282488251    0.0185555838
 H    0.1098319778   -0.2960176606   -2.1540390920
 H    1.6712806579    0.0315195366   -1.3712860971
 H    1.4536746254   -3.4467028925   -0.0668950548
 H    3.2123737317   -0.9380075572    0.1594693129
 H    3.5682290425   -2.5619627402    0.7568619623
 H    3.5052608113   -2.2634660588   -0.9910176374
 H   -0.1824526716   -2.2770926794    1.2371509654
 H    1.3562702918   -2.0724077683    2.1161808327