19

 C   -0.0544267531    1.5714149299    0.0498911014
 C    0.0399763320    0.0456700086    0.0299307445
 C    0.6657944472   -0.4933522249   -1.2788859051
 C    0.8347905765   -1.9595948399   -1.1929238050
 N    0.9464722673   -3.1068856016   -1.1151588475
 N   -0.0668971106   -0.1284960268   -2.4801062299
 C   -1.4299734104   -0.6070751215   -2.6676874681
 C    0.5404896523    0.6012608800   -3.4698688359
 O    0.0185919928    0.9437712831   -4.5053807423
 H    0.9338315700    2.0325742008   -0.0534547885
 H   -0.6846858373    1.9460497606   -0.7615310729
 H   -0.4840624566    1.9134683977    0.9951325070
 H    0.6590124033   -0.3117018455    0.8595179907
 H   -0.9477439223   -0.4058356390    0.1681134023
 H    1.6686945985   -0.0596177531   -1.3783164863
 H   -2.1227494362   -0.1330093822   -1.9643134983
 H   -1.7247554947   -0.3482408745   -3.6842710431
 H   -1.4762995961   -1.6928579686   -2.5352047060
 H    1.5864580372    0.8559484567   -3.2088161670