16

 N   -0.0323095171    1.5040189379    0.1437878527
 C   -0.0319559075    0.0708258957   -0.0661399504
 C   -1.4514139661   -0.5451484475   -0.1283160526
 C   -1.2564270118   -1.8380456918   -0.9678811449
 N   -0.1469867855   -1.4725685127   -1.8293278856
 C    0.6102196237   -0.4272190682   -1.3811810521
 O    1.5954341415    0.0394624653   -1.9067690677
 C   -2.0659629088   -0.7884185170    1.1698140480
 N   -2.5489584318   -1.0038321800    2.1971352094
 H    0.9290781354    1.8196284637    0.2385607579
 H   -0.3883867557    1.9725478900   -0.6864433644
 H    0.5247415835   -0.3944811829    0.7571515847
 H   -2.0919202549    0.1457906999   -0.6893122191
 H   -1.0189903459   -2.6901313329   -0.3179260508
 H   -2.1519610610   -2.0875959359   -1.5428531725
 H    0.1453967419   -2.0275556136   -2.6185057425