19

 C   -0.0882661194    1.4838056591    0.0281333602
 C   -0.0020091811   -0.0296971867    0.0057616883
 N   -1.3031371394   -0.6786956594   -0.1077528978
 C   -1.1507021570   -2.0236769036    0.4719709292
 C   -0.1000283758   -1.8957549637    1.6058371451
 C    0.8246539343   -0.8048407261    1.0934386186
 O    1.7424803630   -1.2802831421    0.0511267580
 C    1.0521778735   -0.6139472448   -0.9411732084
 N    1.2725979641   -0.5248903033   -2.1709278468
 H    0.9037353916    1.9329708135    0.1210851059
 H   -0.5378585000    1.8433024815   -0.9012807305
 H   -0.7006776814    1.8273484908    0.8698569493
 H   -1.9792359172   -0.1452808000    0.4309793544
 H   -2.1149285499   -2.4066263028    0.8123089679
 H   -0.7822254788   -2.7037834465   -0.3040420152
 H   -0.5746187892   -1.5515758717    2.5326610110
 H    0.4311090668   -2.8266921321    1.8208058563
 H    1.3731412050   -0.2448987839    1.8524488026
 H    2.1032690209   -1.0550067183   -2.4417645280