16

 O   -0.1287167016    1.5410143767   -0.0570980787
 C   -0.1544271229    0.1549329605    0.0079370229
 C   -1.5523983055   -0.5537516103    0.1870976658
 N   -1.4476049247   -1.1570645424   -1.1497491511
 C   -0.0570025893   -0.6572940930   -1.3412727953
 C    0.1289301137    0.1610473976   -2.5285751025
 C    0.2723279645    0.9037979867   -3.4641644746
 C   -1.5828166074   -1.5263844946    1.3338416030
 O   -1.4650687617   -2.7203089861    1.1980069249
 H   -0.4417089495    1.8108484202   -0.9312614556
 H    0.5882626979   -0.1467963572    0.7501166487
 H   -2.3749887814    0.1656510985    0.2992664376
 H   -1.5030213415   -2.1708422433   -1.1034469128
 H    0.7124905429   -1.4368811096   -1.2967545363
 H    0.4060290133    1.5263803070   -4.3146554159
 H   -1.7005784968   -1.0652214006    2.3392617799