19

 C   -0.0191698133    1.5475145227   -0.0487240805
 C    1.4111261084    2.1086447891    0.0315163746
 C    2.0835529133    1.7648635860    1.3745851184
 C    1.8631284921    0.3173587807    1.7005702290
 N    2.5523363394   -0.3557421488    2.6192309359
 N    2.0117156505   -1.5909197497    2.5924394234
 C    1.0070229082   -1.7186225198    1.6894885098
 C    0.8759619075   -0.4876705936    1.0796350541
 C   -0.0308427111    0.0062061586   -0.0109008318
 H   -0.6038405713    1.9359760020    0.7956401059
 H   -0.5134319189    1.8976871619   -0.9612615268
 H    2.0062514912    1.6919227936   -0.7919513326
 H    1.3994309570    3.1946913689   -0.1088615092
 H    3.1538950742    1.9940448399    1.3488434445
 H    1.6541655202    2.3917576707    2.1682090923
 H    2.3751155091   -2.2945212886    3.2116163543
 H    0.4820594240   -2.6518194216    1.5554516763
 H   -1.0546407906   -0.3620267813    0.1233593879
 H    0.3041386899   -0.3776038907   -0.9851206754