17

 C    0.0038370950    1.5974477017   -0.0282513009
 C    0.0759563370    0.0812764631    0.0098571892
 C    1.0636312198   -0.6815335824   -0.9177130969
 C    1.3480136194   -1.6662936226    0.2461852024
 C    0.7743087069   -0.6026502789    1.2339951377
 O    1.7639169495    0.2683176455    1.7448749103
 C   -0.0924095471   -1.0954283090    2.3124229142
 N   -0.7647620179   -1.5013195345    3.1612359968
 H    0.9898696352    2.0409460691    0.1268277089
 H   -0.3766809188    1.9299705483   -0.9998198789
 H   -0.6676750678    1.9835254190    0.7453373621
 H   -0.9237956839   -0.3524125770   -0.0903725053
 H    0.6560917049   -1.1020403875   -1.8383816135
 H    1.9382352728   -0.0734877626   -1.1604471601
 H    0.7223952234   -2.5606645646    0.2045496246
 H    2.3835505831   -1.9573812484    0.4362238336
 H    2.2982212883   -0.2191345294    2.3821659957