11

 N    0.1622154156   -1.1599796492   -0.0053815496
 C    0.0530888904   -0.0069698293    0.0023496392
 C   -0.0541735111    1.3985192623    0.0114465399
 C   -1.1494618342    2.2524669173    0.0315767875
 N   -0.7367371408    3.5600270983    0.0327530586
 C    0.5750483116    3.5118608916    0.0139258220
 N    1.0399947871    2.2345360374    0.0004254363
 C   -2.5190592343    1.8774637562    0.0489669623
 N   -3.6302770735    1.5566530259    0.0629854875
 H    1.2354489233    4.3657146692    0.0091654525
 H    2.0026731859    1.9348186903   -0.0148451763