12

 C   -0.0090250910    1.4545870748    0.1234186889
 N   -0.0459648244    0.0049966002    0.0041975964
 C   -1.1792243320   -0.7158802693   -0.1969959242
 N   -1.2079775334   -2.0025408943   -0.2290206226
 C    0.0009759172   -2.6352877946    0.0644088739
 O    0.0966191587   -3.7638510498    0.4616103973
 N    1.2130365570   -1.8680703588   -0.1666095353
 N    1.1789711109   -0.6169989139   -0.1314050402
 H    0.9739119249    1.7901502043   -0.2073472524
 H   -0.7805649378    1.9015751237   -0.5083422074
 H   -0.1672721401    1.7636266031    1.1607312350
 H   -2.0860686600   -0.1358905453   -0.3725554994