15

 O   -0.0027505195    1.3430494563   -0.1786888421
 C    0.0196052750   -0.0267068668   -0.0761249277
 C   -0.0007153122   -0.6334804946    1.3809207718
 O   -1.4238739000   -0.2725129329    1.4295234611
 C   -1.4280376283   -0.7378584725    0.0439341929
 C   -2.5600988170   -0.2888903068   -0.8129207248
 O   -3.2929615955    0.6245284115   -0.5334813751
 C   -1.0009944552   -2.1948091713    0.1564615320
 C   -0.0360416646   -2.1240483800    1.0818635677
 H   -0.6795468553    1.6559958573    0.4407533255
 H    0.7266045831   -0.4325230214   -0.8015481434
 H    0.5943566006   -0.2285027471    2.1977730249
 H   -2.6470134215   -0.8416582202   -1.7757690426
 H   -1.3828322560   -3.0299094021   -0.4118565524
 H    0.6030470364   -2.8909873292    1.4930289222