20

 C   -0.3492421221    1.5081545174   -0.1102658014
 C    0.1476368325    0.0772790761   -0.0759694413
 O    1.4434555550   -0.0772638598   -0.7042630140
 C    1.9439798899   -0.8471871238    0.4028369388
 C    0.6770144840   -0.5624180097    1.2421056500
 C    0.8633838852    0.3483797724    2.4514980254
 C    1.5397151614   -0.3997841624    3.6198282867
 C    1.7386665628    0.4505577108    4.7911342062
 N    1.8864780709    1.1378866970    5.7081910687
 H    0.3506445023    2.1931540905    0.3747179667
 H   -0.4670463098    1.8270816340   -1.1505458597
 H   -1.3247380220    1.5923502291    0.3807297790
 H   -0.5884445984   -0.5759896276   -0.5675585653
 H    2.0991516872   -1.9011024649    0.1368358302
 H    2.8869078530   -0.4392027088    0.7906609927
 H    0.1242906239   -1.4589585605    1.5389723872
 H    1.4742564829    1.2175378013    2.1865924548
 H   -0.1045071901    0.7335499491    2.7902377677
 H    0.9344778494   -1.2644721599    3.9169099324
 H    2.5149447519   -0.7921550805    3.3081581352