18

 C    0.0186447021    1.5102184764    0.0844069774
 C    1.5794008859    1.5320643199   -0.0443854457
 C    1.5513175737    0.0319155357    0.1789546369
 O    2.5018167540   -0.9105417721   -0.2899811164
 C    2.2828686787   -1.7451479909    0.8797965283
 C    1.3444886355   -0.7009993180    1.5313255283
 C   -0.1769003730   -0.8573905237    1.2459408828
 C    0.0043523959   -0.0483638031   -0.0658197547
 H   -0.3446929714    1.8555013081    1.0559674764
 H   -0.5166519652    2.0537001677   -0.6955799126
 H    1.8900134349    1.7701922331   -1.0668449366
 H    2.1566328445    2.1477759780    0.6515552040
 H    1.8168701985   -2.7040680113    0.6196962961
 H    3.2238140479   -1.9328190400    1.4083733730
 H    1.6659671946   -0.3003773356    2.4933959505
 H   -0.4977811062   -1.8942150081    1.1048913322
 H   -0.8364857259   -0.3945210089    1.9862739031
 H   -0.4359642043   -0.4244040272   -0.9900527631