18

 C   -0.0021637107    1.3238928558   -0.0874780461
 O   -0.0274080487   -0.0823930901   -0.1685962862
 C   -1.3105779271   -0.6253228822    0.0710702914
 C   -1.1967885928   -2.1156791196    0.0435249295
 N   -2.1988288718   -2.9704390614   -0.0300363394
 C   -1.6200544499   -4.2157676701    0.0129535694
 N   -2.4251606485   -5.3600204103    0.0187511327
 C   -0.2516099558   -4.1116648025    0.1077431225
 N   -0.0051331444   -2.7460030751    0.1304795976
 H    1.0241919607    1.6437315103   -0.2815020006
 H   -0.6663603127    1.7847937675   -0.8343862555
 H   -0.3056294046    1.6794695034    0.9093723371
 H   -1.6929535487   -0.2851203251    1.0493959043
 H   -2.0366583669   -0.2938566604   -0.6875706979
 H   -3.3416608615   -5.1464236698   -0.3537140422
 H   -2.0194814856   -6.1388479206   -0.4827554602
 H    0.5386857257   -4.8401197442    0.1591805647
 H    0.8838502033   -2.2763443656    0.1530950290