18

 O   -0.5730617181    1.2167819981    0.0344549347
 C   -0.0713565807   -0.0844890834    0.0231713900
 C   -0.3181363599   -0.9723866400    1.2198923278
 C    1.0953108378   -0.5802737308    0.8272861468
 O    1.8753982524   -1.4713536462    0.0810972895
 C    1.1400905754   -1.8507798356   -1.0920557034
 C    0.0663317837   -0.7881417675   -1.3091195864
 C   -1.0404990049   -0.9066054130   -2.2793834842
 N    0.0937200685    0.0089217247   -2.5410087838
 H    0.1545983405    1.8221473124   -0.1473082522
 H   -0.7157705467   -0.4697403971    2.0948568395
 H   -0.6649324300   -1.9895567146    1.0724536065
 H    1.6845426911    0.0483409681    1.4853143218
 H    1.8324207842   -1.9036878116   -1.9357053844
 H    0.6897975030   -2.8416883509   -0.9410145888
 H   -1.0979208031   -1.7648103958   -2.9443752087
 H   -1.9995241751   -0.4734774010   -2.0067869839
 H   -0.2102305382    0.9571610143   -2.3219361809