21

 C   -0.1613465586    1.5017680925   -0.1850572276
 C    0.0308732048   -0.0142111898   -0.0624676337
 C    0.7802791079   -0.5753278120   -1.2771449301
 C    0.7619614910   -0.3966930750    1.2472054399
 C    0.0085700016   -0.0690424084    2.5029515256
 C    0.2711113366    0.9243156113    3.4271101949
 N   -0.6841461349    0.8321089622    4.3856102856
 N   -1.5642273143   -0.1601768930    4.1599426858
 C   -1.1472283856   -0.7057203940    3.0213372707
 H    0.8077476834    2.0130587646   -0.2459223687
 H   -0.7259436527    1.7554592331   -1.0881971537
 H   -0.7003918616    1.9066105229    0.6760359178
 H   -0.9639261946   -0.4801139896   -0.0302907803
 H    1.7888487184   -0.1495491602   -1.3460210190
 H    0.8831225914   -1.6641542594   -1.2170628539
 H    0.2576073700   -0.3380996037   -2.2095343788
 H    0.9741767291   -1.4733057680    1.2221827175
 H    1.7385997413    0.1044299200    1.2640122373
 H    1.0520902899    1.6675538912    3.4719959987
 H   -0.7882113107    1.3976213832    5.2104570264
 H   -1.6855644825   -1.5461518279    2.6059645555