18

 C   -0.4852348977    1.4962146980    0.2279612068
 C   -0.0251103449    0.0620483935    0.0216776473
 C    0.5596971460   -0.4370846452   -1.3855985679
 C    1.2525176472    0.6199905465   -2.2978107577
 N    2.2578823704    1.2683274573   -1.3908392412
 C    2.4316913666    0.3873828445   -0.5003549867
 O    2.3896315400    0.5257984704    0.8756771503
 C    1.2623375489   -0.4567829914    0.7843118001
 C    1.7517998106   -0.9688845461   -0.5735585154
 H    0.3183879296    2.2031747921    0.0079189640
 H   -1.3386081548    1.7268608808   -0.4190336852
 H   -0.8027815447    1.6524174591    1.2646946844
 H   -0.8288723946   -0.6323410261    0.2896464915
 H   -0.0922981419   -1.1347470052   -1.9144699893
 H    1.6981853445    0.1569484555   -3.1894904147
 H    0.5727696010    1.4065159735   -2.6387318488
 H    1.1677706963   -1.0021925287    1.7214491948
 H    2.3259047975   -1.8759021184   -0.7487594223