18

 C    0.1271568166    1.2923747100    0.2411243689
 N   -0.0304155355   -0.0183387549   -0.3889917771
 C   -1.2136566093   -0.7078442850   -0.1768707587
 N   -1.3257636708   -1.9542832017    0.1857235541
 N   -2.6912011056   -2.2628478897    0.1935245953
 C   -3.3323564498   -1.1867120518   -0.1647862664
 N   -4.6993880917   -1.0733348100   -0.3625352104
 C   -5.3987354140    0.0411205379    0.2770562034
 N   -2.4544682772   -0.1499434728   -0.3967247588
 H    1.1211331994    1.6771787314    0.0022779888
 H   -0.6000862337    1.9991583475   -0.1708024999
 H    0.0070915686    1.2752691561    1.3344429434
 H    0.7396098597   -0.6422583104   -0.1807170880
 H   -5.1235516919   -1.9680852947   -0.1500519580
 H   -6.4639187696   -0.0379675630    0.0484628626
 H   -5.2721811747    0.0747132904    1.3692521254
 H   -5.0496618258    0.9927045293   -0.1361054947
 H   -2.6546227346    0.7237500915   -0.8518557300