16

 C   -0.1483308437    1.4815866957   -0.1863495867
 C   -0.0218926334   -0.0184237609   -0.0168699938
 C    0.8630243498   -0.7961076879   -0.9097879872
 O    1.2766923794   -0.4777167241    0.4139668645
 C   -1.1501171095   -0.6790763759    0.5972287585
 C   -2.1186080787   -1.1798335712    1.1113341902
 C   -3.2610038661   -1.8521475024    1.7294265789
 O   -3.6876658399   -3.0117548579    1.0291963998
 H    0.7572841780    1.8842200722   -0.6464650936
 H   -1.0094332143    1.7254578450   -0.8155506240
 H   -0.2900262166    1.9627847184    0.7856495689
 H    0.6464960529   -1.8463562648   -1.0964675836
 H    1.3898109955   -0.2754635521   -1.7092443310
 H   -3.0184493058   -2.0818609377    2.7793627923
 H   -4.1257041317   -1.1795123655    1.7465248277
 H   -2.9214713961   -3.5863886909    0.9292207691