27

 C   -0.4586918391    1.1242305907    0.4298370669
 C   -0.0848547479   -0.3484951767    0.1772774794
 C   -1.3845948479   -1.1634813756    0.0766140230
 C    0.8584510493   -0.4850307220   -1.0603451554
 C    2.2558261071    0.0343113723   -0.6870195659
 O    2.9792649896    0.3626586181   -1.8689015924
 C    0.8790338661   -1.9054625465   -1.6955108904
 C    1.5244325914   -1.9360135669   -3.0909853657
 C    1.5081096541   -2.9805569221   -0.7934173818
 H    0.4118795380    1.7764574798    0.5358839941
 H   -1.0623551026    1.5122969127   -0.3993093726
 H   -1.0532793506    1.2208975984    1.3442733535
 H    0.4617446375   -0.7117593979    1.0602568234
 H   -1.9498785865   -0.8982948552   -0.8249017669
 H   -1.2115308891   -2.2418959670    0.0590701075
 H   -2.0260788760   -0.9499404501    0.9381306474
 H    0.4742061549    0.1965827235   -1.8328651554
 H    2.1638186537    0.9219436552   -0.0467697072
 H    2.7895280627   -0.7259461184   -0.0960809261
 H    3.8492015288    0.6772609587   -1.6061611911
 H   -0.1700818485   -2.1837891210   -1.8429836137
 H    1.3978044092   -2.9267072775   -3.5424715719
 H    1.0604396157   -1.2017295560   -3.7577031808
 H    2.5906116132   -1.7068980995   -3.0481015402
 H    1.0935680408   -2.9721724074    0.2199277019
 H    1.3342869663   -3.9771217287   -1.2127321380
 H    2.5928251599   -2.8543637310   -0.7103707617