10

 N   -0.0027780854    1.4059534576    0.1662257987
 C   -0.0629388617    0.0198183996    0.0510889495
 C   -1.1494542886   -0.8297647018    0.0393895149
 N   -0.5780008237   -2.0642328365   -0.0189908061
 N    0.7546324751   -1.9983975039   -0.0345250959
 N    1.0740581283   -0.7305083704    0.0026468453
 H    0.9240056266    1.7440322972   -0.0601070671
 H   -0.7000910961    1.8938040789   -0.3790406565
 H   -2.2135295738   -0.6753615266    0.0715804931
 H   -1.0279034107   -2.9648310441   -0.0478803259