21

 C    0.3184109119    1.5711951756   -0.1354213336
 C    0.0619876994    0.0798807910    0.0370830089
 C    0.7476340372   -0.9240871906   -0.9399755398
 C    1.3219075086   -1.7286012428    0.2551364694
 C    2.7534768489   -1.3020789935    0.6742552800
 C    2.1256054712   -0.2198945739    1.5725450857
 O    2.5763631764    0.6287533054    2.2889464884
 C    0.6906197004   -0.6778627387    1.2612417164
 C   -0.1983882986   -0.9807595758    2.4493057735
 H    1.3886606071    1.7981349172   -0.1722586035
 H   -0.1328119323    1.9335917392   -1.0657275671
 H   -0.1103032096    2.1476764535    0.6911317710
 H   -1.0189226285   -0.0985072974    0.0559782641
 H    0.0492442743   -1.4788466915   -1.5704456808
 H    1.5102910187   -0.4824645662   -1.5898144790
 H    1.0926676642   -2.7926289610    0.3052465190
 H    3.2735937336   -2.0508651591    1.2827736538
 H    3.4387764598   -0.9601357401   -0.1073533871
 H   -0.4327407275   -0.0593472260    2.9939648379
 H   -1.1420830945   -1.4360871053    2.1300242152
 H    0.2858387793   -1.6646102999    3.1548892775