21

 C   -0.2517279380    1.6022997847   -0.0247695589
 C    0.0761994833    0.1002333226   -0.0024282100
 C    1.0777192434   -0.5865873101   -0.9703787891
 C    2.5801405531   -0.1228133781   -0.7971447068
 C    2.7734135690    0.9413873947    0.3081790175
 C    2.3422289167   -0.1430355813    1.3229645732
 C    0.8397599081   -0.6068847495    1.1502187857
 C    1.3111734646   -1.6942788324    0.1189695920
 C    2.7809981486   -1.2434053108    0.2882015618
 H    0.2467846337    2.1184443141   -0.8513241755
 H   -1.3266387239    1.7701268579   -0.1426831867
 H    0.0520283711    2.1020379793    0.9004779857
 H   -0.8584361444   -0.4647700025   -0.1127703123
 H    0.7659962289   -0.7973612132   -1.9946662487
 H    3.1625512343   -0.0578165577   -1.7167972645
 H    3.8429240741    1.1469126311    0.4301728346
 H    2.2405369096    1.8914291809    0.2573943469
 H    2.7062415953   -0.0965910335    2.3498647565
 H    0.3093015941   -0.8363169002    2.0758192220
 H    0.9226040008   -2.7100244771    0.0656408510
 H    3.6657899678   -1.8712652589    0.3815069954