17

 C    0.0696180671    0.9113748412   -1.2531036172
 C   -0.0035752682   -0.0016928412   -0.0472436210
 C    1.2067341695   -0.7340774760    0.4090676135
 N    0.6653928703    0.3863564833    1.1999358736
 C   -1.3566901792   -0.6434685499    0.1584322862
 C   -1.9636305061   -0.7778156026    1.4966864577
 O   -2.4101659494    0.2266614551    0.5859210003
 C   -1.7392011830   -1.5930053291   -0.8762707522
 N   -2.0056636897   -2.3465555441   -1.7110940413
 H    1.0784127617    1.3185664327   -1.3694519870
 H   -0.1858191967    0.3733891609   -2.1716687351
 H   -0.6326148322    1.7439487494   -1.1429475957
 H    1.1136593226   -1.7086832698    0.8797019031
 H    2.1238333425   -0.5871300164   -0.1546422459
 H    1.2119479478    1.2301200482    1.0476160812
 H   -2.6679920202   -1.5867454999    1.6791448335
 H   -1.3824883270   -0.4166600019    2.3399039561