20

 C    0.7425831600    0.9565440949    0.1891690181
 C    0.0615441812   -0.3827644951   -0.1202765291
 C   -1.4186176497   -0.3959890340    0.2205379055
 C   -2.0307514072   -1.6631295958    0.7435512773
 N   -1.8630187454   -0.5107495180    1.6263144696
 C   -2.2905380498    0.4811077977   -0.6306488394
 O   -1.9605998902    0.8003345195   -1.7572836492
 C   -3.6078358728    1.0021143057   -0.0718720790
 O   -4.3160550243    1.7066455525   -1.0489218388
 H    1.8085231897    0.9109944055   -0.0513300542
 H    0.3004249482    1.7636011853   -0.4010001157
 H    0.6501872651    1.2198063024    1.2485139254
 H    0.1700775859   -0.6112731505   -1.1849874557
 H    0.5538285818   -1.1910057449    0.4342116416
 H   -3.0590246769   -1.9198839637    0.5060282230
 H   -1.3619205438   -2.5142221767    0.8432943892
 H   -1.0528463908   -0.6371869407    2.2284168111
 H   -4.2062554767    0.1698792605    0.3252376114
 H   -3.3625580933    1.6302058341    0.8002250680
 H   -3.7171819210    1.7502608812   -1.8118727093