18

 C   -0.0190242426    1.4465398392    0.0388032595
 N   -0.0031828661    0.0012092915    0.0551552558
 C   -0.0139041029   -0.7551143405   -1.1094538663
 O   -0.0389468511   -0.3056570303   -2.2346828236
 C    0.0122221888   -2.2203610814   -0.6600814935
 C    0.0379911770   -2.1296012837    0.8402578053
 C    0.0280131738   -0.8392399578    1.1909042827
 C    0.0440852315   -0.2354511011    2.5586870748
 O    0.0783720985   -1.2808796564    3.5069308494
 H    0.8781248947    1.8692198044    0.5057086732
 H   -0.0465843722    1.7467635119   -1.0104001461
 H   -0.9023500150    1.8497262774    0.5472696116
 H   -0.8670002996   -2.7388060221   -1.0607528144
 H    0.8887749365   -2.7173262023   -1.0925148357
 H    0.0606508584   -2.9576891115    1.5290047604
 H    0.9190655187    0.4307312723    2.6560148492
 H   -0.8475553852    0.4024762300    2.6888583316
 H    0.0852040669   -0.8884861295    4.3842399260