23

 C   -0.1422692822    1.6265985300   -0.0684943877
 C    0.0038065637    0.1133393387    0.0005674213
 C    1.0738214776   -0.6846762223   -0.7785397027
 C    2.4249046176   -0.1097787694   -0.3047798244
 C    2.1569359398   -0.1944376896    1.2340172403
 C    2.4475672816    1.0503452537    2.0713828446
 C    0.6870172017   -0.6998211552    1.1477542130
 C   -0.0219053192   -1.1099217231    2.4088546710
 O    0.8638084016   -1.7815444574    0.1626448347
 H    0.8132345091    2.1544333104   -0.0827605661
 H   -0.6830975213    1.9077257030   -0.9790242100
 H   -0.7211188537    2.0061794787    0.7808519974
 H   -0.9635420194   -0.3642434299   -0.1808939678
 H    0.9602833472   -0.9681674274   -1.8256357304
 H    3.2610694903   -0.7357642941   -0.6239358902
 H    2.6071373059    0.9096422333   -0.6592001498
 H    2.7364443588   -1.0251914977    1.6504909364
 H    1.8819671942    1.9267110587    1.7465251733
 H    2.2092056617    0.8759448162    3.1264638573
 H    3.5109789407    1.3071764362    2.0187183579
 H   -0.1730684084   -0.2456093492    3.0639792971
 H   -0.9981768225   -1.5473876005    2.1826355564
 H    0.5679918052   -1.8516113731    2.9583681485