18

 C   -0.0246073717    1.5618558210   -0.1218170705
 C    0.0256181387    0.0502936595    0.0108201513
 O   -1.2603308590   -0.5422456984   -0.0270473140
 C    1.0625635038   -0.6884549390   -0.8892933241
 O    2.3525853348   -0.1899240733   -0.5266986437
 C    1.7702833545   -1.2320136544    0.2797977068
 C    0.7934991641   -0.5625673508    1.2246713689
 C    0.9143541112   -0.0579469209    2.6058170357
 N    0.1350762365   -1.2764333800    2.3023928020
 H    0.9858859166    1.9750634137   -0.1108584606
 H   -0.5036500750    1.8547871242   -1.0653201056
 H   -0.5981005987    2.0027651060    0.7000068426
 H   -1.7694219863   -0.1110466277   -0.7215827744
 H    0.9233668899   -1.0902616356   -1.8869977478
 H    2.3319622617   -2.1482878196    0.4136912873
 H    1.8235495346   -0.2247321142    3.1770627501
 H    0.3817316934    0.8564313367    2.8578808756
 H   -0.8630206692   -1.0784310471    2.2690878501