14

 O   -0.0795755681    1.4590370267   -0.0790832708
 C    0.0552548936    0.0507745951   -0.1088556952
 C   -1.3421428772   -0.5276776587    0.1416748340
 C   -1.3585673296   -2.0155115992    0.1435758994
 C   -1.6715692906   -2.9496966840    1.0838238036
 N   -1.4919424901   -4.1833487477    0.5063973071
 N   -1.1020027909   -4.0688350720   -0.6805291470
 O   -0.9982956117   -2.6598725472   -0.9681233315
 H    0.7814422475    1.8499881975   -0.2537182569
 H    0.4291488720   -0.3058456805   -1.0792990527
 H    0.7473509423   -0.3099881119    0.6678084890
 H   -1.7147756066   -0.1632250163    1.1027780822
 H   -2.0158062534   -0.1490865980   -0.6352111940
 H   -2.0050425773   -2.8346204238    2.1006716128