20

 C   -0.1662595179    1.4580963332   -0.3998637274
 C   -0.0242016400   -0.0071053626   -0.0256368249
 C    0.8886747056   -0.8533328743   -0.8555253617
 N    1.2642605972   -0.4733983611    0.5163749757
 C   -1.2193046548   -0.6374011039    0.5948023464
 C   -1.2655910466   -1.4350935721    1.6585007223
 C   -2.6753887190   -1.8783247630    1.9111029572
 O   -3.4543228798   -1.2579452178    0.8881950776
 C   -2.6174919062   -0.4768656496    0.0444455102
 H    0.7492534297    1.8274029810   -0.8731077291
 H   -0.9897529118    1.6152336382   -1.1044370123
 H   -0.3653981078    2.0706888510    0.4863393780
 H    0.6676530897   -1.9081016787   -0.9893718630
 H    1.4013972188   -0.3814820634   -1.6906114839
 H    1.9402022709    0.2865121671    0.4924805105
 H   -0.4160639003   -1.7337297828    2.2572049978
 H   -2.7912222978   -2.9728834238    1.8543265205
 H   -3.0463572519   -1.5684479974    2.9014728404
 H   -2.9573700699    0.5714274026    0.0523982975
 H   -2.6968442581   -0.8302784326   -0.9973225719