16

 C   -0.1499959382    1.5361367594    0.0582677930
 C    0.0736865196    0.0135253569   -0.0085254200
 C    0.7964240364   -0.5260983042    1.1848655972
 N    2.0812879207   -0.7812348190    1.2393202637
 C    2.2664532557   -1.2109377199    2.5309676714
 N    1.1925922614   -1.2415781036    3.2807703900
 N    0.2280489919   -0.7960014414    2.4158189886
 C   -1.1194972025   -0.6773849794    2.8006144700
 O   -1.5392820330   -0.9291072005    3.8907937047
 H    0.8040017920    2.0598399198    0.1618623310
 H   -0.6370800316    1.8860194611   -0.8558420564
 H   -0.7823875514    1.8164257773    0.9062956710
 H   -0.8827596958   -0.5030308325   -0.1434860916
 H    0.6932211353   -0.2297728408   -0.8750315555
 H    3.2317036914   -1.5105185338    2.9121084097
 H   -1.7390721319   -0.3199646694    1.9610355931