17

 C   -0.0318814882    1.4941528316   -0.0142695746
 C    0.0599421353   -0.0176099446    0.0008524863
 O    1.1322263466   -0.5916408433    0.0471888737
 N   -1.1478763482   -0.7088504510   -0.0381761649
 C   -2.4372137539   -0.1344623032    0.0141145323
 C   -3.3415448449   -1.1448693231    0.0533723882
 C   -2.6349938184   -2.3923656272    0.0206597620
 C   -1.2954344267   -2.1103478512   -0.0399310829
 N   -0.2073820841   -2.9467378206   -0.1779612082
 H    0.9833989160    1.8883277324   -0.0230695344
 H   -0.5727128983    1.8489836326   -0.8962102315
 H   -0.5573840089    1.8635118772    0.8715049449
 H   -2.5628044918    0.9321996837    0.0275696348
 H   -4.4133399007   -1.0233006227    0.0993757155
 H   -3.0650666394   -3.3817385776    0.0220432522
 H   -0.3586491201   -3.8769165985    0.1808693900
 H    0.6731166858   -2.5244748544    0.0845381166