19

 O    0.0201064313   -0.0734184664   -0.1853797843
 C   -0.0401046493    1.1385544690   -0.0734831880
 C   -1.3675320265    1.8756639523    0.0702008682
 C   -1.5491053867    2.6062902608    1.4164242337
 C   -0.8372922192    3.9623735402    1.5173932530
 C    0.6911977829    3.9165629011    1.4000714614
 C    1.2033581074    3.3499860527    0.0675021016
 N    1.0938884738    1.9042488953   -0.0583684657
 H   -1.4867454068    2.5907927327   -0.7551816945
 H   -2.1339383838    1.1081245974   -0.0490332090
 H   -2.6213913529    2.7714318221    1.5699269148
 H   -1.2223985347    1.9475674293    2.2311044279
 H   -1.2299800927    4.6244033765    0.7322637214
 H   -1.1047763200    4.4318362953    2.4713102488
 H    1.0817049136    4.9359621172    1.5079475758
 H    1.1193738336    3.3242711304    2.2184331512
 H    0.6883603765    3.8497688031   -0.7659211232
 H    2.2648158260    3.5881021657   -0.0424262550
 H    1.9427244676    1.3657442353   -0.1415115981