19

 C    0.0479836713    1.5030487343   -0.0318348706
 C    0.0099850654   -0.0116078416   -0.0278046362
 C    0.6998415913   -0.6854593826   -1.2229537107
 O    0.0384434911   -1.9543200704   -1.3553263291
 C   -0.6373999313   -2.1227168521   -0.1388354881
 O    0.3243850255   -2.1414713318    0.9322179762
 C    0.2705735775   -0.7585827379    1.3362418563
 C   -1.2265092960   -0.5907929545    1.6754861475
 C   -1.3537875333   -0.7792667979    0.1460371214
 H    1.0836602775    1.8623466405   -0.0203142380
 H   -0.4290067506    1.9021760280   -0.9337307286
 H   -0.4566269744    1.9388876090    0.8347106909
 H    0.5682268111   -0.1210854265   -2.1532801159
 H    1.7735890117   -0.8329492498   -1.0507616746
 H   -1.2021647481   -3.0533383266   -0.1709619387
 H    1.0941592821   -0.5293940946    2.0119814670
 H   -1.6572050398   -1.3494224025    2.3320436954
 H   -1.5087609215    0.4099104676    2.0058844978
 H   -2.2477298296   -0.5588338904   -0.4356105720