21

 O    0.3552876622    0.8462696914   -0.8514838450
 C    0.0359212952   -0.2344862022   -0.0190524390
 C    0.0088217429   -0.0329186084    1.5222716221
 C   -1.3039264785   -0.8608548939    1.5876406797
 C   -1.4517864036   -0.7449914547    0.0391958453
 C   -2.4722504612    0.2510033231   -0.4484782015
 O   -2.2207985027    1.5259942919    0.1214469199
 C   -2.9847570175    0.1797693338   -1.8599979246
 C   -3.8958074030   -0.1690595398   -0.6909813534
 H   -0.2867046867    1.5395180844   -0.6476977987
 H    0.7101994832   -1.0476578320   -0.3050291406
 H    0.8699960530   -0.3986401246    2.0868960518
 H   -0.1607586859    1.0167076309    1.7736187955
 H   -1.1469118815   -1.8928514442    1.9105609903
 H   -2.1167528035   -0.4316083072    2.1767387618
 H   -1.6310866220   -1.6891045161   -0.4824811493
 H   -2.9181658205    2.1331534224   -0.1441877441
 H   -3.1685467330    1.1170247437   -2.3764810360
 H   -2.6323187573   -0.6172794708   -2.5051946899
 H   -4.1703185624   -1.2061631243   -0.5310868881
 H   -4.6821196373    0.5370102967   -0.4395719460