17

 C   -0.0977881421    1.4621274027    0.0485722088
 C    0.1042082006   -0.0179036514   -0.0382148248
 C    0.1007842319   -0.8725462264   -1.2966506381
 C   -0.2196595668   -2.0310656562   -0.3257856560
 C    1.0438406146   -2.2155913788    0.5473808164
 C    0.6849732686   -0.8388513228    1.0705385526
 N   -0.7765059906   -0.9897760545    0.7133879751
 C   -1.0202661021   -3.1557974975   -0.7359859322
 N   -1.6495803197   -4.0644604204   -1.0754893855
 H    0.7908596531    1.9973539945   -0.3039438498
 H   -0.9510993713    1.7769274915   -0.5603351768
 H   -0.2896606611    1.7659235411    1.0819559299
 H   -0.7604553381   -0.6353197475   -1.9255257187
 H    1.0046024409   -0.9555791102   -1.9078094631
 H    0.8866055881   -2.9819176557    1.3089852595
 H    1.9967180311   -2.3776062322    0.0351982150
 H    0.9764114329   -0.3976631461    2.0164251076