23

 C    0.0179218614    1.5408857307   -0.0620923779
 C   -0.0059651477    0.0149761680    0.0021892617
 O    0.5994193905   -0.4574285577   -1.1936601914
 C    0.9237052524   -1.8349914476   -1.1366828749
 C    2.0271691440   -2.0940918136   -0.1032632599
 C    3.3873317950   -1.5680077862   -0.5980458942
 C    1.6117442566   -1.4685779103    1.2168914520
 C    2.2799330842   -1.9744132715    2.4662751341
 C    0.6727647469   -0.5205733652    1.2373033523
 H    1.0495017780    1.9041952367   -0.0553078745
 H   -0.4677151468    1.8836695276   -0.9797787574
 H   -0.5105649458    1.9703368162    0.7943388168
 H   -1.0641460582   -0.3132051209    0.0178233151
 H    0.0293081750   -2.4304244961   -0.8904330962
 H    1.2504482696   -2.1134238910   -2.1438312097
 H    2.1088322074   -3.1813582006    0.0416760503
 H    3.3016089896   -0.5112185725   -0.8655663085
 H    4.1652771659   -1.6669506854    0.1645759466
 H    3.7175030168   -2.1208085436   -1.4842220599
 H    3.3680818101   -1.8418564962    2.4232322530
 H    1.9137133495   -1.4562954651    3.3567609930
 H    2.1037416163   -3.0498283195    2.5995908841
 H    0.3441396092   -0.0908102960    2.1817156456