17

 O    0.0395845959   -0.0348531785   -0.0430789329
 C    0.0468452801    1.1659328796    0.0215868376
 C    1.2743185645    2.0102537343    0.0108211224
 C    1.7973904841    2.9887861436    1.1113074272
 C    2.8577740374    2.8597899466   -0.0088955473
 O    2.6097990667    1.3926625303   -0.0349573197
 C    1.7512039716    3.0331391776   -1.0539171273
 C    1.7435496258    3.0132879184   -2.5346492697
 C    1.1374749583    4.1880005202   -1.7648549475
 H   -0.8933724071    1.7605113299    0.0939989101
 H    1.2872750802    3.9464952543    1.2320705907
 H    2.0578428114    2.5028760697    2.0519890948
 H    3.8954714063    3.1913185675   -0.0265774551
 H    2.6804377803    3.1768806849   -3.0570014547
 H    1.0645008544    2.3364204058   -3.0424474138
 H    0.0569692835    4.2907112452   -1.7670619194
 H    1.6718702066    5.1328171806   -1.7741157852