14

 C   -0.0583674335    1.5971022115   -0.0125677808
 C    0.0492190510    0.1028382494   -0.0296899386
 C    0.6675657264   -0.9168624676   -0.9492116627
 O    1.1281078755   -1.7264728984    0.1535202953
 C    0.6510656836   -0.7746507256    1.0560765852
 O    0.8043341795   -0.7399999573    2.2282679912
 C   -0.8286262619   -0.8175554553   -0.9179049324
 C   -1.6729402584   -1.8639025179   -0.4033806089
 N   -2.3683610275   -2.6948839037   -0.0013558607
 H    0.8850750020    2.0498072525    0.3059382991
 H   -0.3084641349    1.9857340134   -1.0037245395
 H   -0.8389741149    1.9171062395    0.6841036665
 H    1.3052120928   -0.8361043041   -1.8181931836
 H   -1.2613691996   -0.2722031966   -1.7537455400