15

 N    0.0526071272   -3.7154774686   -0.0168418165
 C    0.0384705897   -2.5536294849   -0.0139605633
 C    0.0212874159   -1.1895548620   -0.0101925466
 C    0.0060542986    0.0201675188   -0.0068446643
 C   -0.0119149308    1.4563786097   -0.0031193498
 C   -0.6571653375    2.4337779789    1.0195758091
 N   -0.0361809791    3.4033372822    0.0018730737
 C    1.1754090271    2.4590594113    0.0375984229
 C   -0.5913092534    2.4398995273   -1.0584793804
 H   -1.7477448226    2.4741900277    1.0602550335
 H   -0.2098141323    2.4909536310    2.0141880114
 H    1.7548188094    2.5179949957    0.9614346840
 H    1.8121466503    2.5232629797   -0.8473437984
 H   -0.0824872462    2.5029232220   -2.0227356230
 H   -1.6771815965    2.4806731413   -1.1674807824