15

 O   -0.0945899267    1.4696304206    0.0226401050
 C   -0.0179691732    0.0684069773   -0.0053644226
 C   -1.3447735326   -0.6623192824    0.0065754298
 N   -2.0351049161   -0.5040053590   -1.2931389450
 C   -1.3212736776   -1.7644437413   -0.9922802711
 C    0.0312921273   -1.8232344686   -1.6709210870
 C    0.6799155984   -0.4880291522   -1.2819726480
 O    1.5539460047    0.0788133926   -1.8775383294
 H   -0.5673362299    1.7376461286   -0.7748385043
 H    0.5837802890   -0.2255479061    0.8654599263
 H   -1.9297936950   -0.7212070292    0.9176334947
 H   -3.0356246530   -0.6335236973   -1.1699123115
 H   -1.8987969944   -2.6694726684   -0.8387898100
 H    0.6378868746   -2.6490127922   -1.2765833891
 H   -0.0128480054   -1.9248311323   -2.7580630377