15

 O   -0.2473735503    1.5940964811   -0.1850380864
 C   -0.9820276550    0.5711855517   -0.7875556789
 C   -1.2776347352   -0.5385813133    0.2035563045
 O   -0.8944308296   -0.4530707252    1.3513046763
 C   -2.0857496495   -1.7331841401   -0.2207583243
 N   -2.7309030032   -1.7094902335   -1.5315331374
 C   -1.6585544588   -2.6817025526   -1.3169279983
 C   -0.4443350923   -2.5124213184   -2.0795234155
 N    0.5354022694   -2.4081776265   -2.6836436028
 H   -0.1094919948    1.3125083596    0.7326119389
 H   -1.9468027110    0.9348364699   -1.1766822104
 H   -0.4486707879    0.1505531060   -1.6541066224
 H   -2.5822247214   -2.2158674048    0.6182262664
 H   -3.6392693387   -2.1645126979   -1.5125998535
 H   -1.9203996217   -3.7238169661   -1.1509734962