25

 C    0.1542377988    1.6583235763   -0.3604193001
 C    0.2695549136    0.1540781915   -0.1965889239
 C    1.5005778265   -0.6827252535   -0.4358457946
 C    1.5629822188   -1.7897357404   -1.4515459432
 C    2.7429012913    0.0312793463    0.1240051842
 C    2.1176379046   -0.0229710557    1.5573970868
 C    2.0584620619    1.2166480842    2.4467194138
 C    0.8381553251   -0.6397963313    0.9621341938
 C    0.0233838870   -1.6809898675    1.6816291147
 H    1.0890107759    2.1837760052   -0.1565339944
 H   -0.1355208308    1.9033618794   -1.3888548992
 H   -0.6118104905    2.0743492112    0.3038729573
 H   -0.6162366985   -0.3544974155   -0.5799020410
 H    1.8124118605   -1.4044278129   -2.4485277213
 H    2.3247210440   -2.5340722446   -1.1897994778
 H    0.6028362435   -2.3103090481   -1.5351467715
 H    3.6547859632   -0.5658046026    0.0388638735
 H    2.9539985848    1.0258584228   -0.2839809881
 H    2.6329418918   -0.8133844636    2.1170337882
 H    1.5615448200    2.0597586978    1.9614989970
 H    1.5139577215    1.0025995622    3.3736424826
 H    3.0672624575    1.5404338823    2.7278735192
 H   -0.5815896030   -1.2359116668    2.4819393971
 H   -0.6666643185   -2.1919964822    1.0015259980
 H    0.6641106511   -2.4433473345    2.1414067090