18

 N    0.4395228783   -0.0375955568   -1.9352181139
 C   -0.0197659201   -0.2498478310   -0.7730906794
 C   -1.3686319640   -0.9271738629   -0.5899506007
 N   -2.0479582508   -0.4466250258    0.6107000328
 C   -3.0014600532    0.6484903912    0.4267941859
 C   -3.4743949859   -0.7342298831    0.7105863857
 N    0.5996807367    0.0355466491    0.4585551603
 C    1.8385098146    0.5868528525    0.6465775763
 O    2.6238224280    0.8823020499   -0.2275942511
 H    1.3726883890    0.3730550317   -1.8809653089
 H   -1.9413762139   -0.7818226074   -1.5158715823
 H   -1.2010333769   -2.0052874361   -0.4676265986
 H   -3.0105093893    1.4026157584    1.2077276808
 H   -3.1403386711    1.0305958191   -0.5821776648
 H   -3.9374399438   -1.2814164709   -0.1079104264
 H   -3.8333239695   -1.0019187693    1.6998997149
 H    0.0072058431   -0.1187150253    1.2664568536
 H    2.0567509188    0.7359074065    1.7217671958