20

 C   -0.9035495624    1.4804738489   -0.5169515057
 C   -1.4215741179    0.1264963229   -0.9691017496
 O   -1.3905618210   -0.7567429252    0.1551405520
 C   -1.8305962207   -2.0579975474   -0.1108234822
 C   -2.7702012342   -2.6638369949    0.9075625046
 C   -3.2806497013   -2.3062226171   -0.4591120030
 C   -0.8089398517   -3.0072028456   -0.6925331839
 N    0.4636781533   -2.5140282310   -0.7062135412
 O   -1.1087087653   -4.1153234939   -1.0992076278
 H   -0.9295187886    2.1913434504   -1.3481248556
 H   -1.5174574009    1.8751157846    0.2975876664
 H    0.1282928039    1.4062109703   -0.1604741539
 H   -2.4499572526    0.2101813328   -1.3460750854
 H   -0.8041663152   -0.2778710815   -1.7834674881
 H   -2.6284335990   -3.7113617247    1.1442092765
 H   -3.0393520770   -2.0169634720    1.7342790308
 H   -3.9180328129   -1.4339823840   -0.5445378721
 H   -3.4729243499   -3.1106054627   -1.1583794209
 H    0.6697269243   -1.6919400456   -0.1629762761
 H    1.2065346192   -3.1567542344   -0.9278854146