17

 O   -0.1085672656    1.2827523216    0.0591263047
 N    0.0053131748   -0.1157273417    0.0366311998
 C   -1.1340702175   -0.6773808492   -0.0226498901
 C   -2.5121387694   -0.0505183271   -0.0333397940
 C   -3.4167215463   -1.2595371837    0.0520035485
 C   -2.7348522693   -2.4063296367    0.0675304536
 C   -1.2701018845   -2.1702650566   -0.0265414094
 C   -0.3016859347   -3.0355554627   -0.7678405780
 N   -0.3108566228   -3.0317234407    0.6965568379
 H    0.8105572144    1.5645841393    0.1190049800
 H   -2.6340953304    0.6494891023    0.8029282770
 H   -2.6698873459    0.5439853132   -0.9433242776
 H   -4.4957849656   -1.1715542789    0.0917233065
 H   -3.1518703354   -3.4035352505    0.1298176995
 H   -0.6508704620   -3.9564684874   -1.2281109486
 H    0.5019941855   -2.5243088866   -1.2907361457
 H    0.4420551846   -2.4337801746    1.0351174959