17

 O   -0.1013678435    1.3330737030   -0.0143355712
 C    0.0417764950   -0.0330485124   -0.0224821405
 C    0.9412058830   -0.8895364287   -0.9115180550
 C    0.0402942287   -2.0770225820   -0.4563892168
 C    0.3837765515   -2.2692131481    1.0453788917
 C   -0.2570035336   -0.9048860264    1.2583163230
 C   -0.7160490505   -0.2900778847    2.5006044142
 O   -0.5289212276   -0.7630460558    3.6007471914
 C   -1.0642344438   -1.0146959941   -0.0576334319
 H    0.6624185273    1.7239566602    0.4259854839
 H    0.7844129023   -0.6378380899   -1.9637510918
 H    2.0122146553   -0.9528083205   -0.6902749125
 H   -0.1216990590   -2.9246787783   -1.1168379264
 H   -0.2106364479   -3.0560288140    1.5164089070
 H    1.4390014712   -2.4017531742    1.3053888163
 H   -1.2661405606    0.6681261777    2.3693338011
 H   -2.1285931375   -0.9258874917   -0.2192627025