22

 C    0.0163606710    1.5756865090    0.2156740768
 C    0.0391499730    0.0448389294    0.1188322695
 C    0.8717820226   -0.5687871130    1.2533098383
 C   -1.3895488685   -0.5164093250    0.1046937291
 C   -1.5148570153   -1.9604069017   -0.3464102671
 O   -0.5701511688   -2.6248246557   -0.7262959907
 C   -2.8936347361   -2.5501788051   -0.3301833754
 C   -3.3193662237   -3.2716558342   -1.5742613756
 N   -3.0006061566   -4.0165206033   -0.3657123164
 H    1.0324233471    1.9829209471    0.2005968648
 H   -0.5369018987    2.0248471420   -0.6163670093
 H   -0.4574033798    1.9064828477    1.1479702259
 H    0.5074707730   -0.2383671068   -0.8314643694
 H    1.8957464048   -0.1817837459    1.2366779107
 H    0.4414721933   -0.3212012827    2.2318713725
 H    0.9200128083   -1.6560577751    1.1626087287
 H   -1.8556253296   -0.4280244798    1.0972636348
 H   -2.0364528013    0.0748221454   -0.5613167310
 H   -3.6442674502   -2.0383620721    0.2647578087
 H   -4.3688579041   -3.2554047195   -1.8538331015
 H   -2.6099311343   -3.2854491670   -2.3970780726
 H   -2.0465438762   -4.3710695737   -0.4506873708