17

 C   -0.3438348649    1.5237137083   -0.0443124460
 C   -0.0059249439    0.0371406978   -0.0502583551
 C    1.2609078411   -0.5501815260   -0.7755871529
 C    2.1532904830   -0.1201429455    0.4478572278
 O    2.4462101173    1.2280262071    0.7099382813
 C    0.8403032351   -0.6527561010    1.1186451426
 O    0.5499235656   -0.7574630312    2.4506558312
 C    0.9737479928   -1.7876315372    0.1003352620
 O    0.8708064970   -2.9711090899    0.0126054875
 H   -0.7949702540    1.8004878124   -1.0035064487
 H   -1.0933071409    1.7235675161    0.7305664617
 H    0.5198351200    2.1583365467    0.1345364964
 H   -0.9163353482   -0.5269810134   -0.2793712593
 H    1.5054440717   -0.5101420481   -1.8320489518
 H    3.0418242990   -0.7444873816    0.6066913842
 H    3.2126153689    1.4774875302    0.1841183014
 H    0.6776562902    0.1066927953    2.8596699576