17

 C   -0.0320635006    1.5505646767    0.0952501024
 C    0.0295342613    0.0576162469    0.0901915502
 C    1.2079126842   -0.7774214242   -0.3532577064
 C    0.6327035894   -0.9734482748    1.0271217126
 O    1.3392216964   -0.8262976314    2.1972670431
 C   -0.7071883617   -1.7325101454    0.9387028737
 N   -1.1851397330   -0.7766893459   -0.1217292192
 C   -0.6814229236   -3.1415804421    0.5441538642
 N   -0.6215272404   -4.2573011114    0.2478859497
 H    0.9372527931    1.9743103531    0.3711369592
 H   -0.2984706706    1.9324712701   -0.8967250094
 H   -0.7762215364    1.9162857418    0.8122432748
 H    1.0901285828   -1.5258647055   -1.1323359657
 H    2.1570353552   -0.2498421717   -0.3447866907
 H    2.0815734935   -1.4418996914    2.1920925986
 H   -1.2557732159   -1.6296799917    1.8799010546
 H   -2.0155463736   -0.2951759530    0.2132488683