15

 O   -0.2631655917    0.0859129540   -0.3026139480
 C   -0.0494920940    1.1708787301    0.1693677316
 C    1.2653321092    1.9298455301    0.0232751248
 C    1.5839641400    2.5732963394    1.2911950573
 N    1.8094005641    3.0729126334    2.3099895484
 C    2.4708204623    1.3456995829   -0.7979073778
 C    1.6606340836    1.5438527990   -2.1051304404
 C    1.5295168196    2.8387078500   -1.2722467630
 N    3.0140946346    2.7448975768   -1.0387086855
 H   -0.8198815089    1.7137054450    0.7575566256
 H    3.1063356255    0.5134734869   -0.4985900114
 H    2.2784898634    1.6592836810   -2.9938094236
 H    0.7825551717    0.9239723821   -2.2579768868
 H    1.0246068938    3.7769680655   -1.5023272594
 H    3.2697510167    3.1910345938   -0.1525994119