20

 C   -0.1304225857    1.5232027798    0.0662966562
 C    0.0550543855    0.0121079591   -0.0917687601
 O    0.7052232433   -0.3024537790   -1.3242371822
 C    0.7813303430   -0.5911282227    1.0924394160
 C    0.0333451700   -1.1886430685    2.2752969792
 C    0.8385336450   -2.0676453678    1.3447700776
 C    0.1636437205   -3.0690059874    0.4356088323
 O    2.1012141756   -2.4852067143    1.8078940421
 H    0.8417343509    2.0239959430    0.1527041095
 H   -0.6500018385    1.9346600343   -0.8030782078
 H   -0.7073038018    1.7570592491    0.9668800318
 H   -0.9332061942   -0.4526178491   -0.1856430849
 H    1.6186036850   -0.0031519415   -1.2556882662
 H    1.7037795807   -0.0763244100    1.3564515161
 H    0.4333934425   -1.0069059174    3.2664281535
 H   -1.0504449423   -1.2337658954    2.2193152845
 H   -0.8155100831   -2.7207733948    0.0983407401
 H    0.7803860335   -3.2597591561   -0.4467017309
 H    0.0103872415   -4.0185116056    0.9640135726
 H    1.9659847386   -3.2585146757    2.3673166205