13

 N   -0.1788440583    1.2956259771    0.0101449914
 C   -0.0345499319    0.0463178685    0.0035430679
 O   -1.1655235304   -0.7274912754    0.0082405038
 C   -1.0058730134   -2.0710525000    0.0010722447
 N    0.0986921930   -2.7638163349   -0.0098823199
 C   -0.3238197738   -4.0839613236   -0.0127878639
 C   -1.6855217654   -4.1592830830   -0.0034520357
 N   -2.1215967283   -2.8410812491    0.0055436000
 H    0.7345055379    1.7459499443    0.0053520003
 H    0.8805987551   -0.5471413258   -0.0059415143
 H    0.3890794574   -4.8933400365   -0.0214749559
 H   -2.3752529568   -4.9855511615   -0.0022363874
 H   -3.0691449653   -2.5034378200    0.0138179790