18

 C   -0.1286170717    1.3400629557    0.0186935271
 O    0.0177016846   -0.0601688897    0.0316694121
 C    0.5426413914   -0.5674070547   -1.1706619094
 C    0.6242777550   -2.0736360909   -1.0761883395
 O   -0.7124257860   -2.5953247070   -1.0931287936
 C   -0.8317616416   -3.9252715476   -0.9926183032
 N    0.1429128717   -4.7310866574   -0.9072793368
 C   -2.2912081216   -4.3277652118   -0.9968886311
 O   -2.6340409308   -5.4783575044   -0.9226673371
 H    0.8364223997    1.8511372268   -0.1276091697
 H   -0.8157476913    1.6716502633   -0.7756452826
 H   -0.5399617597    1.6337255279    0.9871018390
 H   -0.0870558963   -0.2803392391   -2.0293275143
 H    1.5564770292   -0.1730912402   -1.3578394558
 H    1.1865427203   -2.4899204844   -1.9187562959
 H    1.1206068179   -2.3825491423   -0.1511795197
 H   -0.2325457328   -5.6799843793   -0.8424830171
 H   -3.0094249980   -3.4876007850   -1.0720349022