18

 O   -0.0300755175    1.3801301954   -0.0867387234
 C    0.0315798276   -0.0284748185   -0.0289280482
 C    0.9758863219   -0.5253686355   -1.0396041008
 N    1.7435006396   -0.9002763622   -1.8190021141
 C    0.1130228538   -0.6402190038    1.4174539080
 C   -1.3899694708   -0.2484809744    1.5361519346
 C   -1.4072815933   -0.6347827426    0.0260686528
 C   -1.1278950047   -2.1470774795    0.0794805118
 C    0.0320162199   -2.1515152813    1.1376434761
 H    0.8454796099    1.7317251679    0.1103112003
 H    0.8698100986   -0.2847863412    2.1177947031
 H   -2.0062977479   -0.8494379915    2.2087024884
 H   -1.5463229033    0.8139225604    1.7067105265
 H   -2.1657191945   -0.2680651348   -0.6641558621
 H   -2.0077615155   -2.7021791761    0.4131419228
 H   -0.8153763893   -2.5540273244   -0.8850161862
 H    0.9629927714   -2.5573604642    0.7348088751
 H   -0.2195156660   -2.7127105740    2.0408770053