19

 C    0.4942478964    1.4844911908   -0.3485315262
 C    0.0383554969    0.1338038621    0.1597883297
 O    0.5346093319   -0.9786782469   -0.6457421421
 C    0.9932384133   -1.6757880770    0.5180534081
 C    2.5163967668   -1.4270614587    0.8092859378
 C    2.1245339389   -0.2486991406    1.7428539422
 C    0.6220988142   -0.4926602800    1.4502213757
 C    3.1956546918   -2.5965249003    1.4675388767
 O    3.4556013460   -2.6795515851    2.6422522849
 H    1.5841919777    1.5593647116   -0.3851659467
 H    0.1107366368    1.6484798363   -1.3604647215
 H    0.1087574887    2.2834960546    0.2941056068
 H   -1.0601856154    0.0993562415    0.1758098715
 H    0.6084866552   -2.6976062462    0.5846810860
 H    3.0455071560   -1.1791732284   -0.1160581501
 H    2.3915210207   -0.4746935802    2.7769950572
 H    2.5251680832    0.7325759897    1.4825885762
 H   -0.0500180348   -0.5721112928    2.3033256791
 H    3.4208429857   -3.4392869803    0.7740616247