21

 C   -0.8282216231    1.0878222733    0.2360469271
 O    0.5745800257    1.2030645922   -0.0293413962
 C    0.0107784682   -0.1021054581    0.0309374155
 C    0.4289665431   -1.0357606572    1.1619538445
 C   -0.2116244113   -2.3812737952    0.7941635952
 C   -1.7386281554   -2.5130783521    1.0702597476
 C   -2.0315718663   -2.4576515687   -0.4559031780
 C   -0.5091544881   -2.3243439299   -0.7555196705
 C   -0.0322576639   -0.9473320006   -1.2377419081
 H   -1.1360900678    1.3702952111    1.2426268373
 H   -1.4830041988    1.4367898802   -0.5622375748
 H    1.5231451042   -1.1167847373    1.1545759925
 H    0.1335323145   -0.6680382114    2.1491660938
 H    0.3797251932   -3.2298089726    1.1425457991
 H   -2.0266724373   -3.4508816229    1.5512040225
 H   -2.1650924315   -1.6920341670    1.6540165914
 H   -2.4889915372   -3.3636289461   -0.8605364228
 H   -2.6331586327   -1.6040001030   -0.7816776831
 H   -0.0997959801   -3.1376887281   -1.3571629171
 H   -0.6672759425   -0.5146058647   -2.0165790483
 H    0.9856608371   -1.0135339822   -1.6418439475