15

 C    0.0927574717    1.5550357222    0.0079057553
 C   -0.0341794735    0.0343568266    0.0036752783
 C   -1.4461655911   -0.4842535776    0.0128431089
 N   -2.4469299388    0.3309640916    0.0233781352
 C   -3.7366478557   -0.1908819960    0.0316454695
 O   -4.7387763084    0.4548903311    0.0416061705
 O   -3.8903163329   -1.5947214202    0.0280296306
 N   -2.8254989670   -2.4576591729    0.0168730851
 C   -1.6576445688   -1.9207196726    0.0096566807
 H    1.1470095874    1.8433672779    0.0007219813
 H   -0.3948242353    1.9920029112   -0.8666070771
 H   -0.3811843108    1.9859692157    0.8928495158
 H    0.4691093379   -0.4009120818   -0.8721480296
 H    0.4826222638   -0.4068872167    0.8685715171
 H   -0.8268743585   -2.6189655684    0.0008854082