21

 C   -0.0198643461    1.5617721679   -0.0295491266
 C    1.2818948626    0.8103260821    0.0015680472
 C    2.1662138706    0.7964048788    1.2379484255
 C    1.3650049889    0.7069926238    2.5448250014
 C    0.4311040179   -0.5076771081    2.5581775147
 C   -0.9318795421   -0.2970464609    3.2473590077
 O   -1.5948236785   -0.1455421055    1.9749922391
 C   -0.4309591799   -0.6714523416    1.2782879632
 C   -0.0353488274    0.0511484581    0.0154213475
 H   -0.3580567945    2.0854472049    0.8565531832
 H   -0.3156741459    2.0351622132   -0.9590552942
 H    1.8320014649    0.7765674978   -0.9347530722
 H    2.8539297728   -0.0582159251    1.1718718546
 H    2.7938229406    1.6958471162    1.2533197234
 H    2.0486939792    0.6619664919    3.3993780777
 H    0.7801862876    1.6250094717    2.6738561790
 H    0.9779872331   -1.4083889151    2.8497627537
 H   -1.3013327560   -1.1722468484    3.8004848555
 H   -1.0407779016    0.5944723428    3.8767558151
 H   -0.5958829768   -1.7329089738    1.0433962228
 H   -0.3177233295   -0.4503487810   -0.9046292483