23

 C   -1.3616122678    1.7939908060    1.1231832260
 C   -1.2233797605    0.2814740133    1.3073955306
 C   -1.4763932444   -0.5153551057    0.0243074317
 O   -0.5666283401   -0.1112588363   -1.0260355098
 C   -1.4013319925   -2.0140356609    0.2523743329
 C   -2.6139863580   -2.9326650395    0.1255977667
 C   -4.0060658631   -2.4207780580   -0.1729190414
 C   -1.5489171961   -2.9312748035   -0.9423469297
 O   -1.8510133176   -2.3564488224   -2.1776696439
 H   -1.1275466663    2.3283050597    2.0486867281
 H   -0.6889490099    2.1509223343    0.3389810393
 H   -2.3828628458    2.0624955572    0.8314847589
 H   -0.2170705950    0.0362285415    1.6778358200
 H   -1.9222612178   -0.0768945850    2.0734668893
 H   -2.4562403853   -0.2395717166   -0.3745731608
 H    0.3202811014   -0.3745698139   -0.7535850303
 H   -0.6628561699   -2.3077465278    0.9964885169
 H   -2.5870972283   -3.7868685543    0.7972444590
 H   -4.0065787485   -1.7683866537   -1.0484077378
 H   -4.6720755713   -3.2604961359   -0.3971204988
 H   -4.4343369741   -1.8760668276    0.6757979934
 H   -0.8895656315   -3.7970411405   -1.0039064771
 H   -1.3111920075   -1.5547636904   -2.2451129331