19

 C   -0.3322504956    1.2412666609   -0.0042688088
 O    0.1783451822   -0.0848177766    0.0920905272
 C    0.7698297834   -0.5274029024   -1.0481255724
 C    0.3255863290   -0.8521574000   -2.4405670841
 O    1.3560398187   -0.1226236587   -3.0976289410
 C    2.1115497581   -0.1886456782   -1.8601447594
 C    2.4947936308   -1.6845148408   -1.7393969378
 C    1.0000945274   -1.9415530378   -1.5371710517
 C    0.3011193739   -3.2045928268   -1.1355359689
 H    0.4717732748    1.9637981016   -0.1949776334
 H   -1.0761367893    1.3198834628   -0.8069705722
 H   -0.8013864726    1.4692846339    0.9547285689
 H   -0.6360789629   -0.9762936411   -2.9210658842
 H    2.8239343765    0.6244954409   -1.7380742528
 H    2.9968875246   -2.1185663668   -2.6101943362
 H    3.0593783213   -1.8894753057   -0.8253380600
 H    0.7024489005   -3.6018566778   -0.1966086713
 H   -0.7700429884   -3.0318219196   -0.9854088005
 H    0.4111360877   -3.9794133079   -1.9026042117