19

 O   -0.0102482764    1.4287956823    0.1692978190
 C    0.0510859787    0.0206952478   -0.0166923595
 C    0.6416584032   -0.6693626522    1.2141961813
 C   -0.1193418267   -1.7003566616    1.6026017615
 C   -0.7691428270   -1.7948802212    2.9595180696
 C   -1.9925171675   -0.8645121305    2.5981631955
 C   -2.2314996986   -1.0639233927    1.0726680055
 C   -1.2986495500   -0.6857499691   -0.1348110419
 C   -1.1859497539   -2.0031968046    0.5626498779
 H   -0.6177940132    1.5907582625    0.8997879473
 H    0.6229053272   -0.1051446252   -0.9450259625
 H    1.3392861924   -0.1286812562    1.8462947584
 H   -1.1142715837   -2.7993665572    3.2240580462
 H   -0.1632114362   -1.3989744707    3.7771072057
 H   -2.8997881679   -1.1527366445    3.1403838308
 H   -1.7613238238    0.1690757000    2.8755614680
 H   -3.2668560347   -1.1739993509    0.7631965611
 H   -1.8322421411   -0.6048475278   -1.0779807841
 H   -1.3399108008   -2.9832417982    0.1260042203