16

 N   -0.0674686493    1.2555991478    0.2538963303
 C   -0.0070901933    0.0166884889    0.0078763357
 O    1.1795392550   -0.6311393402   -0.1926132526
 C    1.1181019055   -1.8683752788   -0.9180926612
 C    0.1659029332   -2.8392730629   -0.2475207842
 N   -1.1916807428   -2.2724693286   -0.1982644366
 C   -1.6122665107   -1.7091156529    1.0777685517
 C   -1.2536228346   -0.8077619716   -0.0562510572
 H    0.8709218887    1.6611528546    0.2436893238
 H    0.8059868225   -1.6711491437   -1.9520151296
 H    2.1398284094   -2.2539505394   -0.9321725055
 H    0.1322639448   -3.7767280394   -0.8140334191
 H    0.5411846502   -3.0722327656    0.7575613507
 H   -2.6572501977   -1.8483809702    1.3396478293
 H   -0.9180054512   -1.7612045309    1.9146293490
 H   -2.0569875497   -0.3269092670   -0.6049246942