21

 C   -0.2345756715    1.5311798682   -0.0937276174
 C    0.1451506911    0.0448310690    0.0403366565
 C    0.8106886932   -0.5046682252   -1.1787793273
 C    2.0506133807   -0.9686998794   -1.3723268934
 C    2.0818002492   -1.3639627818   -2.8379296423
 C    1.2601899754   -0.2761815926   -3.6270745910
 C    0.7147187179   -1.3678998733   -4.5763386388
 C    0.6837801054   -2.0084467050   -3.1698335149
 C    0.1683379318   -0.6522985430   -2.5580397402
 H    0.6553868916    2.1456072163   -0.2611147803
 H   -0.9142637656    1.6934164489   -0.9365259875
 H   -0.7331640664    1.8900300112    0.8121252661
 H    0.8052440082   -0.0881929161    0.9050835361
 H   -0.7666628829   -0.5312159246    0.2542122680
 H    2.8620211752   -1.0582229964   -0.6625048423
 H    2.9867408453   -1.7822148544   -3.2813328562
 H    1.5975411894    0.7334047069   -3.8783462290
 H   -0.2519249369   -1.1709983373   -5.0491058291
 H    1.4215078371   -1.7931746033   -5.2949293643
 H    0.3510080304   -3.0117479326   -2.8891655578
 H   -0.8690440887   -0.3507085352   -2.7164987351