18

 C    0.2261921038    0.9259951682   -0.7481196323
 O    0.1402077889   -0.4142123886   -0.2945003272
 C    0.5123956646   -0.5638800040    1.0716145275
 C   -0.0296756148   -1.8191467965    1.5774583950
 C   -0.4495193691   -2.8600519478    2.0111711142
 C   -0.9651396534   -4.1154732310    2.5349167001
 C    2.0565989399   -0.5546214683    1.2704367821
 N    2.7347321303   -0.9988621197    0.1823747971
 O    2.5652178887   -0.1927171399    2.3093500708
 H    1.2525542580    1.3151651320   -0.6940228982
 H   -0.1006315805    0.9281341185   -1.7902051963
 H   -0.4315640297    1.5864790570   -0.1654311693
 H    0.1309172159    0.2764380394    1.6696627088
 H   -0.1561315611   -4.7498465956    2.9129315979
 H   -1.6680912786   -3.9442644305    3.3572910080
 H   -1.4934597377   -4.6773007295    1.7569603270
 H    2.2299359938   -1.3087873653   -0.6308021817
 H    3.7342229512   -1.1010372385    0.2340371964