18

 C   -0.0591991937    1.4633505230    0.0223776846
 N    0.0215026790    0.0151803302   -0.0623640855
 C   -1.2450652253   -0.7067290881    0.0011711370
 C   -1.0886393948   -2.1762871920   -0.3910658982
 N    0.0379323440   -2.8181716221    0.2743894555
 C    1.2768491325   -2.1199163241   -0.0544911969
 C    1.2538207875   -0.5866742718   -0.0371389884
 O    2.3006626815    0.0403125654   -0.0353768556
 H    0.9533539921    1.8623927398   -0.0083217109
 H   -0.6404176438    1.8654522744   -0.8161304151
 H   -0.5465030521    1.7741578545    0.9562179700
 H   -1.6637749538   -0.6330974910    1.0190282928
 H   -1.9628982976   -0.2110151087   -0.6668628849
 H   -2.0133205987   -2.7149794057   -0.1611109870
 H   -0.9267741599   -2.2543453748   -1.4736893762
 H   -0.1075936735   -2.7953624452    1.2796442769
 H    2.0760351887   -2.4305332312    0.6223594909
 H    1.5969412579   -2.4143236727   -1.0636099891