13

 N    0.0818591963    1.4025901595    0.1441310479
 C   -0.0396994366    0.0270172038    0.0452024489
 C   -1.1430745139   -0.8261052853    0.0367469517
 N   -2.5144973741   -0.9088354592    0.0330486071
 N   -2.8283442014   -2.1583874608   -0.0001481049
 N   -1.6793287288   -2.9285587450   -0.0244329035
 C   -0.5876082835   -2.1187887769    0.0013272765
 N    0.7362956788   -2.1689483590   -0.0175094752
 N    1.0281757060   -0.8119640948    0.0192672500
 H    0.7923423064    1.8116179339   -0.4490322790
 H   -0.8025729361    1.8747517589    0.0164486448
 H   -1.7670568397   -3.9296119012   -0.0402482956
 H    1.9969432965   -0.5427368239    0.0663355313