23

 C   -0.0311181044    1.5058666703    0.0251199844
 C    0.0069250916   -0.0141990208    0.0299031878
 C    0.7496136554   -0.6634225523   -1.1767234643
 C    1.0589053404   -2.1169113143   -0.6857133896
 C    0.4498570970   -2.1384163754    0.7439511927
 C    0.7604842954   -0.6974565231    1.1972118075
 C   -1.0671129046   -2.1235173144    0.5459520316
 C   -1.9365420794   -1.2046120226    1.3686690789
 C   -1.3611507004   -0.7135583358    0.0634066964
 H    0.9797226808    1.9293142213    0.0188833989
 H   -0.5546245816    1.8879686588   -0.8589937419
 H   -0.5530051911    1.8905331697    0.9080937066
 H    0.1364262720   -0.6454140030   -2.0831172909
 H    1.6711286427   -0.1144987362   -1.3985501201
 H    0.6179410670   -2.8830095377   -1.3304096748
 H    2.1372082722   -2.3022249614   -0.6526041331
 H    0.8316620840   -2.9390404272    1.3814973569
 H    1.8326129927   -0.4780377699    1.1732988956
 H    0.3882339062   -0.4366916262    2.1894718621
 H   -1.5253452062   -2.9884164957    0.0772067979
 H   -2.9975596441   -1.4319590579    1.3537536562
 H   -1.5981424103   -0.8089177926    2.3194486841
 H   -2.0370148154   -0.5260955536   -0.7655055730