14

 N   -0.0038990084    1.1534500701    0.5428615086
 C   -0.0648826699    0.0430664702   -0.0462041275
 O    1.0301244717   -0.4655618774   -0.7303339487
 C    1.1935781416   -1.8001710337   -1.0606995973
 O    2.1944713257   -2.1245264317   -1.6219836514
 C    0.0614448022   -2.7170784437   -0.6593481432
 C   -1.3004104199   -2.0465625224   -0.8779111020
 C   -1.3703030123   -0.7515909752   -0.0967172386
 O   -2.3575716982   -0.3472506967    0.4554007973
 H    0.9351674617    1.5516854475    0.4658290607
 H    0.1676704477   -3.6411366490   -1.2285725127
 H    0.1915184804   -2.9702205700    0.4010252574
 H   -1.4321299077   -1.8114230637   -1.9428201509
 H   -2.1325272846   -2.6849429043   -0.5763189618