23

 C   -0.1271499729    1.5431513578   -0.1398127251
 C   -0.0291566161    0.0253249831    0.0267199528
 O    0.3899622119   -0.5778955667   -1.1962662245
 C    0.8420556672   -0.4731819720    1.2253948561
 C    0.7061500060   -2.0073444628    1.2932715555
 C    2.3211864286   -0.0967772096    1.0167407845
 C    0.2843394167    0.1572107275    2.5327123957
 C    0.8474569325   -0.4380028945    3.8038409742
 O    0.1849891418   -0.9542266471    4.6677827731
 H    0.8594643005    1.9984158984   -0.2865087434
 H   -0.7348082851    1.7662759381   -1.0210033163
 H   -0.5938544288    2.0263106555    0.7221700634
 H   -1.0406016489   -0.3685857924    0.1897318875
 H    1.1396723938   -0.0766577657   -1.5331453657
 H    0.9697659374   -2.4503472514    0.3308693911
 H    1.3577995430   -2.4350291675    2.0621728475
 H   -0.3220215576   -2.2999790396    1.5323833084
 H    2.4776720777    0.9869050736    1.0102629657
 H    2.9544242499   -0.5141505029    1.8047196353
 H    2.6887858136   -0.5028947592    0.0689901635
 H    0.5212031525    1.2298486920    2.5529700775
 H   -0.8045082532    0.0474311922    2.5778599964
 H    1.9532780294   -0.3583557871    3.9139212067