15

 C    0.0220391775    1.4523874641   -0.0399015473
 C    1.3561360512    0.7652564226   -0.0029972303
 O    1.9577082113    0.4792197123    1.2443026394
 C    1.0758728648   -0.3558264759    1.8864198257
 N    0.0132058136   -0.7243329183    1.2882624919
 C    0.0257256101   -0.0476625837    0.0153629120
 C    0.4891130386   -0.7885141999   -1.2681368926
 N    0.7500416044    0.2429200446   -2.2974333912
 C    1.7729094372   -0.0399023533   -1.2622545451
 H   -0.2740776308    1.9538850453    0.8743659665
 H   -0.2683794352    1.9372553655   -0.9623739186
 H    1.3644463400   -0.6214457219    2.8973216042
 H    0.2465807303   -1.8111974624   -1.5266180217
 H    1.0405539787   -0.2427092227   -3.1450819226
 H    2.7845457783   -0.3242160065   -1.5215062901