20

 C   -0.0295565918    1.4461598347   -0.4105313854
 C   -0.0103396530   -0.0100524124    0.0769430712
 O    0.5470650839   -0.0902784653    1.3614580908
 C   -1.4260268820   -0.6142970036    0.1263316399
 O   -1.9128006447   -0.9259761956    1.2067508027
 N   -2.0621992950   -0.7669309225   -1.0558593985
 C   -3.4133735090   -1.2826639937   -1.1813763664
 C   -4.2508791524   -0.3769664008   -2.0714620686
 O   -3.5870782283   -0.3084650762   -3.3286978406
 H    0.9831276141    1.8539501362   -0.3583544170
 H   -0.3821212826    1.5312558379   -1.4439630019
 H   -0.6762353042    2.0508449491    0.2323803299
 H    0.5912302985   -0.6121935429   -0.6236497117
 H   -0.1768421215   -0.4275272483    1.9178750230
 H   -1.6113240513   -0.4813547501   -1.9108283324
 H   -3.3965559305   -2.2921468380   -1.6122701519
 H   -3.8374325279   -1.3467121422   -0.1776794972
 H   -5.2628550986   -0.7967419651   -2.1717057853
 H   -4.3345810801    0.6186306904   -1.6115347795
 H   -4.0304555637    0.3454033384   -3.8763227609