15

 O   -0.1123931333    1.3725974900    0.0815596202
 N    0.0261362968   -0.0295989105    0.0756109925
 C   -1.1178122828   -0.5956367332    0.0008873401
 C   -2.4700039595   -0.0766840221   -0.0575364986
 C   -3.3162912673   -1.1266145869    0.0023085142
 N   -2.6835368335   -2.3479720165    0.1809904054
 C   -1.2236786738   -2.1318996635    0.0105589387
 C   -0.7226635851   -2.7593523410   -1.2087954266
 C   -0.3329973834   -3.3023508948   -2.2071923182
 H    0.8035142076    1.6627757575    0.1398301744
 H   -2.7287020257    0.9677146637   -0.0940847860
 H   -4.3987178693   -1.1060325219   -0.0267964399
 H   -3.0625940740   -3.1456673310   -0.3104732134
 H   -0.6869951737   -2.5384594355    0.8745731451
 H    0.0261329871   -3.7660396145   -3.0926944580