20

 C   -1.0264797414    1.2993073860   -0.5751504681
 C   -0.5178282565   -0.1394381110   -0.4600467992
 C    0.8883916798   -0.3224283051   -1.0503279084
 C    1.3842621550   -1.7392732217   -0.9097151112
 O    0.8242114156   -2.7421836511   -1.7736086742
 C    2.2209176112   -2.4501352501   -1.8975810919
 C    2.7049841918   -1.8211736158   -3.1842608379
 N    1.7190748834   -1.5643409332   -4.0860664876
 O    3.8840495780   -1.5843987321   -3.3590497050
 H   -0.3666398872    1.9971381649   -0.0478208238
 H   -1.0758699161    1.6197717254   -1.6216651730
 H   -2.0288146094    1.4011016470   -0.1482505130
 H   -0.5117624675   -0.4452752197    0.5943845814
 H   -1.2077729608   -0.8215233020   -0.9713725324
 H    0.8944825928   -0.0282355526   -2.1043190617
 H    1.5968162780    0.3379222468   -0.5321449521
 H    1.4820655205   -2.0839112149    0.1222165065
 H    2.8982510874   -3.2210703199   -1.5335883065
 H    0.7919080834   -1.9175066362   -3.9156634778
 H    1.9768641119   -1.2368962246   -5.0021912239