17

 C   -0.0168440234    1.3718638090    0.0175378223
 O    0.0169927535   -0.0546173300   -0.0275551127
 C    0.6311953385   -0.5700770177   -1.0997520827
 N    1.1918102437    0.0798745950   -2.0935177828
 C    1.6701601026   -0.9124585243   -2.9216317350
 O    2.3234453050   -0.6486660992   -4.0719547596
 C    2.4927689088    0.7246790374   -4.3940899277
 C    1.3991724263   -2.1586178798   -2.4300962766
 N    0.7163371099   -1.9107054545   -1.2319701440
 H    0.9965235974    1.7839817934    0.0317784004
 H   -0.5470800869    1.7752622158   -0.8502257017
 H   -0.5438816398    1.6268348643    0.9375153873
 H    3.0336556163    0.7431740319   -5.3420559995
 H    1.5283759039    1.2319370494   -4.5056544522
 H    3.0708451374    1.2483264220   -3.6251075117
 H    1.6096253455   -3.1498959113   -2.7867818821
 H    0.3522038513   -2.5889993215   -0.5861049019