18

 C    0.8845070924   -0.9133639185    0.9007358835
 N    0.1178876149   -0.5972868910   -0.2971298143
 C   -1.3170964293   -0.7870622570   -0.1800804259
 C   -1.9705855818   -0.1027253858    0.9531266719
 C   -2.4787341587    0.4871536246    1.8700851088
 C   -1.9948482217   -0.2692654365   -1.4632260522
 O   -1.5045687159    0.6162938027   -2.1245175137
 C   -3.3133932437   -0.8950723664   -1.8736899933
 O   -3.8768773956   -0.2409952172   -2.9699726914
 H    1.9411653136   -0.7147429115    0.7030613074
 H    0.5819532437   -0.3480763497    1.7960015351
 H    0.7844284494   -1.9809771913    1.1285044784
 H    0.2902318034    0.3513991990   -0.6123079795
 H   -1.5250286233   -1.8635993035   -0.0923568366
 H   -2.9300115533    1.0003884357    2.6836496985
 H   -3.1114339276   -1.9595781277   -2.0920547212
 H   -3.9938700656   -0.8808468706   -1.0088854555
 H   -3.2101391108    0.4006474348   -3.2597529700