15

 N   -0.0548626998    1.4188730181   -0.4426217978
 C   -0.0197131742    0.1518916733    0.2788182176
 C   -1.3867936672   -0.4980882734    0.1977672766
 O   -1.7166725950   -1.1036948758   -1.0561081870
 C   -1.5625150121   -1.9739521139    0.0743523090
 C   -0.4531304337   -2.8870507390    0.0855811557
 C    0.4395876325   -3.6910705187    0.1135990755
 C   -2.4748393772    0.2442102693    0.8169711214
 N   -3.3349697778    0.8060190733    1.3453256453
 H    0.7948203687    1.9455067805   -0.2750263573
 H   -0.1104973894    1.2471519125   -1.4415759639
 H    0.7165151540   -0.5782512473   -0.0858010997
 H    0.2057715895    0.3536604275    1.3318917134
 H   -2.5023628020   -2.3831512434    0.4420583388
 H    1.2332674037   -4.3974563930    0.1345889024