15

 N    0.0490950580    1.1668860971   -0.4658967833
 C    0.0643500455   -0.0395114001   -0.0942456637
 N    0.9981585477   -0.9625242350    0.3810570038
 C    0.0710229751   -2.1109996143    0.3893966331
 C   -1.0196182495   -1.1007839423   -0.0230130450
 O   -2.2782437599   -0.9625080126    0.5659375219
 C   -2.2357452577   -1.2827404871   -0.8393074596
 C   -2.6844822757   -0.1906231121   -1.7626474065
 O   -3.1352120234   -0.4171295887   -2.8568861748
 H    0.9708476197    1.6031557765   -0.4224628378
 H    1.9808957497   -0.9906457261    0.1542859240
 H    0.2839153352   -2.8841256712   -0.3561701440
 H   -0.0671581604   -2.5638408456    1.3750185421
 H   -2.5475587170   -2.2914961856   -1.1060724896
 H   -2.5586890975    0.8293081872   -1.3517125207