14

 N    0.0005311569    1.3759627006    0.1512358960
 C   -0.0116627337    0.0050840070    0.0582626911
 C   -1.2211533073   -0.7136947741    0.0477389394
 C   -1.1601650525   -2.1016981801    0.0022784965
 C    0.0878824518   -2.7411281754   -0.0264129124
 C    1.2144254113   -1.9316419507   -0.0134237946
 N    1.1841768879   -0.5984392205    0.0229415460
 C   -2.3688586643   -2.8705825245   -0.0142129011
 N   -3.3441535649   -3.4931010700   -0.0288243520
 H    0.8851339211    1.8056035152   -0.0716612934
 H   -0.8161048831    1.8806443184   -0.1517809211
 H   -2.1759703602   -0.2028271581    0.0787248762
 H    0.1645444113   -3.8193893181   -0.0621724297
 H    2.2045865359   -2.3801160896   -0.0383380210