16

 C   -0.0769364950   -1.2090648965   -0.3128827181
 C   -0.0296408358   -0.0220047629   -0.1196234598
 C    0.0186669054    1.3868392532    0.1148052060
 C    0.3634595279    2.3465332878   -1.0314338778
 C    1.3137685785    2.1869849134    0.1177555189
 O    1.3044300917    3.1223781440    1.1536067050
 C   -0.0492370118    3.3052795744    1.5751558812
 C   -0.7937191740    1.9890075715    1.2626146593
 H   -0.1162725152   -2.2560558357   -0.4835295090
 H    0.6435929701    1.8826157265   -1.9699318735
 H   -0.2106051925    3.2614642970   -1.1310772872
 H    2.2850406775    1.7282209001   -0.0192715591
 H   -0.0358056338    3.5548032984    2.6389610175
 H   -0.5014632224    4.1486046347    1.0359544744
 H   -1.8423117843    2.1641697163    1.0068233800
 H   -0.7612324463    1.3021591480    2.1130531523