18

 O    0.0372381354    1.4196784425   -0.1313545410
 C    0.0004514644    0.0147618795   -0.0216295974
 C   -1.4158820169   -0.4755893773    0.0594731783
 C   -2.4743796383    0.3415165653    0.0811595572
 C   -3.8698328915   -0.1602176496    0.0856248754
 O   -4.8355607554    0.5709841640   -0.0545653637
 N   -4.0008443066   -1.5270154797    0.2188820040
 C   -2.9228817107   -2.3484365020    0.7484001335
 C   -1.6061070042   -1.9737015980    0.0668726218
 H    0.9566419399    1.6986186532   -0.1513133981
 H    0.4893930088   -0.4760320412   -0.8833244429
 H    0.5420329177   -0.3375717666    0.8751016153
 H   -2.3625910368    1.4168480614    0.0412345739
 H   -4.9524585602   -1.8274659027    0.3727982265
 H   -2.8155939250   -2.2179561831    1.8374702340
 H   -3.1599907810   -3.4009418122    0.5675490625
 H   -1.6008135377   -2.3426029110   -0.9687279970
 H   -0.7742063619   -2.4703270425    0.5799495373