22

 C   -0.3772528624    1.7597967102    0.3447981375
 C   -0.0079749207    0.2755643209    0.2585539476
 C   -1.1577616664   -0.6225837705   -0.2060255367
 C   -1.6659271925   -0.3482249092   -1.6503628690
 C   -2.0608341474   -1.7168189887   -2.1458705790
 C   -1.6097529725   -2.6993869792   -1.3630691522
 C   -1.7675848136   -4.1726550708   -1.5694192232
 C   -0.8262432799   -2.1380253147   -0.1940578620
 H    0.4685917424    2.3600294559    0.6945520140
 H   -0.6827051858    2.1547095253   -0.6298442947
 H   -1.2087005059    1.9196400752    1.0407795046
 H    0.8428316921    0.1470082661   -0.4249739543
 H    0.3390886693   -0.0680284884    1.2419828098
 H   -2.0075959813   -0.4684453806    0.4721801253
 H   -2.4908892452    0.3731757987   -1.6744822535
 H   -0.8690771722    0.0803078553   -2.2786062692
 H   -2.6173657512   -1.8691257117   -3.0655065233
 H   -2.3430694805   -4.3963355229   -2.4721058745
 H   -0.7914956185   -4.6677658985   -1.6577123724
 H   -2.2746768549   -4.6422231853   -0.7165109828
 H    0.2513119216   -2.3155238905   -0.3382867286
 H   -1.0844409742   -2.6142654664    0.7602446165