16

 O    0.1280556322    1.3640174375    0.0540418420
 C    0.0014405408   -0.0440769874    0.1162075902
 C   -1.4118296773   -0.5151701229    0.0817690600
 C   -2.5740186075    0.1443650432    0.1065465873
 C   -3.5843166687   -1.0128702437    0.0030177036
 C   -3.0221623479   -2.0178884805    1.0531909694
 C   -1.9061350719   -1.9777095461   -0.0325051751
 O   -2.9682223742   -1.8545028101   -1.0337081907
 H   -0.3037799272    1.6519847358   -0.7574980686
 H    0.5740135092   -0.5398010027   -0.6876986797
 H    0.4824290128   -0.3463582149    1.0565268128
 H   -2.7825077762    1.2001657125    0.1893079645
 H   -4.6437080924   -0.8100154696   -0.1457747101
 H   -2.7965101794   -1.6573157369    2.0589122031
 H   -3.5617311776   -2.9677914074    1.0629746307
 H   -1.1965866945   -2.7846646568   -0.2153828493