19

 C   -0.1551256856    1.5519546544   -0.0427681620
 C    0.1235432075    0.0664802079   -0.0302901168
 O    1.3915234700   -0.2647530152   -0.7093398085
 C    1.9055537000   -0.8365296252    0.4262105123
 N    3.0362479054   -1.3374401116    0.6512220772
 C    0.6652573117   -0.6056424992    1.2678523638
 C    0.8097582004    0.2158063881    2.5287249799
 C    1.8792957758   -0.0825866682    3.5121536954
 N    1.9145310947    1.1678089565    2.7284421734
 H    0.6331636212    2.1141167367    0.4630815883
 H   -0.2398819938    1.9089118920   -1.0733456004
 H   -1.1029099102    1.7575354127    0.4659554666
 H   -0.6854066548   -0.4935974819   -0.5088103441
 H    3.6317927943   -1.3002693335   -0.1783348713
 H    0.1432959822   -1.5402391505    1.4964481735
 H   -0.1401593014    0.5857823477    2.9116068137
 H    1.6854783809    0.0441707312    4.5733539388
 H    2.5930719327   -0.8584084102    3.2514261489
 H    2.6043913990    1.0531162981    1.9879854311