21

 C   -0.4670710113    1.5208746236   -0.0201448224
 C   -0.0139993008    0.0675443382   -0.0497039865
 C    1.2438268240   -0.3008046901   -0.9634686097
 C    2.0075831453   -0.4899025075    0.3486063224
 C    2.8668528216   -1.1046155350    1.4733194957
 C    1.8798386736    0.0056117729    2.0654712436
 C    1.8769641049    0.5960134675    3.4446127687
 O    2.2734393829    0.8633696192    0.9433498642
 C    0.7345414253   -0.5909542205    1.1865194828
 H    0.3650571489    2.1879225281    0.2055207831
 H   -0.8978703147    1.8095586117   -0.9861577705
 H   -1.2423593085    1.6645617118    0.7409439727
 H   -0.8683072830   -0.5669988090   -0.3038936601
 H    1.0856825433   -1.2292976001   -1.5176903918
 H    1.6346280569    0.4696140572   -1.6328820693
 H    2.6826463975   -2.1526231392    1.7252273416
 H    3.9238507698   -0.8329045422    1.5118443415
 H    2.8740468765    0.9636594312    3.7069667743
 H    1.1725549362    1.4315844949    3.4962283635
 H    1.5773594659   -0.1564095888    4.1805483242
 H    0.3615947060   -1.5797085438    1.4626746320