21

 C    0.3670117944    1.4259098518   -0.2844344284
 C   -0.0918364493    0.0242530781    0.0608557597
 C   -1.5964241990   -0.1775984355   -0.1072686539
 N   -2.2648125341   -1.2826333656    0.5819136380
 C   -1.9195453100   -2.6720144159    0.2989878250
 C   -1.5567766160   -2.0483977130    1.6057407905
 C   -0.1219163768   -1.7284149330    2.0028819641
 C    0.6232031248   -0.7637031705    1.0999648670
 N    0.8642927055   -1.0325175255   -0.3312806629
 H    1.4558259988    1.4925048758   -0.2239006473
 H    0.0717813661    1.6925851870   -1.3063527281
 H   -0.0700504459    2.1657035867    0.3954399641
 H   -2.0816137270    0.7416734964    0.2464971492
 H   -1.8379901025   -0.2549679728   -1.1756233016
 H   -2.7675123356   -3.3512353783    0.2341401432
 H   -1.1268493189   -2.9074281441   -0.4066843033
 H   -2.1848716898   -2.3036850427    2.4583762373
 H   -0.1451658422   -1.2779792053    3.0031252342
 H    0.4509150202   -2.6594498637    2.1112817196
 H    1.4826589116   -0.3020652825    1.5844085319
 H    0.3877702657   -1.8763978274   -0.6299358683