20

 C    0.0534212453    1.4070891570    0.0543861299
 N   -0.2611140034    0.0140293555   -0.1817057935
 C    0.5162083448   -0.6370829575   -0.9246092506
 O    0.3034030099   -1.9496967656   -1.1604811219
 C    1.1456307611   -2.5799658933   -2.1225732235
 C    0.7888510759   -2.1549853168   -3.5388305111
 C    2.6622239504   -2.6363029217   -1.7957691037
 O    2.6492029792   -4.0740615190   -1.8661335526
 C    1.2062609217   -4.1016593090   -1.8931537441
 H    0.9585030010    1.7590300497   -0.4682899760
 H   -0.7899252914    2.0325029100   -0.2597294008
 H    0.1908217481    1.5764010893    1.1284981717
 H    1.4105680454   -0.2189439761   -1.4124738946
 H    0.9673867091   -1.0857237415   -3.6915565166
 H    1.3946043668   -2.7081187333   -4.2624275750
 H   -0.2678291177   -2.3581328941   -3.7366530927
 H    3.3490574904   -2.1919194380   -2.5247914999
 H    2.9051470020   -2.2730973800   -0.7885011520
 H    0.7743323889   -4.3996687340   -0.9305197586
 H    0.8187598925   -4.7412001717   -2.6932408845