14

 O    0.1831279418    1.2182690529   -0.5620830567
 C    0.0552649999   -0.0564318627    0.0353732964
 C    0.5077770657   -0.1113775924    1.5120411242
 C   -0.3306754593   -1.2121712543    2.1455180235
 O   -0.1119676535   -1.8404542750    3.1435674205
 C   -1.5769009484   -1.4148075603    1.2221823762
 O   -2.4513449835   -2.2100286961    1.4272477260
 C   -1.4311366452   -0.4435775715    0.0620395344
 H    1.1201885973    1.4241099722   -0.6446892285
 H    0.6138259430   -0.8109214733   -0.5394508127
 H    1.5780056444   -0.2677484167    1.6652025168
 H    0.2318412123    0.8393392850    1.9899250666
 H   -2.0133622922    0.4587737957    0.2969324455
 H   -1.8140418122   -0.8498408634   -0.8753543322