15

 C   -0.0471670849    1.5193605808    0.0825963119
 C    0.0070523100    0.0343916262   -0.0322799309
 C   -0.0143395490   -0.8416990656   -1.1012168134
 C   -0.1035668577   -0.4812387003   -2.5107369105
 O   -0.1202354055   -1.2570108205   -3.4395485624
 N    0.0632500143   -2.1630514742   -0.6589213937
 C    0.1285565059   -2.0694988229    0.6309913251
 O    0.2168164308   -3.0665409647    1.5216377404
 N    0.1001952624   -0.7782457867    1.0816584141
 H    0.8495888434    1.9190208000    0.5714784470
 H   -0.1199097073    1.9789971073   -0.9036291435
 H   -0.9147513011    1.8470967422    0.6680879216
 H   -0.1587673769    0.6176376063   -2.6874404012
 H    0.2221343611   -3.8871841026    1.0116200872
 H    0.1376815744   -0.4874319353    2.0450643186