10

 O   -0.2237188245    0.1726128043    0.6867096016
 C   -0.0220951479    1.1493647259    0.0040325311
 C    1.2115206097    1.8953122755    0.0157364265
 C    2.2427850845    2.5382332888    0.0093760078
 C    3.3894891389    3.2519549963    0.0024290243
 C    4.4207522074    3.8948803465   -0.0036958429
 C    5.6540124400    4.6410240477   -0.0305525913
 O    5.8680183453    5.6112131147    0.6576906464
 H   -0.7841633825    1.5496260559   -0.6931054265
 H    6.4033287292    4.2475226644   -0.7451435071