18

 C    0.0185871397    1.4579373201   -0.2606596742
 C    0.0283911423   -0.0023492085    0.1976924054
 O    0.6091774078   -0.1339638565    1.4917187337
 C   -1.3570132790   -0.6155551550    0.1493864729
 C   -1.9249181746   -1.1527057995   -1.1320288016
 C   -1.5547079786   -2.1167895059   -0.0127808073
 C   -0.4389115457   -3.0038139069   -0.1689699135
 C    0.4840865228   -3.7634459738   -0.3046600188
 H    1.0253754630    1.8791051068   -0.1958054959
 H   -0.3358460132    1.5481489206   -1.2921233257
 H   -0.6454195539    2.0599553974    0.3729343987
 H    0.6878756656   -0.5836793075   -0.4558218547
 H    0.0839717494    0.3932412068    2.1040278996
 H   -2.0691529927   -0.1393734621    0.8219143695
 H   -2.9773640162   -1.0059361184   -1.3467905141
 H   -1.2815300541   -1.1586288147   -2.0052693677
 H   -2.3882228113   -2.5383356294    0.5417553911
 H    1.3047304486   -4.4280580334   -0.4126798473