19

 C    0.1060534789    1.5312606691   -0.1510481278
 C   -0.0751434572    0.0253337576    0.0861488666
 C    0.7025078314   -0.4776236937    1.2698388679
 C    2.1440080589   -0.9161306657    1.2280000379
 C    1.0821302259   -1.8732682510    1.7056185097
 N    0.5247328327   -1.6843075769    3.1062475254
 C    1.2057430498   -0.5650057473    3.7864628619
 C    0.2231587915   -0.2595756289    2.7257568288
 H    1.1553361513    1.7733458733   -0.3483912913
 H   -0.4876829748    1.8711660592   -1.0051432988
 H   -0.2076923253    2.1099394872    0.7245113923
 H   -1.1410932627   -0.1973978825    0.2302869573
 H    0.2354006750   -0.5296260682   -0.8075657068
 H    2.4905683745   -1.1542506246    0.2257237602
 H    2.9236663267   -0.5010707378    1.8570258035
 H    0.9070356487   -2.8359015576    1.2410879093
 H    0.8628398659   -0.4538453802    4.8117682428
 H    2.2688943482   -0.3962046044    3.6610617717
 H   -0.7523658898    0.1673961326    2.9421391894