19

 C   -0.0206871418    1.5569311373   -0.0371213066
 C    0.0791035043    0.0266289029    0.0189395176
 C    0.7457260167   -0.5126464524   -1.2773082961
 C    0.7535687528   -1.9706781816   -1.3427355086
 N    0.7419801694   -3.1252921277   -1.3820132587
 N    0.7427933835   -0.4519376482    1.2210685945
 C    2.0958870030   -0.0230557801    1.5415445888
 C    0.1028516676   -1.3144531543    2.0751479042
 O    0.5621462397   -1.7494987909    3.1068452685
 H    0.9616450437    2.0250586630   -0.1510751588
 H   -0.6375618296    1.8665081931   -0.8858409177
 H   -0.4788848741    1.9396493911    0.8783380960
 H   -0.9362062290   -0.3824891425    0.0530687922
 H    0.2049632539   -0.1237653823   -2.1468085782
 H    1.7743118864   -0.1447311940   -1.3587946080
 H    2.1486211606    1.0583049744    1.7054931527
 H    2.3835223949   -0.5362157328    2.4590545698
 H    2.8016163027   -0.2937396344    0.7484942949
 H   -0.9101251447   -1.5734033207    1.7120872935