17

 O    0.5452189857    0.6746848317    0.7931839916
 C   -0.0344688861    0.2950535399   -0.4366312930
 C   -1.3845628346   -0.3897710229   -0.2142884616
 O   -1.9256033555   -0.9417278914   -1.4478744196
 C   -1.7673087542   -2.2956519571   -0.9530811718
 C   -1.3300031429   -1.7842239152    0.4370675521
 O   -0.0399504936   -2.1463359810    0.8914811348
 C   -2.4093225767    0.5644291814    0.3806380171
 O   -2.9457150795    0.4117986833    1.4461409121
 H    0.7226761211   -0.1508480210    1.2622865841
 H   -0.1817588369    1.2067370623   -1.0268679240
 H    0.6081323874   -0.3775813521   -1.0211378175
 H   -2.7039430098   -2.8602547961   -1.0067455831
 H   -0.9733087504   -2.8329542807   -1.4842319265
 H   -2.0808127877   -1.8997336206    1.2225401529
 H   -0.1247945237   -2.8356270061    1.5557713387
 H   -2.6572485725    1.4201512357   -0.2859248162