19

 C    0.0296554725    1.3772253862    0.1473427972
 O   -0.0763277579   -0.0146884898   -0.0704795764
 C    0.6441619106   -0.4961712269   -1.1882992851
 C    2.1270920799   -0.7328350638   -0.8666356641
 O    2.7974444570   -1.2525070568   -2.0013413430
 C    2.3505873926   -2.5464626344   -2.3617495238
 C    0.8401621392   -2.6123457959   -2.5986221047
 O    0.3635845342   -3.2874983433   -3.4783586140
 C   -0.0042877780   -1.8174652108   -1.6130053737
 H    1.0525321192    1.6909960896    0.3996093508
 H   -0.3004244299    1.9488278856   -0.7330150138
 H   -0.6233688088    1.6180980389    0.9893702496
 H    0.5869986783    0.2257354009   -2.0186630247
 H    2.6348163181    0.2012274817   -0.6137519650
 H    2.2093729622   -1.4153131646   -0.0040767839
 H    2.8685156713   -2.8317929012   -3.2790656933
 H    2.6037170398   -3.2820102510   -1.5755416837
 H   -0.1062479054   -2.4340257246   -0.7077253526
 H   -1.0057018750   -1.6730142396   -2.0239740259