19

 O    0.0363104291    0.0456572706   -0.5158211953
 C    0.0081817299    1.1899906193   -0.1349474190
 C   -1.2574613506    2.0109171331    0.1447512887
 C   -0.7909475433    3.3113712533    0.8321965184
 C   -0.7341510932    3.1539363753    2.3676922011
 C    0.5450164464    2.3213693846    2.6280794336
 C    1.4563850896    2.6760306425    1.4501009801
 C    0.7017413002    3.4709617409    0.4287554204
 C    1.1922803600    2.0876545796    0.0569835362
 H   -1.7030576130    2.2275929648   -0.8342262900
 H   -1.9931970611    1.4319125138    0.7097114520
 H   -1.3979408336    4.1663226259    0.5298481445
 H   -0.6219851961    4.1422292408    2.8271260832
 H   -1.6395413234    2.6994818575    2.7822079271
 H    1.0159795236    2.5866726819    3.5785276812
 H    0.3324116439    1.2474870080    2.6731057212
 H    2.5015606173    2.8874623701    1.6463087060
 H    1.0765913084    4.3726299264   -0.0389893473
 H    2.0596078358    1.9108576515   -0.5681190522