19

 O   -0.1050004812    1.4314599612    0.2778961156
 C   -0.2741517694    0.1900303743   -0.3758768906
 C   -1.3789835000   -0.6159335644    0.2822914534
 C   -1.4217568196   -2.1333901229    0.0209467019
 C   -1.1256799393   -2.2630678781    1.5357846957
 O   -1.0592295470   -0.8278123422    1.6882810272
 C   -2.2202469207   -2.8824945643    2.3672564850
 C   -2.8554116561   -2.1545034121    3.4713278860
 O   -3.5189595376   -2.3146416927    2.2120832969
 H    0.0000125624    1.2237380055    1.2145788397
 H   -0.5318046486    0.4043086858   -1.4194663120
 H    0.6583754655   -0.3993441650   -0.3724713637
 H   -2.3393313777   -0.0970324769    0.1895927605
 H   -2.3891750344   -2.5274536161   -0.2891426390
 H   -0.6364820342   -2.5072205988   -0.6388410333
 H   -0.1679455805   -2.7375769974    1.7883059148
 H   -2.2019803178   -3.9741603913    2.3981460551
 H   -3.2899857352   -2.7083136753    4.3018513409
 H   -2.5223126086   -1.1426735095    3.6849886559