21

 C    1.4279083279    0.8447823088   -0.1856939435
 C    0.0238059025    0.3074576473    0.1191872744
 N   -0.5314170937   -0.4840721131   -0.9828760067
 C    0.2323092829   -1.5931330280   -1.5405381685
 C    0.5451153757   -2.7615124389   -0.5951278820
 N    1.3556289638   -2.3288976895    0.5418978323
 C    0.6049780598   -1.7948670924    1.6673967647
 C   -0.0266042227   -0.4056814609    1.4808680658
 O   -0.6076613604    0.0910471094    2.4200485013
 H    2.1745871206    0.0487217338   -0.1848481394
 H    1.4268189466    1.3346299598   -1.1643117464
 H    1.7096670972    1.5837436314    0.5698845524
 H   -0.6464792416    1.1643889917    0.2491294410
 H   -1.4767903366   -0.7747957620   -0.7590392239
 H   -0.3317222215   -1.9755401617   -2.4001849264
 H    1.1774595450   -1.2018566779   -1.9307938408
 H   -0.4008553221   -3.2379761884   -0.2720582415
 H    1.1092966929   -3.5184708363   -1.1526323261
 H    1.9283827671   -3.0969050055    0.8674195256
 H   -0.2216052183   -2.4540817489    1.9947544533
 H    1.2758955248   -1.6996240086    2.5276334046