14

 N    0.0386662153    1.0912422386   -0.5221270004
 C   -0.0082610738   -0.0711965221   -0.0703481369
 O    0.9930079794   -0.9071667659    0.4189998997
 C    0.0658826682   -1.9948662400    0.6333808516
 C   -0.6378608307   -1.9211190945    2.0020604941
 O   -1.6591726523   -1.0322179449    1.4895491205
 C   -1.1162721750   -1.0864555555    0.1619892495
 C    0.4708560882   -3.3007697585    0.0243960000
 O    1.4328388950   -3.4530723048   -0.6786010543
 H    0.9849808999    1.4754830215   -0.5013005222
 H   -1.0761520639   -2.8690049919    2.3358144199
 H   -0.0379426137   -1.4747992144    2.8000983780
 H   -1.8537236499   -1.2817013475   -0.6161197850
 H   -0.2219524867   -4.1360551502    0.2725576654