21

 C    0.1756673738    1.4080512329   -0.0323217266
 O    0.0663595317    0.0037240868   -0.1647943657
 C   -1.2330667784   -0.5414484197   -0.0120805678
 C   -1.2423257141   -1.8711654150   -0.7699849521
 C   -0.9578951928   -1.7138914260   -2.2655723591
 O   -1.0287448432   -2.9494199299   -2.9625208446
 C   -1.6006206100   -0.7631036272    1.4797510200
 C   -1.9831745079    0.4371631205    2.2135166009
 C   -2.3333983803    1.4161536855    2.8178432003
 H    1.1904369995    1.6735395513   -0.3405952550
 H   -0.5401483497    1.9301121309   -0.6849930969
 H    0.0135371081    1.7450432242    0.9975847745
 H   -1.9757112524    0.1397728311   -0.4584688617
 H   -0.4872826823   -2.5325218765   -0.3224674188
 H   -2.2151399169   -2.3591436050   -0.6453074798
 H   -1.7210622279   -1.0738344403   -2.7234408185
 H    0.0119767553   -1.2205834619   -2.4080177277
 H   -0.2925528179   -3.4941084601   -2.6667681674
 H   -2.4302073491   -1.4794806593    1.5287863153
 H   -0.7412587659   -1.2444100506    1.9624309344
 H   -2.6342444093    2.2827476384    3.3525009964