17

 C   -0.0437501019    1.4485848312    0.0017429874
 N   -0.0409320450   -0.0025789709    0.0261390991
 C   -0.2450164233   -0.8393224812   -1.0422448977
 N   -0.1821702378   -2.1013161348   -0.7033196478
 C    0.0756991995   -2.0990227130    0.6534986188
 C    0.1649498094   -0.8028060694    1.1146503031
 C    0.2281682017   -3.3223681861    1.4637391421
 C    0.0886458837   -4.6446730132    0.7380892556
 O    0.4551286878   -3.2517148760    2.6575476429
 H    0.9239722162    1.8434939058    0.3235788947
 H   -0.2372109648    1.7849036131   -1.0182967172
 H   -0.8249530674    1.8456846537    0.6559994903
 H   -0.4328501991   -0.4509893168   -2.0331029751
 H    0.3526232231   -0.4099070544    2.0996147678
 H    0.8265347346   -4.7147394905   -0.0673569365
 H    0.2222090752   -5.4619733150    1.4474372785
 H   -0.8932182819   -4.7124370827    0.2590524941