18

 C    0.3319857652    0.9005108143   -0.4306072955
 N   -0.2414876951   -0.1525985817    0.3807408465
 C    0.5526989625   -0.9508619174    0.9346810637
 O    0.0733851617   -1.9715631581    1.6933062725
 C    1.0286681759   -2.7069214715    2.3965365694
 C    0.7122987558   -4.1433172480    2.6139192446
 C    1.8545938200   -3.7694439094    1.6707359594
 C    1.7180855262   -3.9562909414    0.2585964494
 C    1.6211599021   -4.1014712149   -0.9314137181
 H    1.4338966275    0.8963171351   -0.4600789309
 H   -0.0387807876    0.8145158930   -1.4583299638
 H    0.0004916276    1.8748290563   -0.0539855118
 H    1.6492787754   -0.9160007635    0.8666137061
 H    1.5295619161   -2.1520588607    3.1869256436
 H    0.9637620370   -4.5985501435    3.5643828899
 H   -0.1945909934   -4.5053851876    2.1452338409
 H    2.8587353677   -3.9128317890    2.0600808063
 H    1.5246728055   -4.2346577419   -1.9803301323