15

 C   -0.0405228161    1.5968914398   -0.0488676553
 C    0.0903220171    0.0747870482    0.0688220584
 C    0.7252158353   -0.5521334693   -1.1731314700
 C    0.7006731029   -2.0846877764   -1.3366316174
 O   -0.1116329990   -1.9548940086   -2.5487591666
 C   -0.1414095172   -0.5865777427   -2.4386312674
 O   -0.7071410568    0.1860611078   -3.1441713545
 H    0.9426520920    2.0707026626   -0.1432627053
 H   -0.6282162071    1.8691191690   -0.9297493380
 H   -0.5296950163    2.0153049245    0.8353282462
 H    0.6976241361   -0.1867437348    0.9439974270
 H   -0.8978820270   -0.3734410924    0.2316180887
 H    1.7062340741   -0.1091008075   -1.3716328206
 H    1.6510965060   -2.5737877591   -1.5583153338
 H    0.1545628858   -2.6354859310   -0.5670120213