23

 C    0.0046702535    1.5600053171    0.0448280192
 C    0.0429419044    0.0224106151   -0.0239676972
 C    0.7027224452   -0.4807295835   -1.2247772371
 C    1.2626977787   -0.8649324854   -2.2190741220
 C    1.9042357243   -1.3665901860   -3.4425065195
 C    1.9203582855   -2.9091002584   -3.4105043788
 C    1.1261897784   -0.8529332318   -4.6720176339
 O    3.2367067284   -0.8264325718   -3.4069318479
 C    4.1058888573   -1.1711310484   -4.4626797194
 H    1.0167720083    1.9731712788    0.0366924284
 H   -0.5344436372    1.9737639227   -0.8116925128
 H   -0.4961535847    1.8890238821    0.9603654095
 H    0.5536153282   -0.3715082084    0.8642036070
 H   -0.9806094923   -0.3720814691    0.0192552673
 H    0.9029155020   -3.2896081595   -3.2907240776
 H    2.3277938597   -3.3212758675   -4.3383227622
 H    2.5236621907   -3.2593824384   -2.5695088562
 H    1.1710624817    0.2379928560   -4.7128584211
 H    1.5355511412   -1.2617100449   -5.6004606688
 H    0.0783827495   -1.1560087964   -4.6037118689
 H    4.3128408960   -2.2492496500   -4.5121743839
 H    3.7392137152   -0.8429024907   -5.4454121577
 H    5.0467063561   -0.6527232817   -4.2599053765