15

 C    0.0292002100    1.4535941591   -0.0883658567
 C    0.0042995937   -0.0382479413   -0.0072254945
 O    0.5612871594   -0.8196757750   -1.1159716698
 C    0.0985651090   -1.8160168638   -0.1608315826
 C    0.5380338044   -1.0144908702    1.1002321388
 C   -0.8553060045   -1.1461089135    1.7517592618
 C   -1.1838144664   -1.0321272420    0.2476648698
 H    1.0582993106    1.8156997518   -0.1743153570
 H   -0.5329616747    1.7995287796   -0.9612088335
 H   -0.4190379621    1.8915774711    0.8090705386
 H    0.2272448666   -2.8713508145   -0.3988809319
 H    1.5298275255   -1.0031418768    1.5529912565
 H   -1.0815385281   -2.1037717031    2.2284749306
 H   -1.1798134226   -0.3194783111    2.3900325876
 H   -2.1451506209   -1.0407756104   -0.2666627079