16

 C    0.0365226224    1.4794739643   -0.0028930659
 C    0.0249013753    0.0257200611   -0.0160423847
 C   -0.0038262051   -1.1778220452   -0.0165982536
 C   -0.0055759372   -2.6176022066   -0.0430426075
 C    1.2159796950   -3.2816597377   -0.6428268925
 O   -0.5394701960   -3.2693894298    1.1279888901
 C   -1.3055525517   -3.3511940511   -0.0682727079
 C   -2.5712769978   -2.6510357577   -0.0929534783
 N   -3.5954167032   -2.1182797948   -0.1438907934
 H    0.7572392009    1.8751191407   -0.7263204908
 H   -0.9504803531    1.8811665918   -0.2546749435
 H    0.3116724410    1.8598453344    0.9866146449
 H    2.1062649890   -2.9970061857   -0.0753567874
 H    1.1150314523   -4.3691688482   -0.6131472817
 H    1.3541989020   -2.9595770217   -1.6786191942
 H   -1.3330394340   -4.3332925040   -0.5386102235