20

 C    0.0306645017    1.5163613638   -0.0081981570
 C    1.3138384559    0.7198493390   -0.0098372871
 C   -0.0176650056    0.0111485283   -0.0089808100
 C   -0.4609642660   -0.7142950085    1.2485272754
 O   -0.0464400335   -2.0710191311    1.2152827895
 C   -0.7353718206   -2.8270919434    0.2328648933
 C   -0.7761785575   -2.1611758841   -1.1384659736
 N   -1.8331473382   -1.1457803728   -1.3280417251
 C   -0.4238617713   -0.7198796679   -1.2519586345
 H   -0.2507396058    2.0345889443    0.9032984677
 H   -0.2536288001    2.0376088005   -0.9164757845
 H    1.9029371234    0.7037878122   -0.9215455193
 H    1.9063228531    0.6912548165    0.8985209479
 H    0.0018459609   -0.2690996953    2.1343882301
 H   -1.5546247283   -0.6489775355    1.3552705576
 H   -0.2027269410   -3.7808975424    0.1701322103
 H   -1.7678324150   -3.0287263506    0.5605967238
 H   -0.5447189958   -2.8078572176   -1.9813725604
 H   -2.1495978924   -1.1405756079   -2.2939355373
 H    0.0543860663   -0.3843819275   -2.1708442969