15

 O   -0.2865211376    0.4107357686   -0.9013434811
 C    0.2693428271    0.8017367469    0.0990354207
 C    1.3874665346    1.7836863578    0.0818973257
 C    2.3065078988    1.7304790018   -1.1622166852
 C    1.3413321579    2.8313766738   -1.0563191408
 C    2.0447736900    2.2387235278    1.3425981138
 O    2.9596174463    3.0406881094    1.3412097242
 C    1.5536054357    1.6879517236    2.5950551419
 C    1.1705951374    1.2510207935    3.6494490950
 H   -0.0330668721    0.4400173223    1.1012632324
 H    3.3492269809    1.9390223839   -0.9551737100
 H    2.0837589691    0.9132640389   -1.8379089806
 H    0.4410988556    2.7868761383   -1.6576608914
 H    1.7077776590    3.8112994048   -0.7750838030
 H    0.8394060172    0.8708331086    4.5857237583