19

 C   -0.0157796806    1.4796237067    0.0069960028
 C    1.2984339602    0.7159369412   -0.0102353150
 C   -0.0034079585   -0.0121757787    0.0178907171
 C   -0.5276297533   -0.9389834652    1.1114312464
 C   -2.0060355444   -1.0096626390    0.6786159285
 O   -1.9319605968   -1.0013280616   -0.7658385048
 C   -0.5468144657   -0.9228593411   -1.0649799920
 O    0.0764346423   -2.1684201121   -0.7921870581
 C    0.1341907102   -2.2533586852    0.6505374833
 H   -0.2887502618    2.0012910052    0.9189990316
 H   -0.3244317294    1.9858318009   -0.9020663563
 H    1.8731483253    0.7088414099   -0.9308649834
 H    1.9045715860    0.7267400938    0.8902544173
 H   -0.3528470201   -0.6616699744    2.1507469749
 H   -2.5068769999   -1.9252010794    1.0141826455
 H   -2.5830073438   -0.1417984338    1.0204514783
 H   -0.4163218341   -0.6745468206   -2.1170846403
 H    1.1803806303   -2.3287138278    0.9710756556
 H   -0.4066799657   -3.1456355190    0.9866295084