17

 C    0.0485692888    1.4967509142    0.0234152158
 C    0.0559560696   -0.0120993976    0.0157394077
 C    0.0476245372   -0.7286547752   -1.1840000810
 C    0.0543771899   -2.1214859936   -1.1992855968
 O    0.0464944549   -2.8495312990   -2.3584075035
 C    0.0697823848   -2.8199894816    0.0072749099
 C    0.0781890642   -2.1223628166    1.2069370831
 C    0.0714081916   -0.7286353705    1.2193347645
 O    0.0804830409   -0.1130197509    2.4435167076
 H    0.9362092930    1.9103602562    0.5211419970
 H    0.0366612694    1.8943614479   -0.9939471680
 H   -0.8332191243    1.9016194795    0.5384328555
 H    0.0356003426   -0.1807419887   -2.1239679287
 H    0.0362920779   -2.2440621407   -3.1062748425
 H    0.0749936788   -3.9036108475   -0.0094984404
 H    0.0901730564   -2.6479528905    2.1551341585
 H    0.0743760643    0.8404897446    2.3199716314