18

 C   -0.0069041924    1.4967208552    0.0396182931
 C    0.0159502650   -0.0218711869    0.0217668821
 O    0.6991126880   -0.4741024367    1.1744527431
 C    0.7788504721   -1.8768099762    1.2598124541
 C    1.5174748557   -2.2355691797    2.5048385032
 C    2.0588495017   -1.4266702599    3.4452212750
 O    2.6348162823   -2.2204982277    4.4030013159
 C    2.4028022786   -3.4786323209    3.9741368036
 N    1.7486265999   -3.5611678984    2.8623840109
 H    1.0114514643    1.8955553577    0.0401292733
 H   -0.5298331420    1.8800956532   -0.8414729951
 H   -0.5193554137    1.8619933268    0.9340849052
 H   -1.0103755026   -0.4257295748    0.0075118252
 H    0.5203405652   -0.3922348027   -0.8865677851
 H   -0.2262944281   -2.3328041594    1.2765576718
 H    1.2971585853   -2.3002320861    0.3819205038
 H    2.1240715267   -0.3634591549    3.5847178016
 H    2.7783757338   -4.2801682586    4.5905861784