16

 O   -0.0920516472    1.3155990761   -0.0358601314
 N    0.0226769468   -0.0868582126   -0.0353288674
 C   -1.1181870090   -0.6458785628    0.0440007423
 C   -2.4940395990   -0.0216803194    0.1658548565
 C   -3.3583955936   -1.1080389940    0.8606876004
 C   -2.6261299469   -2.4179842411    0.6058896287
 N   -2.3033904151   -2.6228099516   -0.8154278887
 C   -1.2500607804   -2.1211037967    0.1190346998
 H    0.8297394902    1.5927954311   -0.0607993055
 H   -2.4536842225    0.9199983130    0.7158918197
 H   -2.8745559985    0.2036333266   -0.8352619099
 H   -3.4023833979   -0.9290562073    1.9406116516
 H   -4.3851570557   -1.1275292491    0.4844186534
 H   -2.8278756995   -3.2814882098    1.2317039015
 H   -2.1297859206   -3.6121341318   -0.9792585288
 H   -0.3853493511   -2.7363486606    0.3339062178