17

 C   -0.0827841438    1.5541068633   -0.0000393296
 C    0.0155110782    0.0316713897    0.0196192702
 C    0.9336680669   -0.5507654027   -1.0670015365
 C    2.2780853052   -0.6448867344   -0.4243053752
 O    2.1838076380   -0.1692671874    0.9104108946
 C    0.8313853852   -0.5615873219    1.2013435510
 C    0.8410796417   -2.0589394667    0.7959543141
 O    0.4380681819   -3.0205877017    1.3893278403
 C    1.4582917502   -1.9184418958   -0.5616737298
 H    0.9048496062    2.0047766134    0.1280543592
 H   -0.4997465129    1.9050576757   -0.9499769408
 H   -0.7323536759    1.9160804655    0.8032260212
 H   -0.9804178319   -0.4245212329   -0.0099311004
 H    0.7966409020   -0.3607282736   -2.1230684420
 H    3.2335126239   -0.4800405446   -0.9003292211
 H    0.5606451302   -0.3128458185    2.2229220551
 H    1.7110510948   -2.7461987272   -1.2066962002