20

 C   -0.1302529642    1.4447899358   -0.1746267449
 C    0.1141854683   -0.0487735408   -0.0214838616
 O    0.8276241176   -0.5006930352    0.8568199009
 N   -0.5291888177   -0.8364776293   -0.9336618224
 C   -0.3639583850   -2.2744487369   -0.9883196796
 C    0.1544949017   -2.6979552368   -2.3530386244
 C   -0.0207514174   -4.1761120505   -2.7609357897
 C   -0.9209245106   -3.6152913884   -3.8802988987
 O   -0.7433908018   -2.2608055903   -3.4083363562
 H    0.8285997490    1.9411491231   -0.3469651032
 H   -0.8141003668    1.6985271635   -0.9886304080
 H   -0.5331420569    1.8324010233    0.7645858409
 H   -1.0615493647   -0.4147222774   -1.6775139831
 H    0.3395345339   -2.5482258403   -0.1975775510
 H   -1.3211402597   -2.7766835223   -0.7918393325
 H    1.1603221329   -2.2883934557   -2.5126126302
 H    0.8848170737   -4.6871488281   -3.0885575488
 H   -0.5328514479   -4.7923381514   -2.0188245440
 H   -0.5376915005   -3.7415539443   -4.9000194260
 H   -1.9729019438   -3.9228011881   -3.8577213975