20

 C   -0.1276736867    1.5445343017   -0.0575435493
 C    0.0295405263    0.0442603012    0.0441014818
 C    1.3850894473   -0.6374697620   -0.1765450917
 C    2.5685284924    0.1331389752   -0.4131870112
 C    3.5665458276    0.7744705841   -0.6200597446
 C    0.7013086701   -0.6576785848    1.1977361645
 C    1.3085897838    0.1382469254    2.3361243806
 C    0.1193387019   -1.9913845103    1.6292326733
 H    0.7753214599    2.0744833956    0.2513328924
 H   -0.3374146262    1.8368834696   -1.0919431483
 H   -0.9600686333    1.8944334967    0.5629633795
 H   -0.8003156206   -0.5082786184   -0.3914372118
 H    1.3543275292   -1.5769749916   -0.7223068365
 H    4.4498373126    1.3341649143   -0.8028476777
 H    1.8153953447    1.0410740853    1.9925023845
 H    0.5365328358    0.4297397924    3.0576738960
 H    2.0491907429   -0.4675051881    2.8703446737
 H    0.8822756973   -2.6212785835    2.1012741956
 H   -0.6878699797   -1.8464967673    2.3572778345
 H   -0.2944117554   -2.5446512456    0.7803011247