20

 C   -0.1247138348    1.5973497327   -0.0774170745
 C   -0.1314420922    0.0671000747   -0.0859251879
 C    0.8364597359   -0.5305759961   -1.1276478377
 C    0.8552586571   -2.0259614108   -1.1567789909
 C    1.7779080406   -2.9268669961   -0.6587986932
 C    1.2841512511   -4.2350663335   -0.9237243380
 O    1.8679413423   -5.4314758110   -0.6130706505
 C    0.0792346903   -4.1120673041   -1.5734736775
 N   -0.1644458642   -2.7574865052   -1.7042607801
 H    0.8720942020    1.9876352071    0.1566475376
 H   -0.4148548331    2.0019633455   -1.0538220106
 H   -0.8207993755    1.9950214589    0.6675016469
 H    0.1376920036   -0.3171207627    0.9049064033
 H   -1.1473080565   -0.2975735185   -0.2848009548
 H    0.5782185947   -0.1354912139   -2.1210412409
 H    1.8523301279   -0.1772554250   -0.9181883029
 H    2.7032889510   -2.6718362959   -0.1622700424
 H    2.6992857140   -5.2521475473   -0.1655913726
 H   -0.6006922368   -4.8573176074   -1.9485699799
 H   -0.9737376673   -2.3649629514   -2.1513833634