17

 O    0.0221337144    0.0194400919   -0.4499615760
 C    0.0006521806    1.1597518108   -0.0923629693
 C   -1.1275813598    2.1495877225    0.2558714871
 C   -0.0512965426    3.2536869504    0.4601344335
 C    0.3671757736    3.5169757349    1.9202238161
 C    1.8963108219    3.7306344758    1.8271587103
 C    1.7758310559    2.2213654634    1.5013790864
 O    0.6357747695    2.1651926868    2.4168901133
 C    1.0967474716    2.2251057516    0.1130219599
 H   -1.8110319606    2.3186072031   -0.5817096066
 H   -1.7059824808    1.8740888869    1.1414456901
 H   -0.1505257625    4.1512609391   -0.1491510611
 H   -0.2879108760    4.1021671354    2.5655106272
 H    2.2969229885    4.4118487289    1.0717895544
 H    2.3484390400    3.8995206913    2.8051535943
 H    2.5503948032    1.4850405906    1.7100854484
 H    1.7786842030    2.3958781167   -0.7217832980