16

 C   -0.1301523092    1.5093813264    0.0708828701
 C    0.0806404485   -0.0100878024   -0.0274401863
 O    0.8703786705   -0.4984810275    1.0491700647
 C   -1.2408896389   -0.6904246108   -0.0083344818
 N   -2.2758971127   -1.2019348634    0.0415288633
 C    0.8105011638   -0.3732699695   -1.3207537764
 C    2.2919157994   -0.3537384262   -1.3619107276
 N    1.5509555237   -1.6280727199   -1.4306147614
 H    0.8460474255    1.9988740992    0.0919874831
 H   -0.6987451393    1.8798813652   -0.7864509210
 H   -0.6823113899    1.7672117746    0.9797060206
 H    0.3949681383   -0.3513979791    1.8737428416
 H    0.2463399864   -0.1020209374   -2.2097207574
 H    2.7978699743   -0.0643199435   -2.2781862271
 H    2.8189505909   -0.1185367551   -0.4431445910
 H    1.5816629888   -2.0696664707   -0.5136720534