16

 O   -0.0066780194   -0.0357116415    0.0400251856
 C   -0.0423836639    1.1661402903    0.0139567094
 C   -1.3127508830    2.0443455644    0.0059133074
 C   -0.7610135694    3.4686975151    0.0624970548
 C    0.0264955485    3.8134635145    1.3263580537
 C    1.2468688959    2.9498562802    1.2872171704
 C    1.1444298625    2.1241952366   -0.0083718998
 C    0.6545772780    3.4721628480   -0.5873992405
 N    1.2511007341    4.2780347767    0.5925210883
 H   -1.8657892540    1.8496060760   -0.9213418503
 H   -1.9719711895    1.7788566929    0.8374897320
 H   -1.4266885741    4.2624378591   -0.2752200582
 H   -0.3157626855    4.3038534390    2.2301825082
 H    1.8650096544    2.7475422002    2.1532422063
 H    2.0836746932    1.7090859304   -0.3671288154
 H    0.8431556423    3.7823713082   -1.6125186820