19

 O    0.0937728795   -0.0773870692    0.1775614637
 C    0.0665902786    1.1227474378    0.0807978663
 C    1.2836264565    2.0163545890   -0.0255470606
 C    1.0997135452    3.0459661205   -1.1839962233
 C    0.8543130337    4.3574640304   -0.4765432887
 C    1.0202655656    4.2558604566    0.8409413421
 C    1.4000657650    2.8812780619    1.2563270644
 C    1.0755288455    2.3348673816    2.6341088783
 C    2.4996878047    2.6525490448    2.2744157017
 H   -0.9008838655    1.6788074654    0.0800157885
 H    2.1555839970    1.3740487174   -0.1656116654
 H    1.9910235496    3.0895630992   -1.8220158419
 H    0.2689217946    2.7686733683   -1.8468830043
 H    0.5996779275    5.2661432960   -1.0094986133
 H    0.9241430089    5.0650794134    1.5569616502
 H    0.5574234017    2.9883789177    3.3281745161
 H    0.7924435288    1.2901727063    2.7095643258
 H    3.1799020443    1.8250358035    2.1011409208
 H    2.9635103088    3.5270946694    2.7188458895