19

 C    0.0761193734    1.6951004925    0.2359180309
 C    0.0142342065    0.1628982771    0.0573283592
 C    0.6656387217   -0.3619843326   -1.2338852078
 C    2.0880017401   -0.8146720775   -0.8317454456
 C    1.9187727527   -1.3690246549    0.5892234943
 C    0.8335378910   -0.4942473993    1.2064346203
 O    0.6282833516   -0.3061612547    2.3773531250
 C   -1.4360077257   -0.2767798536    0.2328654355
 O   -2.0453646059   -0.9699849667   -0.5388957609
 H    1.1042485911    2.0539719942    0.1297356454
 H   -0.5382800025    2.1975776745   -0.5174295516
 H   -0.2778258732    1.9777466441    1.2310573573
 H    0.0806082464   -1.2103998537   -1.6018464571
 H    0.6758518892    0.3895989608   -2.0273123736
 H    2.5030499263   -1.5458565985   -1.5289389893
 H    2.7721350177    0.0415459245   -0.8156501987
 H    1.5289987164   -2.3964997320    0.5617080700
 H    2.8169332310   -1.3770912432    1.2099913838
 H   -1.9016994077    0.0985870790    1.1692125429