17

 O   -0.1276503102    1.4588380113   -0.0343663866
 C   -0.0038730533    0.0433764700    0.0253155927
 C   -1.4120583747   -0.5262750702   -0.0674506550
 C   -1.4678686207   -2.0073966875    0.2671788398
 O   -0.8982950643   -2.8986858493   -0.6974114588
 C    0.4072273797   -2.8181438690   -1.0746635302
 N    1.2097824813   -1.8585912289   -1.2239189665
 C    0.9043235928   -0.4475982788   -1.1115772763
 H    0.7560608986    1.8393180187    0.0030188911
 H    0.4354937715   -0.2642760605    0.9902167066
 H   -2.0473340103    0.0047695889    0.6505779599
 H   -1.8272038650   -0.3437020067   -1.0657451393
 H   -0.9798675308   -2.1895231184    1.2353080891
 H   -2.5059027100   -2.3378857487    0.3479945253
 H    0.7485151038   -3.8239196632   -1.3258671955
 H    0.4516622020   -0.1149060087   -2.0573115166
 H    1.8625715497    0.0836457711   -1.0324183199