15

 C   -0.1924724592    1.2950254581   -0.1151839050
 C    1.3846567879    1.2142182836   -0.0151929808
 C    1.3121037603    0.2875570570    1.2161185070
 C    2.3444890188   -0.6041300392    0.5438950182
 C    1.5634480325   -1.2596401990   -0.5252353851
 C    0.1293102139   -1.0852948609   -0.3275517047
 C   -0.0432361899   -0.0738977469    0.5682544217
 N    2.2314028166    0.1615594961   -0.7466468962
 H   -0.5359931714    2.1346388291    0.5005276635
 H   -0.6783849910    1.3124982673   -1.0915515831
 H    1.9471995727    2.1497124740   -0.0066849635
 H    1.3577293124    0.6378490240    2.2436710294
 H    3.2923336745   -0.9599440001    0.9291360927
 H    2.0171844660   -1.9945174200   -1.1789206107
 H   -0.5644764140   -1.2620507330   -1.1440471334