16

 C    0.0523075438    1.5019872832    0.0309050394
 C   -0.0331556323    0.0100970317   -0.0053811598
 C   -1.1602984108   -0.7223930282   -0.1683313346
 C   -1.1361073054   -2.1683113092   -0.1815577994
 O   -2.1214341043   -2.8960168241   -0.2904850194
 C    0.2157068789   -2.7524242483   -0.0325128857
 N    0.2648951437   -4.1292210796   -0.1139347866
 C    1.2757146003   -1.9297818027    0.1314143451
 O    1.1715120571   -0.5686728613    0.1500864671
 H    0.7039257544    1.8702169280   -0.7686520973
 H   -0.9372577726    1.9446771811   -0.0892594609
 H    0.4788894049    1.8409188316    0.9809978162
 H   -2.1157281467   -0.2250068583   -0.2792326606
 H   -0.6637533269   -4.5232280547   -0.0115892397
 H    0.9818851680   -4.6021994220    0.4132100114
 H    2.3026772479   -2.2448913771    0.2595149147