19

 N   -0.1587361988   -1.1223608948   -0.4769164026
 C   -0.0751438315    0.0058274025   -0.2403509388
 C    0.0015954944    1.4440838499    0.0429428990
 C   -0.7515392760    1.8080593370    1.3523015031
 C    0.1165184599    1.6386683640    2.6029959650
 C    1.3108993856    2.6022689912    2.5641427103
 C    2.0937815069    2.4801040809    1.2726914618
 N    2.4030582657    1.1127928128    0.8404921235
 C    1.4642162482    1.9126822759    0.0450122328
 H   -0.5090242224    1.9466068941   -0.7871799513
 H   -1.0630363087    2.8567140337    1.2715302593
 H   -1.6634472915    1.2087401999    1.4203402085
 H   -0.4853361344    1.8334976809    3.4960989757
 H    0.4748443015    0.6067849179    2.6714679532
 H    0.9528892162    3.6364294366    2.6578217430
 H    1.9802579068    2.4204288767    3.4130408760
 H    2.8556508405    3.2418140651    1.1143879221
 H    3.3074144480    1.0572737113    0.3824960476
 H    1.8146798896    2.2831545043   -0.9149037381