17

 C    0.0548324460    1.5534532335   -0.0852536890
 C    0.0579576936    0.0689630690    0.0271820374
 O    0.5048717436   -0.7121175970   -1.0814008973
 C    1.1877074486   -1.6471175646   -0.2069222517
 C    0.6720975683   -0.9320969660    1.0369464997
 C    1.3048281344   -0.7693064938    2.2920708666
 C    1.8006556716   -0.6463664009    3.3839903347
 C   -0.8486313461   -0.7589496300    0.8810993006
 O   -1.4797192340   -0.0821550988    1.9163379298
 H    1.0612980290    1.9426989163   -0.2624355976
 H   -0.5834925705    1.8564555608   -0.9230825491
 H   -0.3488363601    1.9884032776    0.8311231849
 H    0.8593534348   -2.6811979613   -0.3634227039
 H    2.2732482506   -1.5740218807   -0.3303201717
 H    2.2624515622   -0.5230687179    4.3322108754
 H   -1.4211204351   -1.5673912800    0.4203937902
 H   -1.1524222068   -0.4307855962    2.7553176609