16

 C   -0.1850153210    1.6361747120    0.1582587315
 C    0.0502101758    0.1259861569   -0.0430834020
 C    1.0655113263   -0.3780677334    0.8885081264
 N    1.8680323951   -0.7844840381    1.6136193373
 C   -1.2590287392   -0.6619527523    0.0754253202
 C   -1.2259548837   -2.1904740889    0.2598412904
 C   -1.8964107297   -1.8764947733    1.5982296719
 O   -2.3352849018   -2.4602217532    2.5305103684
 O   -1.8748913452   -0.5099360616    1.3942156471
 H    0.7502746139    2.1906653377    0.0583471758
 H   -0.8896783309    2.0040084909   -0.5929260671
 H   -0.6019630629    1.8238929895    1.1497599403
 H    0.4329338000   -0.0462867159   -1.0581135576
 H   -1.9529255373   -0.3106398492   -0.6935764028
 H   -1.8372308356   -2.7769500406   -0.4269789750
 H   -0.2364238940   -2.6397960005    0.3590098252