18

 N   -0.0372992739    0.8193352014    0.8728688785
 C   -0.0570675109   -0.2361962861    0.1978175429
 O    0.9679886476   -0.9461175758   -0.4003659614
 C    0.0584540746   -2.0226151869   -0.8241203277
 C    0.2663975668   -3.3205014107   -0.0648032639
 C    0.0865536791   -3.0977431783    1.4448080823
 C   -1.2684602211   -2.4266717686    1.7871804607
 O   -1.9514476654   -1.8717246803    0.6566164547
 C   -1.1409533780   -1.2146670879   -0.2654690561
 H    0.9133359185    1.1816405342    0.9730747780
 H    0.1128372813   -2.1446661779   -1.9081559303
 H   -0.4718489552   -4.0394275214   -0.4411404285
 H    1.2576803677   -3.7334775138   -0.2774432843
 H    0.1659959894   -4.0510042791    1.9747780779
 H    0.9101095526   -2.4729878426    1.8016134693
 H   -1.9737134696   -3.1564806639    2.1925904606
 H   -1.1228202968   -1.6423940840    2.5407673343
 H   -1.8034051968   -0.7870324782   -1.0208469571