25

 C    0.3487863253    1.5479583564   -1.2397208435
 C    0.3348992462    0.3225706861   -0.3162937829
 C   -1.0361983353   -0.3050102238   -0.2411515292
 O   -1.4622614040   -1.0684295863   -1.3773414931
 C   -1.3151908741   -1.7506983088   -0.1129312688
 C   -0.1819577940   -2.7808052266   -0.0349164142
 C    0.1043675070   -3.4907639093   -1.3647482436
 C   -2.6422780922   -2.1674888031    0.5037416191
 C   -3.2890708456   -3.3769532616   -0.1829666801
 H    1.3477190883    1.9907108686   -1.2932748069
 H    0.0445541127    1.2668986365   -2.2523425827
 H   -0.3416833664    2.3207106216   -0.8845827461
 H    1.0608913758   -0.4131959570   -0.6744428684
 H    0.6443963540    0.6131681291    0.6966043815
 H   -1.8072526405    0.3747223036    0.1347890299
 H    0.7365936595   -2.3015142423    0.3193320575
 H   -0.4443786230   -3.5209965735    0.7294179354
 H    0.9397930492   -4.1890821668   -1.2552562691
 H   -0.7644318916   -4.0557536372   -1.7151732634
 H    0.3548450882   -2.7645440644   -2.1412571457
 H   -2.4818735591   -2.3836225948    1.5683799736
 H   -3.3293695212   -1.3159898925    0.4532828923
 H   -4.2628229397   -3.6005367580    0.2632541921
 H   -3.4418360471   -3.1760867453   -1.2475509540
 H   -2.6714810325   -4.2759728906   -0.0922877597