19

 C    0.0004594854   -1.2196714376   -0.0364956619
 C   -0.0069807911   -0.0148733384   -0.0155308027
 C   -0.0159513830    1.4067628937    0.0096421453
 C   -0.6512420827    2.3332370924    1.1319009603
 C    0.7278903294    3.0067492099    1.3267092513
 C    1.2496356578    2.3657026691    0.0188338994
 C    0.7121249021    3.0519395122   -1.2594196493
 C   -0.6650721737    2.3726517588   -1.0708101732
 C   -1.5196402220    3.0147776558    0.0480674523
 H    0.0063304490   -2.2809240480   -0.0549547164
 H   -1.1546717669    1.9395298712    2.0144752596
 H    0.7509195170    4.0993479380    1.3978721259
 H    1.2441932538    2.5886995076    2.1958617672
 H    2.2753149299    1.9979777281    0.0061238109
 H    0.7352554346    4.1463447716   -1.2930690094
 H    1.2169207871    2.6639514526   -2.1490438180
 H   -1.1800862757    2.0105247864   -1.9601916613
 H   -2.5328862281    2.6023133521    0.0470021085
 H   -1.5866484031    4.1077096045    0.0683257916