23

 C   -1.4323977305    0.3639573015    0.3992217044
 C    0.0433663595    0.2198383604   -0.0049137944
 C    0.6571879211    1.5888247527   -0.3392423495
 C    0.8200811770   -0.4521487166    1.1176870874
 C    0.8888287094   -1.9354670732    1.3165191645
 C    0.2167483573   -2.9356304064    0.3977507027
 N    2.0852000301   -1.1738453007    0.9445636278
 C    2.6868730871   -1.3432237638   -0.3687064784
 H   -1.5284459025    0.9545684820    1.3180277057
 H   -2.0065738226    0.8726745669   -0.3822870369
 H   -1.8954371612   -0.6106979131    0.5806686939
 H    0.0851831657   -0.3983486174   -0.9076801194
 H    0.6359358236    2.2476213350    0.5368295300
 H    1.6994528529    1.4959668366   -0.6583363139
 H    0.1001190015    2.0837192574   -1.1417159301
 H    0.8195183471    0.1603694749    2.0230222239
 H    0.9319428525   -2.2888378534    2.3478275352
 H    0.0722376466   -2.5678003825   -0.6195433800
 H    0.8034629510   -3.8593851162    0.3380045109
 H   -0.7684036645   -3.2015667832    0.7959940532
 H    1.9907085104   -1.4482778574   -1.2131322475
 H    3.3330764237   -0.4832665987   -0.5737686905
 H    3.3220924548   -2.2351941248   -0.3491780189