27

 C    0.0853235286    1.6376907215    0.0366537957
 C   -0.1107239104    0.1183924809   -0.0298355497
 C    0.6704891496   -0.5256193317   -1.1698419817
 C    2.2205406869   -0.5770083893   -1.1082732982
 C    2.1675762250   -1.9538067787   -1.8197622245
 C    3.1876275830   -3.0238810371   -1.4565784075
 C    0.6599058342   -2.0826617275   -1.3896620237
 C    0.4690044201   -2.8762434687   -0.0932164845
 C   -0.2970954875   -2.5949874096   -2.4634213688
 H    1.1396035247    1.8951044254    0.1851936087
 H   -0.2439149900    2.1200781317   -0.8906283943
 H   -0.4836395279    2.0779774638    0.8616063237
 H    0.1898493272   -0.3263288310    0.9267486532
 H   -1.1800550800   -0.1042045012   -0.1477138641
 H    0.3689223115   -0.0489891788   -2.1121854240
 H    2.7833970525    0.2247926009   -1.5932883394
 H    2.5786890585   -0.6714795335   -0.0763199148
 H    2.1947216497   -1.7922840315   -2.9045581942
 H    3.2172363176   -3.2103898524   -0.3783071111
 H    2.9698350140   -3.9759639851   -1.9542821088
 H    4.1936943472   -2.7164202648   -1.7639498352
 H    1.1392354966   -2.5465600400    0.7062836744
 H   -0.5574686930   -2.7777991775    0.2763159478
 H    0.6567156585   -3.9424832255   -0.2607557832
 H   -0.1250999049   -3.6571013273   -2.6768047009
 H   -1.3426377704   -2.4904240598   -2.1486129950
 H   -0.1741868111   -2.0419528530   -3.4009336701