19

 C    0.0295862763    1.5060428088   -0.1612428675
 C   -0.1318055548   -0.0075029468    0.0198538941
 C    0.6501623949   -0.5400217062    1.2184537083
 C    0.8008170558   -2.0618299372    1.3927878211
 O    1.5183173403   -2.5290432269    0.2512670126
 C    2.2875096292   -2.0286617715    1.3778915328
 C    3.3527079953   -2.8875465493    1.9694278986
 C    2.2148049704   -0.5090121151    1.1995428339
 O    3.0285658398    0.3674669953    1.1870586961
 H    1.0824124690    1.7783684802   -0.2771958718
 H   -0.5135725073    1.8527145008   -1.0454206450
 H   -0.3592089368    2.0530357685    0.7049158799
 H   -1.1932540454   -0.2564591109    0.1477977236
 H    0.2081228826   -0.5344335727   -0.8775197004
 H    0.3245236248   -0.0546970042    2.1491290919
 H    0.1534985260   -2.7624724917    1.9073786355
 H    2.9976519143   -3.9150464063    2.0834232661
 H    4.2380077139   -2.8974061546    1.3256968215
 H    3.6541851016   -2.5041211001    2.9489182487