18

 C   -0.0406317279    1.5342916706    0.0466517265
 C   -0.0578786082    0.0246439956    0.0515806630
 C    0.2995959784   -0.7393824486   -1.2847226096
 C   -0.8364579422   -1.7140242031   -0.9977281484
 C   -0.8275830661   -2.0929713399    0.4683934856
 O    0.3672257556   -1.9513533034    1.2268003152
 C    0.7713929868   -0.6404785285    1.1299252294
 N    1.7127398120   -0.1181071745    1.7870916475
 C   -1.3977365009   -0.7794032841    0.0840862363
 H    0.9871273703    1.8981708938   -0.0374896001
 H   -0.6255950049    1.9300397571   -0.7891667607
 H   -0.4536249232    1.9335733743    0.9780726608
 H    0.0699746145   -0.1047446243   -2.1439964019
 H    1.3151888432   -1.1355772135   -1.3844725956
 H   -1.3692111777   -2.3153109480   -1.7254536169
 H   -1.4358119401   -2.9199221440    0.8089737850
 H    2.1367026173   -0.7997897903    2.4185899112
 H   -2.3933890969   -0.4076686293    0.2875424127