19

 C   -0.0041979253    1.5762950900    0.0965074252
 C    0.0777841448    0.0836428910   -0.0327681638
 C   -0.7557519215   -0.8691167746    0.7768139442
 C    0.7468126829   -0.9628899031    0.8698487585
 C    1.2685034604   -1.7157866872   -0.3510275923
 C    0.5989337939   -0.6610976149   -1.2767222761
 O    2.6929085906   -1.6532237169   -0.4683040009
 C    3.3923095435   -2.8007488981   -0.4072726648
 O    4.5847023115   -2.8354117994   -0.4670248971
 H    0.9352408346    2.0547774200   -0.2014088615
 H   -0.8018595872    1.9849676658   -0.5356969651
 H   -0.2191461175    1.8709870149    1.1288656527
 H   -1.2391573037   -0.4412537212    1.6497137291
 H   -1.3301074405   -1.6604522016    0.2978812067
 H    1.2877189936   -0.8437725103    1.8010095939
 H    0.9407451163   -2.7577135873   -0.4575108302
 H   -0.1486410189   -1.0204245819   -1.9915531870
 H    1.3722059377   -0.1040023715   -1.8099183797
 H    2.7449366348   -3.6937291734   -0.3047073019