20

 C   -0.0533135169    1.4904513812   -0.0184489398
 C   -0.1102956060    0.0493561366    0.4998890641
 C   -1.4305859230   -0.6131439043    0.1854052467
 N   -1.6086780773   -1.1138883669   -1.1800786784
 C   -1.5686197297   -2.0874848892   -0.0569816818
 C   -0.4551833523   -2.9929007129    0.0053223719
 C    0.4676046243   -3.7660521340    0.0744863676
 C    1.5870040542   -4.6964418403    0.2056628493
 O    2.5173067041   -4.3316526449    1.2174601797
 H    0.9129559865    1.9518817949    0.2056280976
 H   -0.1976036336    1.5122682385   -1.1029391191
 H   -0.8324799087    2.1118999892    0.4377353640
 H    0.6941386367   -0.5430019415    0.0540832364
 H    0.0448924697    0.0310055246    1.5861987706
 H   -2.2973644903   -0.1492816115    0.6579563932
 H   -2.5715713531   -0.9995236426   -1.4862157753
 H   -2.5193187731   -2.5241193218    0.2437003488
 H    1.1954833799   -5.7133525640    0.3706613697
 H    2.1605733891   -4.7282191167   -0.7274479010
 H    2.0147827796   -4.1680792745    2.0222771458