18

 O   -0.1270041991   -0.0303603952    0.1683752804
 C    0.0299868986    1.1265653695   -0.1344918172
 C    1.3469654526    1.8348242500   -0.0688461328
 C    1.7809492222    2.6274537320    1.2231586524
 C    3.1733755089    2.5241683982    0.5018291135
 C    2.7081475263    1.1073239160    0.0712034412
 C    2.8583457479    3.4014710182   -0.7185448118
 C    2.5904585413    2.7839433213   -2.0421251744
 N    1.4847531837    2.9382245923   -1.0770253910
 H   -0.8149291019    1.7658545429   -0.4716762704
 H    1.3382020380    3.6181969470    1.3447373937
 H    1.7099650531    2.0377987762    2.1385030220
 H    4.1121196851    2.6968830981    1.0266846850
 H    2.6868936683    0.4106718559    0.9084306695
 H    3.1579745476    0.6162718136   -0.7908472393
 H    3.0131273632    4.4741313986   -0.6368386571
 H    2.4907763600    3.4450050595   -2.8985526655
 H    2.9726304844    1.8011705458   -2.2906489682