17

 C   -0.3097652844    1.3582214858   -0.1541126597
 C   -0.0941717670   -0.1178341134    0.1203177989
 C    1.1741164281   -0.7961500915   -0.4704795527
 O    1.5431121091   -1.3224756690    0.8313967841
 C    0.4855184858   -0.5821141618    1.4952065779
 C    0.9872608982    0.4464506957    2.3928046909
 C    1.3938944034    1.2972430189    3.1388284057
 C    0.9889316064   -1.8184055242   -1.4832360780
 C    0.8196292461   -2.6531064325   -2.3316141424
 H    0.5737991214    1.9463302896    0.1089640977
 H   -0.5305032896    1.5191847494   -1.2144746818
 H   -1.1530133673    1.7452601681    0.4263604156
 H   -0.9886317613   -0.6943520910   -0.1230598572
 H    1.9212253096   -0.0650001499   -0.8101378711
 H   -0.1683756054   -1.2654593794    2.0497358541
 H    1.7574785060    2.0416065401    3.8037241182
 H    0.6776090809   -3.3943712751   -3.0789688301