13

 C    0.0277862047    1.5222690285   -0.0767190134
 C    0.0051980802    0.0331267906    0.0133267808
 N   -0.0349919742   -0.7348896823   -1.0415462262
 O   -0.0442368167   -2.0196507584   -0.5740990655
 N   -0.0094960840   -2.0480610235    0.7923523133
 C    0.0213892863   -0.8015565856    1.1789974994
 C    0.0651838827   -0.4066984768    2.6171671910
 H    0.9294627993    1.9303698225    0.3921085846
 H    0.0059662456    1.8363802124   -1.1213904733
 H   -0.8342556794    1.9598734836    0.4378191303
 H    0.9633104147    0.1805545759    2.8359506973
 H   -0.8004124266    0.2098912778    2.8816025191
 H    0.0668217974   -1.2946488847    3.2512190824