22

 C    0.0417239272    1.5358236609   -0.2769865778
 N   -0.0336481742    0.0896284054   -0.2202221861
 C   -1.0236945387   -0.5729133361    0.4470396762
 O   -1.9192632779    0.0028362678    1.0455271523
 C   -0.9443271470   -2.0864469396    0.4004260742
 C   -1.0448044597   -2.8210908215    1.7707601187
 C   -2.0080412753   -3.8531096109    1.1225366502
 C   -3.1980564336   -4.3560273529    1.9239156913
 C   -2.2476997832   -2.8290412724   -0.0206835587
 H   -0.0200993535    1.9003480460   -1.3087523747
 H   -0.8052165939    1.9243790145    0.2897209831
 H    0.9716433349    1.9066686477    0.1690710167
 H    0.6717764293   -0.4511948111   -0.6912009321
 H   -0.0816463494   -2.4334461598   -0.1772933486
 H   -0.1170469431   -3.1862499235    2.2182357247
 H   -1.5694203378   -2.1840448093    2.4883599262
 H   -1.4315988028   -4.7035629398    0.7392354504
 H   -3.7869959779   -3.5191595536    2.3153570770
 H   -3.8616665088   -4.9727120612    1.3069942723
 H   -2.8754937324   -4.9656736055    2.7757136675
 H   -3.1131006344   -2.1942506529    0.1893528232
 H   -2.3091846280   -3.2007734024   -1.0465226160