18

 N   -0.0158601042    1.3308959004    0.2601185183
 C   -0.0269670383   -0.0261649753    0.0190752856
 N   -1.1253193989   -0.6703173935    0.0568265026
 C   -1.3082260867   -2.0894214290   -0.1628019618
 C   -0.5026407630   -2.7999220547   -1.2600349556
 N    0.9369298165   -2.8971749488   -1.0589388043
 C    1.6778131616   -1.6622880090   -1.2247999828
 C    1.4076679265   -0.5189843109   -0.2483548489
 O    2.3229031308    0.0518969930    0.3071410255
 H    0.8604540810    1.6915126600    0.6074393772
 H   -0.8536001886    1.6886673141    0.6936995175
 H   -1.1433640652   -2.6167631721    0.7918663606
 H   -2.3718827916   -2.2389595693   -0.3910682635
 H   -0.9019728082   -3.8174105646   -1.3594437562
 H   -0.6718832202   -2.2977398725   -2.2212652219
 H    1.1467823273   -3.3226109170   -0.1616643012
 H    2.7520136794   -1.8623118161   -1.1693463588
 H    1.4683480920   -1.2701520847   -2.2313020723