16

 O    0.1635065667    1.3792315361   -0.2060640884
 C    0.0297639410    0.0064617571   -0.0418645145
 C   -0.0085110601   -0.6693901328    1.3627587723
 C   -1.4676869994   -0.1421697537    1.5281592365
 C   -1.3987508100   -0.6789048957    0.0711543305
 C   -0.6154934660   -1.9045659503    0.6372436797
 C   -2.4697306312   -0.6727224301   -0.9570287727
 O   -3.5274549224   -0.1043457472   -0.8317209563
 H   -0.3900067696    1.8404817159    0.4329784027
 H    0.7027687800   -0.4543152956   -0.7692338769
 H    0.7809318852   -0.6737409169    2.1146515750
 H   -2.1123877495   -0.6995644142    2.2110129914
 H   -1.6204444083    0.9310678301    1.6702372372
 H    0.0352008746   -2.4446804876   -0.0556693200
 H   -1.2016143105   -2.5849388380    1.2575084408
 H   -2.2199316303   -1.2269609472   -1.8915141575