21

 C   -0.0182919635    1.3222419548    0.0500252946
 O   -0.0601312333   -0.0835512398   -0.0832047579
 C    0.6492506550   -0.5757329676   -1.1701935099
 C    2.2019470777   -0.4703398656   -1.2948642449
 C    2.0146175787   -1.7214114480   -2.1659235405
 C    0.8668951954   -1.4646193596   -3.2439992963
 C    0.0571218264   -2.6127729198   -2.5807159576
 C    0.7811108115   -2.1480944359   -1.3100620469
 C    0.2055213768   -0.2220290047   -2.6132591402
 H    1.0119776225    1.6904137540    0.1623727222
 H   -0.4768969610    1.8321068102   -0.8094494607
 H   -0.5824335185    1.5756218311    0.9505195993
 H    2.6380625472    0.4374228985   -1.7241417508
 H    2.7029684812   -0.7238258497   -0.3557788347
 H    2.8198201405   -2.4035947895   -2.4312491231
 H    1.0737134905   -1.4492339800   -4.3139753720
 H   -1.0355770664   -2.5692905235   -2.6362925286
 H    0.4034199211   -3.6044250637   -2.8869855781
 H    0.8550548964   -2.7144536524   -0.3828460643
 H   -0.8807550480   -0.2122664298   -2.7418152680
 H    0.6145742997    0.7297322910   -2.9639146615