19

 C   -0.0993752205    1.3399815783   -0.0329441537
 C    1.3019649641    1.9473168549    0.1118027699
 C    2.1433454327    0.7422178036    0.5777367897
 C    2.1781624006    0.5207676063    2.0794707912
 O    0.8742155340    0.3774948663    2.6660911809
 C    1.6445211069   -0.8062582694    2.4146953145
 C    1.2435707260   -1.5320504431    1.1487461235
 C    1.3632513663   -0.4855839725    0.0062031484
 O    0.1064320889   -0.0057659251   -0.4579453327
 H   -0.6317219478    1.3642503112    0.9247472466
 H   -0.7099622777    1.8364830574   -0.7934307814
 H    1.6654100770    2.3070771419   -0.8557076116
 H    1.3272560569    2.7822512585    0.8169390402
 H    3.1685624660    0.7875730997    0.1983131792
 H    2.9060251064    1.0419760727    2.6975477900
 H    1.9450510380   -1.3552062195    3.3041737845
 H    1.9246673002   -2.3738687240    0.9781309414
 H    0.2255285963   -1.9287793715    1.1938681342
 H    1.8683343758   -0.9301588354   -0.8583357047