17

 C    0.4812466978    1.5491108367   -0.1303813838
 C    0.0817983166    0.0968391940   -0.0146665899
 O    0.9217997185   -0.8085662802   -0.8043865440
 C    1.1742588428   -1.6470013252    0.3269052484
 C    2.4493378068   -1.2245052045    1.1070017359
 O    1.6607039951   -0.2738733863    1.8918753805
 C    0.4308324698   -0.6882889024    1.2690526522
 C    3.0730555382   -2.2447298908    1.9287544524
 C    3.5716406487   -3.1175189593    2.5879753701
 H    1.4804399535    1.7074890291    0.2808839407
 H    0.4722242243    1.8573070925   -1.1800959609
 H   -0.2261812660    2.1806903735    0.4174896775
 H   -0.9687384635   -0.0516667089   -0.3012494849
 H    0.9886217295   -2.7068656474    0.1518728123
 H    3.1840603126   -0.7110990209    0.4770990275
 H   -0.3521198907   -0.9239137869    1.9907955559
 H    4.0227106959   -3.8794199631    3.1748527202