17

 O    0.3673767625    1.4259733922    0.1782626127
 C    0.1255036076    0.0475592012    0.0345151218
 C    0.6790792693   -0.5285456288   -1.2438962377
 C   -0.3228025826   -0.8759489870   -2.0656781253
 C   -1.7224091482   -0.7825407220   -1.4391442504
 C   -1.3147317351   -0.5543358987   -0.0048637531
 C   -1.5886356530    0.0032355228    1.4103766159
 C   -0.1672597701   -0.6704431166    1.3819076609
 O   -0.7504935886   -1.7816177855    0.6330441419
 H    0.3597151189    1.8204721801   -0.7008611707
 H    1.7300105320   -0.5305511822   -1.5108271083
 H   -0.1861072295   -1.2357036216   -3.0804863121
 H   -2.3127008925    0.0374508240   -1.8657482662
 H   -2.2958821856   -1.7059836749   -1.5691145626
 H   -1.6447979945    1.0854007397    1.5267291123
 H   -2.3252091195   -0.5444750048    1.9987934493
 H    0.4884386389   -0.9066396479    2.2217712316