23

 C   -0.6062208535    1.3571211236   -0.0818789784
 C    0.1044761134    0.0102665056   -0.0795791751
 C    1.5696008207   -0.0673152798   -0.5933256815
 C    1.9017801913   -1.0519847933    0.5578887523
 C    0.5849195457   -0.6265978544    1.2727973473
 C    0.7519657644    0.3348366959    2.4327165647
 C    1.5610362851   -0.1213863518    3.6695511322
 C    2.3885514945    1.1536195573    3.4213040229
 O    1.6982508143    1.4116092546    2.1810223945
 H   -0.0218375767    2.1138873163    0.4499008116
 H   -0.7581595970    1.7080211502   -1.1090087384
 H   -1.5935534745    1.2937405029    0.3906692111
 H   -0.5098465427   -0.7257158262   -0.6110723225
 H    1.7227820632   -0.4168930206   -1.6177251547
 H    2.0863456757    0.8859353040   -0.4588528395
 H    1.8755021362   -2.0982107135    0.2417619741
 H    2.8361913503   -0.8758151710    1.0962917570
 H   -0.0418180413   -1.4505397165    1.6356580944
 H   -0.2269563134    0.7565826193    2.7045206196
 H    1.0165918333   -0.1795167305    4.6130555616
 H    2.1142880690   -1.0496645116    3.5130934132
 H    2.2257392800    1.9575089885    4.1514246404
 H    3.4664648118    1.0251470312    3.2705956635