13

 N    0.0266708437    1.3145353672   -0.0059690395
 C    0.0746312796   -0.0266792995    0.0032043680
 N    1.2029939891   -0.6531917810    0.0224498983
 C    1.1913990825   -2.0130469157    0.0309872537
 N    2.2449723667   -2.7895328634    0.0499487134
 C    1.6757083397   -4.0314336501    0.0502709161
 O    2.4112188208   -5.1444991477    0.0671503635
 N    0.3673191283   -4.0822767458    0.0331942582
 O    0.0326918768   -2.7046876588    0.0199969095
 H    0.8872413727    1.8389550999    0.0023214535
 H   -0.8477226076    1.8067881244   -0.0209992896
 H   -0.9001969829   -0.5202464756   -0.0068639969
 H    3.3345294206   -4.8639095640    0.0773429117