14

 N    0.1953715823    1.2808871430   -0.0423645089
 C   -0.0235841638   -0.0677187909    0.0138189761
 N   -1.1373224465   -0.6899485506    0.2569042024
 C   -0.7639945186   -2.0305607112    0.2696482781
 C    0.5588793018   -2.1470838215    0.0290955624
 C    1.5204438036   -3.2790279444   -0.0790347290
 C    2.1053742220   -3.4240015762   -1.4194224236
 N    2.5679195814   -3.5309155504   -2.4722817425
 O    1.0592536943   -0.8641825301   -0.1373432338
 H    0.9648090201    1.5691736228   -0.6282469861
 H   -0.6490331754    1.8161376430   -0.1777235825
 H   -1.4830181604   -2.8153553811    0.4465940519
 H    2.3423984713   -3.1712836713    0.6406391215
 H    0.9950425479   -4.2047941610    0.1761068539