20

 C   -0.0484518146    1.5667088660    0.2083913518
 C    0.0775754779    0.0454776661    0.1031413140
 C    0.8059803984   -0.5481782838    1.3197550456
 O    0.0556663275   -0.2260202244    2.4789852420
 C   -1.3127662982   -0.6101832521    0.0380068358
 O   -2.3499096201   -0.0184764793   -0.0889139500
 N    0.7598745485   -0.5142487099   -1.0792343468
 C    0.7819980086    0.2078161555   -2.3438993759
 C    2.0270472246    0.0406426696   -1.5424241127
 H    0.9195912627    2.0613589029    0.0837542784
 H   -0.7534740127    1.9568636283   -0.5275784203
 H   -0.4301615904    1.8206211253    1.1989585339
 H    0.8911334173   -1.6351738725    1.1765428164
 H    1.8253222006   -0.1349233563    1.3646836917
 H    0.4659639854   -0.6515185756    3.2369731847
 H   -1.2699858200   -1.7211517640    0.0734845231
 H    0.6068020024   -0.3991867068   -3.2276671060
 H    0.3567917143    1.2068084280   -2.3874231915
 H    2.4223851749    0.9305593984   -1.0578803020
 H    2.7786995028   -0.6905728755   -1.8271561122