19

 C   -0.0165952272    1.5640277573   -0.0619984815
 C    1.5126997996    1.5471979273    0.0919355396
 O    2.0399704236    0.8118390491   -1.0279413685
 C    1.5502774175    0.0719465622    0.0875274615
 C    2.3519980471   -0.9985160144    0.7502585571
 C    1.5499442555   -1.5318612056    1.9537557154
 O    0.2012016886   -1.8078692604    1.6144002627
 C   -0.5183017873   -0.6294338910    1.2811566123
 C    0.0171379756   -0.0054123070   -0.0125747539
 H   -0.5429861645    2.0064109274    0.7882886754
 H   -0.3751048123    2.0167900041   -0.9888418840
 H    2.1699988303    2.2791089593    0.5478858330
 H    2.5107915819   -1.8150865254    0.0348384059
 H    3.3361985355   -0.6363760286    1.0658255874
 H    1.9758115112   -2.4708396801    2.3168573266
 H    1.5853163920   -0.7998889248    2.7781509986
 H   -1.5679948831   -0.9214099981    1.1889857981
 H   -0.4396008045    0.0958518840    2.1093332301
 H   -0.3588683195   -0.5321477155   -0.8934750358