20

 C   -0.0433399166    1.5083442344   -0.0166245595
 C    0.0179707700   -0.0197691311    0.0666321023
 C   -1.3975859741   -0.5812301919   -0.0969579022
 O    0.8780272676   -0.5362167405   -0.9984337876
 C    1.9029787290   -1.2286219858   -0.2667437674
 C    1.1205560151   -2.0288303633    0.8015068790
 C    0.8018286923   -0.5745951504    1.2842079863
 C    2.2751582612   -0.2473029700    0.8699954595
 H    0.9373327528    1.9735127286    0.0915185173
 H   -0.4489061041    1.8076430920   -0.9878722955
 H   -0.7019039779    1.9083386997    0.7618990378
 H   -1.8023934917   -0.2805870430   -1.0681071365
 H   -1.4244025544   -1.6706083368   -0.0486839846
 H   -2.0589517334   -0.1856899209    0.6814673331
 H    2.6180434947   -1.6653023432   -0.9626155087
 H    0.3106636121   -2.6742386863    0.4610080259
 H    1.7682054767   -2.5635103567    1.4983723492
 H    0.4039144200   -0.3547890229    2.2748015275
 H    3.0031914218   -0.6579453501    1.5716307148
 H    2.5443160890    0.7722639182    0.5934908594