12

 N   -0.0025287720    1.3444491877    0.0896063672
 C   -0.0775919848    0.0075508480   -0.0634133994
 N   -1.1543337400   -0.6455052693    0.1980185214
 C   -1.1034116608   -2.0207410311    0.1272612122
 N   -0.0368405909   -2.7714737195    0.3029177450
 O   -0.4647800988   -4.0667738058    0.1608569615
 N   -1.8082906265   -4.1246466980   -0.0927393103
 C   -2.2140125927   -2.8892115563   -0.1095748519
 H    0.7904200539    1.8592270124   -0.2470387604
 H   -0.8249979382    1.8516957480    0.3743839482
 H    0.8443865796   -0.4656583470   -0.4146319036
 H   -3.2462590687   -2.6332289091   -0.2885755899