19

 C   -0.0845658967    1.5196597012   -0.0643688651
 C   -0.0719823027    0.0231802982    0.1093490535
 O    1.2163077526   -0.6307787430   -0.0146059622
 C    0.5628874458   -0.6461539227    1.2433433923
 C    1.2672409128   -0.1724858504    2.4915311388
 C    0.4753301081   -0.7560220045    3.6759530076
 C   -0.7103112500   -1.5347578118    3.1011259504
 C    0.2639752821   -1.9657797808    1.9688323197
 C    1.4718110213   -1.6089058246    2.9388243376
 H    0.7133926303    1.9875460415    0.5178436981
 H    0.0557391047    1.7887069660   -1.1166342458
 H   -1.0442165907    1.9343265565    0.2633826619
 H   -0.8726474800   -0.5108996271   -0.4074070000
 H    1.9416062366    0.6645884868    2.6118208047
 H    0.5747910223   -0.3228696969    4.6635131452
 H   -0.9823525038   -2.3732024666    3.7481489540
 H   -1.6130395024   -0.9880890361    2.8038558694
 H    0.1276936139   -2.8839717472    1.4024302723
 H    2.3605715059   -2.1382425084    3.2471979977