20

 O    0.2110993236    1.3581029506   -0.0925354411
 C    0.0469584589   -0.0494392981    0.0220916196
 C   -1.4405223216   -0.3488528768    0.1417567092
 N   -2.1551218486   -0.0775337953   -1.0871067720
 C   -2.4833842379    1.3325238196   -1.4353906585
 C   -3.9243327661    0.9090026368   -1.7698383110
 O   -4.0983448560    0.3341117063   -3.0807754352
 C   -3.9407490374   -1.0144744052   -2.5686899359
 C   -3.5773867009   -0.4770760411   -1.1751837585
 H    1.1234347302    1.5378571176   -0.3356666448
 H    0.4423088710   -0.5716816506   -0.8607774168
 H    0.5656229853   -0.4358897520    0.9143908222
 H   -1.5542382147   -1.4150073043    0.3733674973
 H   -1.8396437871    0.2193884494    1.0054640722
 H   -2.4401780176    2.0074461381   -0.5690401569
 H   -1.8896307890    1.7554688229   -2.2499903310
 H   -4.7510523222    1.5624175329   -1.4836446745
 H   -4.8881088377   -1.5680744306   -2.6204911304
 H   -3.1483791285   -1.5695582766   -3.0813758761
 H   -4.0198294738   -0.9260208836   -0.2827692977