21

 C   -0.2130724064    1.3628081672    0.0017642323
 C    0.0585806718   -0.1086382797   -0.0022233145
 C    0.6210854687   -1.0139151646   -1.1301846901
 C    0.0990899829   -1.9143157615    0.0171038813
 C   -0.1213006634   -3.3974503891    0.0458242019
 C   -0.8161266188   -3.8737855306    1.3265448762
 O   -1.0263888363   -5.2770088892    1.3385829625
 C    0.7989055245   -0.9815371056    1.0435059280
 O   -1.1033025291   -1.0347487131    0.1037851522
 H    0.7248564572    1.9216297048   -0.0764692173
 H   -0.8520290282    1.6385939330   -0.8426369501
 H   -0.7154431239    1.6577631087    0.9280682261
 H    0.0240675713   -1.0382570577   -2.0437155246
 H    1.6976087086   -0.9926609794   -1.3217851266
 H   -0.7301789577   -3.6736993088   -0.8258916542
 H    0.8418175196   -3.9104040969   -0.0594294721
 H   -0.1836617644   -3.6619290901    2.1949294239
 H   -1.7540472363   -3.3179542116    1.4639305797
 H   -1.6706470581   -5.4826315757    0.6537766289
 H    1.8922121040   -0.9577448424    1.0552396744
 H    0.3617148442   -0.9715399878    2.0433166621