16

 O    0.0091322034    0.0276874629    0.0629158949
 C   -0.0151292926    1.2260766536    0.0350129719
 C   -1.2658502207    2.1360895883    0.0173339435
 C   -0.6096479816    3.5352059965    0.0074220117
 C    0.6087649397    3.3040974114   -0.9149607382
 C    1.1949399205    2.1860757504   -0.0186380456
 C    1.1667243202    2.8808542850    1.3671858661
 O    1.8783625612    2.6862819186    2.3202183761
 N    0.0953078875    3.7487040136    1.2796181921
 H   -1.8520781594    1.9385421196   -0.8864608106
 H   -1.9053084994    1.9484235172    0.8833119742
 H   -1.2641315585    4.3690927867   -0.2422567648
 H    0.3317760805    2.9622781091   -1.9154612902
 H    1.2546809407    4.1809715553   -0.9860004083
 H    2.1407507846    1.7119905692   -0.2618903302
 H   -0.3578179761    4.0805600728    2.1175882976