20

 C   -0.1266963862    1.4451965664    0.0204220353
 N    0.0912439210    0.0098924920    0.0538364184
 C    0.9670916699   -0.5017790709   -1.0429404286
 C    1.9679668044   -1.3572433673   -0.2387134179
 C    2.3049664944   -0.3725438166    0.9343647456
 C    0.7694714911   -0.5199519636    1.2647128161
 C    0.1414824788   -0.1951267617    2.5911050861
 C    1.0095272500   -1.9748466640    0.7932614840
 O    0.7397574795   -3.0656243014    1.1967372346
 H    0.7927040839    2.0518976036    0.1211084459
 H   -0.5936246449    1.7081121243   -0.9341386612
 H   -0.8173925945    1.7394509127    0.8158235147
 H    0.3953628573   -1.0836464699   -1.7740940353
 H    1.4772306685    0.3140139716   -1.5723143698
 H    2.7151498297   -1.9304884899   -0.7825435451
 H    2.9610596676   -0.8036353709    1.6929870831
 H    2.6479664506    0.6226444151    0.6428967415
 H    0.2539960444    0.8616383374    2.8524656825
 H   -0.9267748250   -0.4316261519    2.5686617001
 H    0.6055508997   -0.7908433650    3.3821543699