21

 C    0.0381197818    1.2019223627    0.3650591570
 O   -0.1673382379    0.0992783348   -0.4936661594
 C   -1.3602887616   -0.5707828462   -0.2547732066
 C   -1.4504221668   -1.9927442650   -0.7334143575
 C   -0.2065380209   -2.6540622884   -1.3247481022
 C    0.6350396642   -3.3282895782   -0.2388113940
 O    0.8945282637   -2.4438006906    0.8369311894
 C   -0.2691681550   -2.1630441909    1.5889254538
 C   -1.4518426162   -1.6850028376    0.7620004843
 H    0.9928195067    1.6530754019    0.0853135724
 H   -0.7582209110    1.9539893239    0.2522658639
 H    0.0803907979    0.8989475588    1.4199534981
 H   -2.2475100361    0.0557019746   -0.3727947826
 H   -2.3965263801   -2.2841486579   -1.1774246582
 H   -0.5019272760   -3.4006962798   -2.0688309304
 H    0.4051012060   -1.9039158355   -1.8346637948
 H    0.1235013063   -4.2330091016    0.1335772419
 H    1.6114167620   -3.6299780426   -0.6293052906
 H   -0.5836597619   -3.0694378268    2.1372128891
 H    0.0282945470   -1.4179784796    2.3344579398
 H   -2.4023058220   -1.7755892458    1.2817857168