20

 C   -0.0600157597    1.4276593707    0.0411994578
 N   -0.0092787084   -0.0274280138   -0.0593513234
 C    0.7233688366   -0.5440752575   -1.2135603775
 C    2.2398383354   -0.5855316966   -0.9920059774
 O    2.4592196142   -1.3848335029    0.1660449680
 C    0.1423017299   -1.9616117173   -1.5363935890
 N   -1.3114301843   -1.9987797416   -1.7005953592
 C    0.7880052827   -2.5210200761   -2.7304698282
 N    1.3123294141   -2.9205341943   -3.6797990878
 H    0.9240087337    1.9251381752    0.0536299852
 H   -0.6277777361    1.8338673249   -0.8028505674
 H   -0.5864259728    1.7048900163    0.9589304533
 H    0.4148017494   -0.4168775827    0.7775966140
 H    0.5147171036    0.1057398261   -2.0721042581
 H    2.7412279854   -1.0068971205   -1.8736715668
 H    2.6185638563    0.4371137898   -0.8443829562
 H    3.4055795482   -1.4751636289    0.3059891549
 H    0.4062029952   -2.6111993191   -0.6930144935
 H   -1.6885961863   -1.4412265085   -0.9356313043
 H   -1.5657871169   -1.5145815732   -2.5583941946