15

 C   -0.0763942694    1.5318035338    0.1329717369
 C   -0.0137050515    0.0491592761   -0.0198578759
 C    0.0416572309   -0.7823073598   -1.1146537420
 C    0.0573636276   -0.4247296927   -2.5662268200
 N    0.0860592061   -2.1050750971   -0.7125418672
 C    0.0580705460   -2.0785994740    0.5965801037
 N   -0.0022147717   -0.8029289699    1.0715875354
 H    0.7810185852    1.9271152664    0.6921915216
 H   -0.0751764524    2.0119432385   -0.8478024023
 H   -0.9853397675    1.8561334874    0.6552660637
 H    0.9638283196   -0.8001934205   -3.0534959853
 H   -0.7954747590   -0.8702811823   -3.0899119484
 H    0.0173729653    0.6575209177   -2.7163492323
 H    0.0789546067   -2.9373148493    1.2515089858
 H   -0.0341484158   -0.5244559343    2.0379640963