19

 C    0.0097269437    1.4950109765    0.0483650488
 C   -0.0544093143    0.0020283413   -0.0177558434
 C   -0.1204236651   -0.7721588781   -1.1067971903
 C    0.0149111982   -2.2437518608   -0.7419981267
 O    1.3884659713   -2.6390429133   -0.9004799861
 C    2.1094898194   -2.0442914621    0.1831857425
 C    1.1092233619   -1.8956132043    1.3304221972
 C   -0.2344029229   -2.2709974356    0.7821958846
 C   -0.0171470218   -0.8509095684    1.2183909214
 H    0.9355557772    1.8299145227    0.5327702759
 H   -0.0379031914    1.9449458991   -0.9465661174
 H   -0.8165927361    1.9000433661    0.6463880285
 H   -0.0807249139   -0.4241564947   -2.1325437096
 H   -0.5849743534   -2.9354305596   -1.3361842017
 H    2.9333447260   -2.7144602268    0.4471639113
 H    2.5344663699   -1.0781334788   -0.1224791958
 H    1.4096669604   -2.2019433202    2.3261268547
 H   -0.9178888289   -2.9653410507    1.2523483006
 H   -0.4318141902   -0.4725827225    2.1472016756