17

 C   -0.0008821326    1.4508140566   -0.0144975632
 N   -0.0072321003   -0.0006239528    0.0172062736
 C    0.5326341719   -0.6452767950   -0.9261970412
 O    1.1364463198    0.0357976371   -2.0011778285
 C    1.7101231114   -0.6595613877   -3.0031580611
 N    1.7807900909   -1.9263996290   -3.1098097858
 C    1.2001088329   -2.6551804483   -2.0751773869
 C    0.5897567498   -2.0985432941   -1.0062987509
 C   -0.0333235620   -2.8855562825    0.1045253541
 H    1.0189977451    1.8584613525   -0.0334267642
 H   -0.5183141826    1.8459060231   -0.8993077076
 H   -0.5061006430    1.8294655336    0.8767282143
 H    2.1289195441    0.0070425987   -3.7513034487
 H    1.2672512734   -3.7338244033   -2.1784242046
 H    0.0721849646   -3.9590322690   -0.0710135176
 H    0.4283225761   -2.6319931276    1.0642985107
 H   -1.0957684495   -2.6406994124    0.2031667976