14

 O   -0.0243554347    0.0558280180    0.6886110801
 C    0.0259380557    1.1829063016    0.2585953573
 N   -1.1349490854    1.9643584665    0.3436062760
 C   -1.4841085220    3.2378111156   -0.0120857022
 C   -0.7327925748    4.1942283374   -0.6041237373
 C    0.6333515446    4.0944791241   -1.0053416382
 C    1.5027115282    3.0578190875   -0.9031058065
 C    1.3402478045    1.7163162639   -0.3583442521
 O    2.2643771318    0.9268909085   -0.3645028074
 H   -1.8650375525    1.4141229388    0.7795603586
 H   -2.5157992630    3.4627812597    0.2360420307
 H   -1.2320406293    5.1375907646   -0.7904856538
 H    1.0330666384    4.9958113551   -1.4644872438
 H    2.5107846886    3.2037964087   -1.2796865115