15

 O   -0.0908443320   -0.0222145111    0.0564700358
 C    0.0030356753    1.1759515039    0.0047728789
 C    1.3032896574    1.9466927746   -0.0170254366
 C    1.3719630222    2.8594482697   -1.2479078535
 O    2.5291047426    3.6994476734   -1.2172880793
 C    2.9093301508    4.1530141347    0.0015456963
 N    2.4642028936    3.8502843149    1.1443458157
 C    1.4198928521    2.8405559410    1.2400192649
 H   -0.9067961753    1.8236273698   -0.0108779893
 H    2.1272432225    1.2280480880   -0.0438710156
 H    1.4448536657    2.2868284280   -2.1750010386
 H    0.4780721865    3.4958272837   -1.3025370755
 H    3.7219810548    4.8678288937   -0.1099231870
 H    0.4617804537    3.3419967392    1.4383520118
 H    1.6266136999    2.2185487966    2.1167058821