21

 O   -0.0250425712   -0.0840693731    0.0320414578
 C    0.0154558802    1.1189102928    0.0058707773
 C    1.2810049380    1.9545705855   -0.0025283768
 C    1.3284044489    2.7534476039   -1.3226251459
 C    2.6442285117    3.5108123757   -1.5807778264
 C    2.8700825965    4.7315595773   -0.7203665084
 C    2.8584875452    4.7628353755    0.6116688035
 C    2.6171919085    3.5837234654    1.5243651416
 C    1.3057318871    2.8145838915    1.2791533376
 H   -0.9255042566    1.7211873370   -0.0149796208
 H    2.1201757108    1.2480781292    0.0212970376
 H    1.1745410623    2.0492107116   -2.1497497433
 H    0.4908273788    3.4619477378   -1.3535612942
 H    3.4823701316    2.8086441392   -1.4587940621
 H    2.6613254203    3.8109485541   -2.6334365833
 H    3.0711067523    5.6588738227   -1.2519821166
 H    3.0506126653    5.7141606439    1.1025928715
 H    3.4570335731    2.8769366919    1.4500591993
 H    2.6161109187    3.9329376556    2.5619145578
 H    0.4680774549    3.5234628575    1.2621383891
 H    1.1371089838    2.1499780151    2.1356818646