13

 N    0.3138212523    1.2134147826   -0.5417832061
 C   -0.1551236248    0.2647076855    0.4572668325
 C   -1.4882143383   -0.3628905830    0.1568753572
 N   -2.2549612135   -0.1629254815   -0.8675413918
 C   -3.3545262231   -0.9885334984   -0.6477183358
 C   -3.1837870932   -1.6504091718    0.5174812106
 O   -1.9848575448   -1.2586517199    1.0498701643
 H    0.3509750358    0.7470695599   -1.4445187824
 H   -0.3877673197    1.9400183946   -0.6584460309
 H    0.5903408442   -0.5315677375    0.5777789716
 H   -0.2126623260    0.7651317444    1.4322323003
 H   -4.1766957236   -1.0393848916   -1.3433586423
 H   -3.7507719054   -2.3718989534    1.0797603628