23

 C   -0.0735156909    1.4310478881    0.0170295322
 O   -0.0039743531    0.0266139761    0.0184833439
 C   -1.2731816911   -0.5886947180    0.0030561167
 C   -1.0931612560   -2.1061197955    0.0450343421
 C   -0.3636407824   -2.5495664742    1.3163317593
 C   -2.4734352336   -2.7906995566   -0.1016479406
 C   -2.3967688182   -4.2417204482   -0.2332555491
 C   -2.3147342186   -5.4376168335   -0.3499595865
 C   -2.2285662362   -6.8845114156   -0.4925298367
 H    0.9511688246    1.8108027920    0.0261963242
 H   -0.5862925114    1.8151945228   -0.8795596332
 H   -0.6032623572    1.8160575188    0.9032206628
 H   -1.8724791512   -0.2528995274    0.8695922931
 H   -1.8274765975   -0.2932402816   -0.9053947601
 H   -0.4856908114   -2.3850200014   -0.8247661715
 H    0.6056286398   -2.0526806631    1.3930150321
 H   -0.9479502345   -2.2914462094    2.2085941956
 H   -0.2095062384   -3.6317089523    1.3172150725
 H   -3.0946600699   -2.5331635276    0.7682914635
 H   -2.9919656460   -2.3754840828   -0.9766023362
 H   -3.1742538987   -7.3061797838   -0.8512876098
 H   -1.4487703511   -7.1697427096   -1.2075471082
 H   -1.9933382473   -7.3679054175    0.4622926639