14

 N   -0.0242757969    1.3473284429    0.0869965735
 C   -0.0210322312    0.0769520613    0.0032928158
 N    1.0709355674   -0.8090160846   -0.1263382227
 C    0.7119311017   -2.2309859480   -0.0160801879
 C   -0.7742143192   -2.0954813847   -0.0026932714
 C   -1.1899875009   -0.8080627280    0.0048395509
 C   -2.6029958397   -0.9280093824    0.0058232459
 N   -2.9785439382   -2.1865789715   -0.0015060189
 O   -1.7800007166   -2.9550504838   -0.0098701726
 H    0.9232102209    1.7273385225    0.0646338864
 H    1.9757316313   -0.5092355594    0.2001277471
 H    1.0813562596   -2.8159695008   -0.8679363798
 H    1.0956453357   -2.6967562291    0.9024958263
 H   -3.3647423640   -0.1619457543    0.0129846174