21

 C   -0.0569999471    1.5592504746    0.1696602312
 C    0.0448674650    0.0349717955    0.0663258299
 C    0.6825073622   -0.4710147354   -1.2444364976
 C    0.8315435439   -2.0075892831   -1.3061712249
 C    0.1058802793   -2.4448159624   -2.5837790956
 O    0.0121856778   -3.5752706046   -3.0065031930
 C   -0.4616645291   -1.2248397395   -3.2166461642
 C   -1.2496898299   -1.3045706349   -4.4829953649
 C   -0.1324879412   -0.1544599573   -2.4798523621
 H    0.9272402043    2.0299731373    0.0665325850
 H   -0.7083757374    1.9786886307   -0.6036261766
 H   -0.4669583990    1.8580207738    1.1390732051
 H    0.6439142382   -0.3443243064    0.9033385657
 H   -0.9512226575   -0.4141335768    0.1712966357
 H    1.6664253440    0.0119691029   -1.3354039373
 H    1.8728218997   -2.3408960170   -1.3421254464
 H    0.3727610872   -2.5055613358   -0.4452709761
 H   -2.1327620653   -1.9386822555   -4.3474606907
 H   -1.5751076861   -0.3187673289   -4.8243323514
 H   -0.6563436768   -1.7744241568   -5.2749359109
 H   -0.4126391322    0.8650111295   -2.7278828610