16

 C   -0.1509307450    1.5297355047    0.1290244011
 C   -0.0195576317    0.0527227984   -0.0150146153
 C    0.0428299347   -0.7875833601   -1.0937231056
 C   -0.0055647218   -0.4569372539   -2.5491670886
 N    0.1679299400   -2.1133573019   -0.6769798580
 C    0.1790003623   -2.0528295642    0.6233991098
 O    0.2831856132   -3.0840975413    1.4813309526
 N    0.0705888570   -0.7895212867    1.1001126221
 H    0.7047339509    1.9750379972    0.6533912549
 H   -0.2091042779    1.9981996279   -0.8557134130
 H   -1.0556425333    1.8154934818    0.6814776273
 H    0.9031119183   -0.7944349582   -3.0605026878
 H   -0.8503716200   -0.9548100537   -3.0385276314
 H   -0.1060241567    0.6189754571   -2.7147272928
 H    0.3478143262   -3.8774040343    0.9349140307
 H    0.0597991136   -0.5212832629    2.0691106139