15

 N   -0.0739192402    1.1495474860   -0.6551827841
 C    0.0098997754    0.0708233549   -0.0060592507
 C   -1.2455591517   -0.7088333828    0.3873373442
 N   -1.0970993069   -2.1768754669    0.2749310409
 C    0.0322688859   -2.4897631357    0.7168277537
 O    0.7553509943   -3.6496897410    0.6414670772
 C    2.0034822752   -2.8727095524    0.7727858803
 C    1.1708215711   -1.6248011521    1.1537540044
 O    1.2364171886   -0.4463948924    0.3732089829
 H    0.8524476659    1.5519233400   -0.8106848617
 H   -1.5296260443   -0.4292537709    1.4120250489
 H   -2.0462571344   -0.3725070996   -0.2697327528
 H    2.6528850839   -3.2936394185    1.5410425000
 H    2.5107849359   -2.7954005954   -0.1908068241
 H    1.2173548815   -1.3874048432    2.2214880208