17

 C   -0.0605017518    1.5369192305   -0.0874427543
 C    0.0404682801    0.0339255743    0.0468660375
 C    1.3636318677   -0.6962729896   -0.1626955262
 O    2.5425643137    0.0341970105   -0.3523451647
 C    0.7307909444   -0.6444514732    1.2055799491
 C    1.3801516612    0.1303964027    2.3275134894
 O    0.0596446953   -1.8117057474    1.6177130529
 H    0.8916616769    2.0275874855    0.1286883021
 H   -0.3514312100    1.8149832454   -1.1068372915
 H   -0.8143959631    1.9485204932    0.5917346456
 H   -0.8268204141   -0.5183321100   -0.3046508520
 H    1.3245935016   -1.6578769722   -0.6746026735
 H    2.5204830736    0.4129583520   -1.2377313579
 H    1.9524597252    0.9796416509    1.9522098719
 H    0.6260398492    0.4868948024    3.0361472634
 H    2.0781823443   -0.5155704900    2.8745934103
 H    0.7185899757   -2.4130955951    1.9840864781