17

 C   -0.0453069123    1.2383252933    0.1811831331
 O   -0.2071453916   -0.1642300833    0.3574305266
 C    0.7544587635   -0.7231692873    1.1868506516
 C    0.6040597423   -2.2786802801    1.3340539053
 N    2.0251885065   -2.3754568846    0.9635614644
 C    2.1356875665   -1.0397238484    0.5775631261
 N    2.9640182155   -0.3200899564   -0.0450301725
 C    0.2872651319   -2.7890480749    2.7210796586
 O   -0.7549190728   -3.3013901142    3.0339016821
 H    0.9189609194    1.4705627075   -0.2833015640
 H   -0.8592584354    1.5662338998   -0.4681473776
 H   -0.1178961481    1.7665673465    1.1437119423
 H    0.8271936094   -0.1945808393    2.1506571633
 H   -0.1082653255   -2.6690656671    0.6017816173
 H    2.4708259349   -3.1694108127    0.5246153782
 H    3.7654901780   -0.8538378947   -0.3869156890
 H    1.1164701479   -2.6345678244    3.4497799140