17

 C   -0.0667136429    1.3980670114    0.1031077887
 O    0.0135707636   -0.0058250825   -0.0157939237
 C    0.6733841453   -0.5327957301   -1.1761977753
 C   -0.0580396168   -0.1333155808   -2.4745331368
 C    2.1563540512   -0.1102539546   -1.2263555156
 C    0.5975812542   -1.9923622972   -1.0146314524
 C    0.5569471813   -3.1889793035   -0.9203542727
 H    0.9194867171    1.8788907073    0.1617882370
 H   -0.6336442707    1.8643154170   -0.7144895757
 H   -0.5967469663    1.5902459418    1.0393265794
 H    0.0376173283    0.9390729548   -2.6665552643
 H    0.3710890860   -0.6681379268   -3.3254526829
 H   -1.1175294939   -0.3896417708   -2.4006019003
 H    2.6455040379   -0.3498827121   -0.2792469540
 H    2.6706229813   -0.6447932668   -2.0288757510
 H    2.2542916025    0.9620079571   -1.4179047499
 H    0.5140853219   -4.2457879743   -0.8244904905