17

 N   -0.1093608819   -1.1323203113   -0.1706238195
 C   -0.0504705780    0.0171845945   -0.0660558801
 C   -0.0110897392    1.4649213456    0.0778462115
 C   -0.4967228376    1.9882865316    1.4679648092
 N    0.0672754920    3.3344551958    1.6025841437
 C    1.3578174655    3.3119488054    0.9257513665
 C    2.4731109699    2.5556170251    1.6800617829
 O    2.3761608446    1.4229803611    0.7834102225
 C    1.3982047991    2.0803369441   -0.0351319709
 H   -0.6342125735    1.9087979264   -0.7093727141
 H   -1.5836472915    2.0041078511    1.5610135648
 H   -0.1008644000    1.3349045468    2.2513570923
 H   -0.5409329998    4.0094117985    1.1516370067
 H    1.6212724732    4.2953945916    0.5380632851
 H    3.4648171933    3.0200153579    1.6353348355
 H    2.2365976584    2.2921123777    2.7164594078
 H    1.7350289054    2.1987149581   -1.0691565438