21

 C   -0.0203920772    1.4886521481    0.0438120572
 C   -0.0614043685   -0.0015702788   -0.0180313785
 C   -0.0589210627   -0.8099458036   -1.0849868171
 C    0.0245694934   -2.2451695214   -0.5897924260
 C   -0.7761841893   -2.1318726557    0.7292488198
 C    0.0247247674   -0.9036676957    1.2154618049
 C    1.4747034314   -1.4879493229    1.2130202973
 C    1.4656089047   -2.4389168026   -0.0292425662
 O    1.6148066327   -3.8115717347    0.3173709848
 H    0.8910741752    1.8406574814    0.5457240628
 H   -0.0491261033    1.9350947862   -0.9543421528
 H   -0.8634472035    1.8885483833    0.6217791037
 H   -0.0140429775   -0.5114509320   -2.1257852036
 H   -0.2618136257   -3.0269199294   -1.2930309231
 H   -1.8336153009   -1.9129193361    0.5633431425
 H   -0.6668417803   -3.0100635009    1.3714453394
 H   -0.2753589425   -0.4467243271    2.1603430172
 H    2.2375388977   -0.7071906285    1.1510569230
 H    1.6617425249   -2.0785861129    2.1157235830
 H    2.2218173710   -2.1527848217   -0.7716581047
 H    2.4742653831   -3.9215366150    0.7357326465