21

 C   -0.0890147260    1.5791757761   -0.0525844306
 C    0.0397688992    0.0489301790    0.0241758657
 C    0.7307330973   -0.5142228560   -1.2061508134
 C    1.7758987113   -1.3263014700   -1.0589883930
 C    2.1650433756   -1.6335841263    0.3712694123
 C    2.3227831605   -0.3082241292    1.1505007478
 C    0.7844678776   -0.4601334090    1.2877812049
 C    0.1201964351   -0.1078657356    2.5988055698
 O    0.9478043139   -1.9084046390    1.1282560076
 H    0.8918542176    2.0654559129   -0.0263903036
 H   -0.5774357098    1.8755595442   -0.9867118349
 H   -0.6885874367    1.9756937997    0.7718886666
 H   -0.9763927396   -0.3714807341    0.0709081901
 H    0.3452863321   -0.2277340547   -2.1814563685
 H    2.3274606451   -1.7488740086   -1.8919996730
 H    2.9094128893   -2.4242152958    0.4830730806
 H    2.8136617236   -0.4485609563    2.1160069568
 H    2.7368645061    0.5537150066    0.6250738689
 H    0.1587389359    0.9701074518    2.7826927387
 H   -0.9309709997   -0.4176106310    2.5977721014
 H    0.6276895313   -0.6183389646    3.4215247757