18

 C    0.1424658791    0.9127773969    0.2660558354
 N   -0.5657389753    0.1167439325   -0.7139678543
 C   -1.3873487445   -0.7290612553   -0.2866628901
 O   -2.1001885579   -1.4841128653   -1.1619276852
 C   -2.9467143834   -2.4598094402   -0.6075047679
 C   -2.1861077811   -3.6665886950   -0.0419341993
 O   -1.0344174237   -3.5916133013    0.2941615028
 C   -3.0152119443   -4.9399486066    0.0689656880
 O   -2.3350764071   -5.8801642687    0.8528066032
 H    1.2211273262    0.7543618190    0.1557349494
 H   -0.0440775782    1.9766649080    0.0797799826
 H   -0.1327024823    0.6903520655    1.3100755748
 H   -1.6188007012   -0.9179075106    0.7709995219
 H   -3.5711858324   -2.0482960646    0.2026850717
 H   -3.6262531575   -2.7741510094   -1.4059419669
 H   -4.0066659141   -4.6729650611    0.4774894732
 H   -3.1923267735   -5.2886487069   -0.9647193513
 H   -2.8366163188   -6.7006019967    0.8429435622