18

 O   -0.5540010070    0.2944769318    0.1887259548
 C    0.0219058984    1.2626870237   -0.2278146523
 C    1.4263290284    1.6737713587    0.1621339576
 C    1.4707561664    2.7539032747    1.2772445865
 C    2.0348850125    1.5989377415    2.1446012241
 O    2.1019210214    0.7213211190    0.9911083868
 C    3.3768197135    1.7975213691    2.7973961582
 C    4.3493250498    0.6820190639    2.8508310728
 N    4.5940382080    1.8493736327    1.9777089580
 H   -0.4595283910    1.9767815703   -0.9384982107
 H    1.9910503342    1.9119632782   -0.7502624978
 H    2.1834751977    3.5572623459    1.0879716660
 H    0.5127377148    3.1731974742    1.5878304248
 H    1.3108489808    1.2168838839    2.8758881786
 H    3.3565357668    2.5165037788    3.6154696882
 H    5.0224112118    0.5884556406    3.6977539838
 H    4.0640685442   -0.2524756853    2.3768336162
 H    4.3439217092    1.5738101684    1.0287650546