15

 O    0.0089177355   -0.0797391719    0.0728848910
 C   -0.0289858407    1.1358765352    0.0240124952
 N   -1.1728744777    1.8732634856   -0.0223949630
 C   -1.0999148557    3.2939403397   -0.0788551191
 C   -0.0741653484    4.0835138799    0.7063904380
 C    0.0098935028    3.9902960186   -0.8110802643
 N    1.3352800672    3.2694282768   -0.7592406262
 C    1.2515437848    3.3152251411    0.7268271971
 C    1.1940254704    1.9947680859    0.0297939139
 H   -2.0571739474    1.3901664311   -0.0191321568
 H   -2.0679986840    3.7747883574   -0.1627611329
 H   -0.3188445890    4.9129009291    1.3559358401
 H   -0.1343781051    4.7188562451   -1.5984625762
 H    2.1048495086    3.6034059633    1.3307752244
 H    2.1119194686    1.4177019730    0.0074795188