21

 C    0.0335637627    1.5161708130    0.0791510974
 C   -0.0492938069    0.0236985771   -0.0546148013
 C    0.3462292238   -0.7931175616   -1.3182699250
 C   -0.4016021204   -1.9194411172   -0.5351218654
 C    0.4984555774   -2.0258902308    0.7043149155
 O    0.7219360743   -0.6261599600    0.9845160773
 C   -1.3499338038   -0.8011268177   -0.0596991423
 C   -2.5123767158   -0.8050624557    0.8696893806
 C   -2.6888844482   -0.4232499338   -0.5944690963
 H    1.0724283712    1.8497357212   -0.0020583430
 H   -0.5505990120    2.0073833030   -0.7041448754
 H   -0.3475594424    1.8356902930    1.0544658738
 H   -0.1866767771   -0.4810644861   -2.2173110342
 H    1.4154709501   -0.9190359133   -1.5085049025
 H   -0.7514176848   -2.8399327452   -1.0014519991
 H    0.0038219634   -2.5073716795    1.5562100109
 H    1.4539069419   -2.5286107523    0.5118432538
 H   -2.9140064298   -1.7597998023    1.1959534537
 H   -2.5832307493   -0.0171711426    1.6132485690
 H   -2.8835263239    0.6201015588   -0.8250949100
 H   -3.2078486504   -1.1227412381   -1.2430042174