14

 N    0.0642996994    1.1864189422   -0.3022009594
 C    0.0387611763   -0.0401476647   -0.0623556810
 O    1.0350421076   -0.9425188335    0.2674326474
 C    0.0920389220   -2.0546710998    0.3971221633
 C   -1.0291863372   -1.1020509678   -0.0195295931
 O   -2.2924166872   -0.9862564252    0.5602134665
 C   -2.2367422308   -1.3007587590   -0.8455181556
 C   -2.6946875833   -0.2097042861   -1.7669518083
 O   -3.1480726132   -0.4367905031   -2.8588002425
 H    1.0031553895    1.5797486644   -0.2268445177
 H    0.3391688170   -2.8665316600   -0.2897106369
 H    0.0338145938   -2.4105074568    1.4282447175
 H   -2.5286073917   -2.3136904704   -1.1180470813
 H   -2.5737459522    0.8111136697   -1.3544854389