15

 N    0.0256964894   -1.1905601544   -0.1653831667
 C   -0.0097709645   -0.0358889539   -0.1466125635
 C   -0.0279699675    1.4238306438   -0.1127816828
 C    1.3773428201    2.0137637268    0.1664492518
 C    1.3559858820    3.5037385392    0.2055129410
 C    1.6743666703    4.4244867030    1.1551436036
 C    1.4123228448    5.6656338279    0.5149221211
 N    0.9719434175    5.5111306386   -0.7080872721
 O    0.9355992909    4.1319450703   -0.9095698153
 H   -0.4038904020    1.8004195606   -1.0690034056
 H   -0.7328521165    1.7516890043    0.6586722625
 H    1.7555557511    1.6394912906    1.1204982675
 H    2.0668136686    1.6709881858   -0.6126848580
 H    2.0402790117    4.2481138145    2.1526500737
 H    1.5300262842    6.6665285729    0.9057961627