21

 C    0.0025014585    1.4797098960    0.0960172231
 C    0.0335104877   -0.0372454878    0.0177682850
 C    0.6944310719   -0.5560734238   -1.2606919084
 O    0.7858138922   -1.9706806188   -1.2547449474
 C    1.5074623944   -2.4273813384   -0.1193301942
 C    0.8786982173   -1.9120463293    1.1526630541
 C   -0.2010906677   -2.6947310365    1.8583810642
 C    1.1753513879   -2.5299315684    2.4778300080
 O    0.7666866523   -0.5112393314    1.1528879402
 H    1.0163435122    1.8886982329    0.0455277733
 H   -0.5846121131    1.8972756342   -0.7276098007
 H   -0.4469920252    1.8000647788    1.0394908427
 H   -0.9896687190   -0.4438329743    0.0627345124
 H    0.1043724985   -0.2835886747   -2.1410171240
 H    1.6981618115   -0.1066116029   -1.3551034215
 H    1.4966589995   -3.5200905805   -0.1559632204
 H    2.5539054123   -2.0820249704   -0.1749378340
 H   -1.0106262726   -2.1243145845    2.2992294335
 H   -0.4839711844   -3.6664370376    1.4681480484
 H    1.8389607409   -3.3876295523    2.5133723935
 H    1.2667404751   -1.8479568503    3.3154956921