19

 C    0.1564444808    1.5229520455   -0.0619757239
 C   -0.1023647916    0.0294111946   -0.0851946557
 O    0.6919884454   -0.5351932249   -1.1515564810
 C    0.6080246840   -1.8672914720   -1.3039595910
 O   -0.0611031185   -2.5874057162   -0.6053761470
 C    1.4432660167   -2.3300949338   -2.4851802206
 C    1.8084946886   -3.8156024192   -2.3864668946
 C    2.2663384834   -4.3760365188   -3.7120287611
 O    3.2802563613   -4.9984929005   -3.8899848338
 H    1.2136909158    1.7334731323    0.1216488785
 H   -0.1266891881    1.9843414318   -1.0121933103
 H   -0.4310443620    1.9876474335    0.7352956510
 H    0.1793013442   -0.4530471491    0.8555964137
 H   -1.1557776191   -0.2033550399   -0.2699558794
 H    0.8429828891   -2.1449259534   -3.3874004022
 H    2.3276684273   -1.6937693444   -2.5740911385
 H    2.5814787647   -3.9967078717   -1.6355309417
 H    0.9078907213   -4.3639585572   -2.0786963839
 H    1.5641466768   -4.1720552768   -4.5567155685