20

 C   -0.1245966519    1.6890861955   -0.2218922755
 C   -0.2765028912    0.1646824044   -0.2216355180
 C    0.7697922948   -0.5513355286   -1.0782253786
 C    2.2431517397   -0.3906410930   -0.6137204885
 C    2.8658183692   -1.7192175147   -0.9678285845
 C    1.9588773575   -2.6262272818   -1.3319154141
 C    0.5520239884   -2.0921694283   -1.2068254311
 O   -0.1359660336   -2.6972850802   -0.1074485759
 H    0.8461102313    1.9988641930    0.1803084171
 H   -0.2051545554    2.0959561378   -1.2364625570
 H   -0.9001308793    2.1629724434    0.3880105766
 H   -0.2238672198   -0.2136357287    0.8061302356
 H   -1.2763210001   -0.1045678845   -0.5826358113
 H    0.7114006785   -0.1518923282   -2.0993505910
 H    2.7455209206    0.4497300099   -1.1055173881
 H    2.3206598493   -0.1967124846    0.4666118494
 H    3.9356444249   -1.8936682680   -0.9122588556
 H    2.1617598375   -3.6564350743   -1.6027116276
 H   -0.0805827989   -2.3239479354   -2.0700010162
 H    0.4813689687   -2.7309382738    0.6317237943