19

 O   -0.0910231580    1.4266955392    0.1302220843
 C    0.0268108741    0.0189570254   -0.0219471739
 C   -1.3856112282   -0.5552011733    0.0037833451
 C   -1.3997025129   -2.0747971225   -0.1610795972
 C   -2.8167964180   -2.6041152822    0.0571826338
 N   -3.3051416881   -2.1438241380    1.3454332751
 C   -3.0520638949   -0.8870752858    1.8627163702
 O   -3.6698063671   -0.4401673691    2.8139520696
 N   -2.0121888358   -0.2082824455    1.2682236466
 H    0.7806703454    1.7919577155    0.3047203670
 H    0.5111985627   -0.2422644494   -0.9757360171
 H    0.6101276508   -0.4252942359    0.7979989768
 H   -1.9329764797   -0.1008592310   -0.8397509627
 H   -1.0481854516   -2.3468405705   -1.1606860182
 H   -0.7263683125   -2.5295229503    0.5744796699
 H   -3.4646209599   -2.2750045047   -0.7717920512
 H   -2.8175334555   -3.6991404945    0.0492485014
 H   -4.1474408772   -2.5509741453    1.7190580838
 H   -1.9046717436    0.7440273579    1.5808188866