16

 O   -0.1963231660   -0.0163741803    0.1831396042
 C   -0.0746067587    1.1688230772    0.0458312071
 C   -1.2353518444    2.1601925420   -0.2141625976
 O   -0.7374926648    3.4810294226    0.0755330162
 C    0.5509206119    3.3690459222    0.4696248327
 N    1.2214724609    4.1707224223    1.1777028201
 C    2.5162441828    3.4941587045    1.4218986686
 C    2.3034562495    1.9714454362    1.1161338509
 C    1.1639477308    2.0443610858    0.0944435210
 H   -1.5674763827    2.1098734183   -1.2572817963
 H   -2.0857811275    1.9394137894    0.4375604319
 H    3.2885876110    3.9255673789    0.7712910887
 H    2.8301310221    3.6717161919    2.4540077645
 H    3.2005314085    1.4756090330    0.7424945458
 H    1.9741975097    1.4445416665    2.0168852775
 H    1.5419151969    2.0993463694   -0.9391799953