15

 N    0.1367483692    1.4088166523    0.1163171313
 C   -0.0196862625    0.0134926436    0.0234373065
 C   -1.1035581408   -0.8178434223    0.0179756990
 C   -0.6065075196   -2.1703210863   -0.0041458657
 C   -1.3349302793   -3.3770094260    0.0079969143
 N   -1.9040401470   -4.3890808052    0.0186733069
 C    0.7810137814   -2.1017900732   -0.0368503289
 N    1.7386477445   -3.1035123229   -0.1591666430
 N    1.1212728495   -0.7817380189   -0.0130840190
 H    0.2891642464    1.8464327753   -0.7882899951
 H   -0.6813348564    1.8368649803    0.5318200487
 H   -2.1405917149   -0.5235021481    0.0294800125
 H    1.3060758830   -4.0186543780   -0.1995439092
 H    2.4366588854   -3.0958834723    0.5766522687
 H    2.0599320409   -0.4192044683   -0.0195608569