17

 C    0.1315291594    1.4809316911    0.0725786901
 C   -0.0412088495   -0.0343177044   -0.0379327644
 C    0.7324904921   -0.6178838942   -1.2840506451
 C    1.9120063072   -1.2051510440   -0.5899609758
 C    1.7603575631   -1.2417784120    0.7524626284
 N    0.5134824926   -0.7422349135    1.1725200520
 C    2.9300471517   -1.8992364635    1.2029568585
 N    3.7135221710   -2.2177327311    0.1869436075
 O    3.0527073772   -1.7870581800   -0.9728245728
 H    1.1928889858    1.7466839328    0.1285806198
 H   -0.3023860449    1.9858442552   -0.7966713087
 H   -0.3697881529    1.8690478161    0.9659924928
 H   -1.1058379941   -0.2718405341   -0.1160449830
 H    0.1399555834   -1.3806209726   -1.8033273274
 H    0.9708071925    0.1640968299   -2.0125238376
 H    0.5581453753   -0.1225855229    1.9739445992
 H    3.2574167902   -2.1517429027    2.2012292664