25

 C   -0.1824516230    1.5071470079    0.0049015646
 C    0.0416191967   -0.0103026285   -0.0784719235
 C    0.8349693690   -0.3879701319   -1.3361436978
 C    0.7221058613   -0.5476445931    1.1889983177
 O    2.0329945792   -0.0074770649    1.3544684753
 C   -0.0811302987   -0.5071232104    2.5259556782
 C    0.4613231115   -1.9263041132    2.8594606654
 C   -0.4836453893   -2.9397028864    3.4848451093
 C    0.8438947604   -2.0843612743    1.3605937765
 H    0.7709037506    2.0492705071    0.0121346982
 H   -0.7466696039    1.8671895934   -0.8608705130
 H   -0.7406487874    1.7864901305    0.9051534135
 H   -0.9445732600   -0.4919997963   -0.1306967900
 H    1.8461164813    0.0265145426   -1.2866808776
 H    0.9257684911   -1.4739749824   -1.4395019914
 H    0.3479289220   -0.0050615929   -2.2387655791
 H    1.9416043990    0.9275251376    1.5661905986
 H    0.1575260062    0.3061174649    3.2178973494
 H   -1.1628807553   -0.5169437653    2.3521792350
 H    1.3707195005   -1.8393425525    3.4609429432
 H   -1.4019361637   -3.0398991039    2.8939519028
 H   -0.0199406999   -3.9307455085    3.5477137568
 H   -0.7725331168   -2.6434682570    4.4997513882
 H    0.0693226766   -2.6153890884    0.7975449156
 H    1.8207387929   -2.5098270940    1.1227836341