18

 C   -0.0669932827    1.5366618188    0.0263542876
 C    0.0648051706    0.0347353864   -0.0291962189
 C    0.7395449248   -0.6747315624   -1.2284906090
 C   -0.3906798757   -1.6902960948   -0.9759332980
 C    0.0015212078   -2.6515021452    0.1398182096
 O    0.8505634674   -1.9922077685    1.0745512475
 C    0.5446972434   -0.6149925937    1.2732439174
 O   -1.1951348223   -0.6414549993   -0.3640129631
 H    0.9133347290    2.0062273856    0.1578429094
 H   -0.5131748964    1.9098450707   -0.8993131664
 H   -0.7077096809    1.8407910689    0.8610914495
 H    0.5967825769   -0.1209399092   -2.1575662642
 H    1.7727365576   -1.0078637256   -1.1200592698
 H   -0.8976620756   -2.1784165256   -1.8124983596
 H   -0.9149607527   -3.0204949158    0.6252075064
 H    0.5703502752   -3.5081097673   -0.2389834193
 H    1.4663078054   -0.1517806637    1.6429349785
 H   -0.2445629518   -0.4889775692    2.0305824524