17

 C   -0.0174362968    1.4016957947    0.0396713538
 C    1.4168445616    1.9344756059   -0.0063192587
 N    2.1150278561    1.2751175626   -1.0989860118
 C    3.3039497869    1.5996096647   -1.6868128422
 N    3.6845364381    0.6947384978   -2.5593145059
 C    2.7054412823   -0.2718645481   -2.5283461641
 C    1.7252168571    0.0606556197   -1.6280298976
 C    0.4151898742   -0.5363701844   -1.2083704577
 O   -0.0232153353   -0.0118886787    0.0400617631
 H   -0.5076270328    1.7247177569    0.9614744418
 H   -0.5925784551    1.7915902999   -0.8160420367
 H    1.4233700643    3.0181279097   -0.1608462629
 H    1.9207789765    1.7169364684    0.9426804645
 H    3.8379620099    2.5035232384   -1.4321575760
 H    2.7578404958   -1.1459238414   -3.1602076587
 H   -0.3596856112   -0.3512637172   -1.9726321077
 H    0.4988061284   -1.6188125390   -1.0793959732