18

 C   -0.0984605297    1.5591067116    0.0477602862
 C    0.0636062354    0.0584145962   -0.0304640255
 C    0.7163678355   -0.6718304438   -1.1794262793
 C    1.6471278193    0.0937114364   -2.1233575891
 C    2.7832890979    0.5427958110   -1.2382795509
 C    2.6381846200    0.0960681134    0.0209844109
 C    3.5478336866    0.3373454155    1.0876996313
 N    4.2755247864    0.5107288046    1.9723847950
 C    1.3731219480   -0.6839608827    0.1979666634
 H    0.7904207390    2.0948037220   -0.2933747709
 H   -0.9433329566    1.8862272166   -0.5683667690
 H   -0.2969922473    1.8724880068    1.0778850593
 H   -0.7869583760   -0.4827341126    0.3779836877
 H    0.2271100687   -1.5601395431   -1.5608644878
 H    2.0137516532   -0.5461871412   -2.9364384126
 H    1.1549016471    0.9476362372   -2.6078432908
 H    3.5958721861    1.1717840096   -1.5816987537
 H    1.3812251365   -1.5532299874    0.8450975557