11

 O   -0.1682472687    1.2517599315    0.0101659611
 C    0.0332766829   -0.0553153720    0.0023970955
 N    1.1750859138   -0.6080685124   -0.0066044978
 C    1.2302531890   -2.0258738056   -0.0140156626
 O    2.2769659230   -2.6117283118   -0.0233331974
 N   -0.0071430762   -2.7202165999   -0.0111564786
 C   -1.0753643304   -2.0359923432   -0.0018726346
 O   -2.2949035774   -2.5476835717    0.0019741941
 O   -1.1741348211   -0.6801122680    0.0057167804
 H    0.7086518529    1.6640317237    0.0075305050
 H   -2.1877995278   -3.5107123505   -0.0036407150