21

 C    0.0353206889    1.5765718177    0.0134490574
 C    0.0572690562    0.0398906011   -0.0086652298
 C    0.6846726220   -0.4951466128   -1.2750468422
 C    1.5263635737   -1.5254391244   -1.3214231992
 C    1.9700714252   -2.2721095610   -0.0914588163
 C    1.0182370473   -2.0309795291    1.0847882259
 O    1.5847378591   -2.4482951614    2.3282956232
 C    0.7250278079   -0.5373102183    1.2495629448
 O    1.9366266026    0.1585492134    1.5037173606
 H    1.0512012524    1.9765110588    0.0116554274
 H   -0.4956345490    1.9650286441   -0.8615998578
 H   -0.4727977868    1.9468570203    0.9097183984
 H   -0.9898262090   -0.3009170943    0.0130335454
 H    0.4037476626    0.0107515618   -2.1966235126
 H    1.9374140483   -1.8497032278   -2.2739428382
 H    2.0425336587   -3.3480767514   -0.3004305287
 H    2.9750367597   -1.9413533091    0.2031787129
 H    0.0685644623   -2.5583416200    0.9033515576
 H    1.9719260292   -3.3210334493    2.2086821503
 H    0.0392726989   -0.4157442098    2.1038432013
 H    2.3780250598   -0.3419212386    2.2010630396