21

 C   -0.0513301615    1.3610836844   -0.3044796425
 C    0.2129903102   -0.1085719697   -0.0661720057
 C    1.6325745015   -0.6287901147    0.0888469189
 C    0.6892698686   -0.6128146470    1.2683735285
 O    0.8968881322    0.3847998902    2.2406343313
 C    0.1427547870   -1.8875725086    1.8723878384
 C   -0.0352439562   -3.1286501466    0.9689572369
 O    1.0482415164   -3.8203057092    1.6210384818
 C    1.1779115306   -2.7771207161    2.6067452776
 H    0.6104996690    1.9779049171    0.3067544660
 H    0.1049579843    1.6192827327   -1.3573412341
 H   -1.0825603812    1.6233784416   -0.0444597156
 H   -0.4660077949   -0.7775700811   -0.5903575967
 H    1.9087626169   -1.5747594132   -0.3651197929
 H    2.4241234645    0.1137956985    0.1013611529
 H    1.7069644744    0.1705796276    2.7158206779
 H   -0.7353560353   -1.6337323361    2.4711456968
 H   -0.9914755835   -3.6514450744    1.0999353310
 H    0.1469652183   -2.9979606058   -0.1041071589
 H    2.2028819406   -2.3854512989    2.6541316014
 H    0.8794238682   -3.1182494709    3.6063705867