22

 C   -0.2199724178    1.5137833206   -0.1852354309
 C    0.8283876236    0.4710002794    0.1979299516
 N    1.0332916953   -0.4482401045   -0.9256306443
 C    1.7682021624   -1.7109707031   -0.7549792415
 C    2.2548705716   -2.2307355435    0.5460846156
 O    1.7990869520   -1.9977356473    1.6448543911
 C    0.2733913448   -1.6662103164   -1.0919609074
 C   -0.7571922192   -2.1199893922   -0.0751095483
 C   -0.0981488639   -1.9762968900   -2.5317405955
 H    0.0643750872    2.0294590220   -1.1068803693
 H   -1.1997408515    1.0519759866   -0.3452727914
 H   -0.3266163653    2.2553159189    0.6124104087
 H    1.7912844307    0.9628574158    0.3766958730
 H    0.5572536123   -0.0315815028    1.1313060692
 H    2.4513567791   -1.9341074897   -1.5739130589
 H    3.1384267647   -2.9000008047    0.4369583107
 H   -0.4091250714   -2.0228493504    0.9522417730
 H   -1.6783119029   -1.5384387683   -0.1942492872
 H   -1.0116304818   -3.1703125055   -0.2504662407
 H   -0.1980630722   -3.0556793764   -2.6879436482
 H   -1.0589350859   -1.5112890959   -2.7809655563
 H    0.6549435783   -1.5843901528   -3.2186484731