15

 N   -0.0386569612   -1.1734597593    0.1227312797
 C   -0.0515563103   -0.0160880001    0.0874033125
 C   -0.0139996070    1.4137516158    0.0352813399
 C    0.5572154099    2.2152612677    1.2160132326
 C    1.3346009992    2.1195819481   -0.0400799401
 C    2.6961913583    1.5150584110   -0.3506167648
 C    2.7994338410    2.6916155989   -1.3473067253
 O    1.5152327569    3.2178298452   -0.9129181009
 H   -0.8189544011    1.8844927312   -0.5189489665
 H    0.0600662887    3.1546841724    1.4305332678
 H    0.8984878077    1.6584600386    2.0817030031
 H    3.4086459889    1.5472243516    0.4752550592
 H    2.6789182228    0.5133485181   -0.7814715991
 H    3.6039508102    3.4103876860   -1.1669205741
 H    2.7810674362    2.4162636348   -2.4066744241