23

 C    0.0007856977    1.6065550716    0.0722525140
 C   -0.0249216335    0.0719454972    0.0464094497
 C    0.3552024226   -0.4296508001   -1.3524150035
 C    0.4723069036   -1.9095953404   -1.5791814323
 C    0.4444115783   -2.9360336047   -0.7167160319
 C    0.3376962214   -2.9658406140    0.7482164569
 C    0.0029595600   -4.3242523621    1.3230496417
 C    0.5503057137   -1.9194534853    1.5612836239
 C    0.8893310936   -0.5133949541    1.1472732786
 H    1.0190310138    1.9839980350   -0.0820301149
 H   -0.6326436911    2.0314754375   -0.7137296613
 H   -0.3535852696    1.9923025423    1.0335418185
 H   -1.0492104960   -0.2578665867    0.2605537712
 H   -0.3789552050   -0.0395725213   -2.0730042732
 H    1.3065997981    0.0378104572   -1.6551075128
 H    0.5881553720   -2.1725066264   -2.6301823858
 H    0.5148657629   -3.9267802519   -1.1650992933
 H    0.7469102217   -5.0733627389    1.0231217483
 H   -0.0348894592   -4.3024397907    2.4148749880
 H   -0.9665923896   -4.6834843523    0.9559655652
 H    0.4590968580   -2.0900484446    2.6318414900
 H    1.9337011843   -0.4576596867    0.8036843016
 H    0.8351149823    0.1307853795    2.0319147414