16

 C    0.1380574350    1.4563571382    0.3329711742
 N    1.1010826783    2.1394890341   -0.5497410686
 C    2.1458521346    1.3626113722   -0.9727229030
 C    2.1234485352   -0.0021069487   -1.0968127870
 C    3.3866651604   -0.3369475147   -1.6970835814
 C    4.0560502732    0.8281296998   -1.8754822844
 O    3.2873740950    1.8982420923   -1.4289683330
 C    0.9009184992   -0.6808459766   -0.7213054600
 C   -0.0630401158    0.0134049844   -0.0956090258
 H    0.4687825118    1.4898398128    1.3908577302
 H   -0.8083817794    2.0054630741    0.2852997673
 H    1.3329632286    3.0883702124   -0.2950082445
 H    3.7492101833   -1.3204923056   -1.9546171891
 H    5.0234900006    1.0939032203   -2.2626319093
 H    0.7562963984   -1.7254875477   -0.9782962963
 H   -0.9997100084   -0.4521483874    0.1888797707