21

 C   -0.0191241524    1.5496942164    0.0120423061
 C   -0.0236409510    0.0480471896    0.0029604199
 C    0.7163480835   -0.8670040450   -1.0483946892
 C    1.7251518462   -1.2768859929    0.0472102165
 C    0.6527188371   -0.8797198262    1.0855660671
 C   -0.6088782406   -1.8301097216    1.0421809911
 C   -0.4755769342   -2.9376623454   -0.0283108061
 C   -0.5452606153   -1.8173887407   -1.0915711466
 C   -1.2594319045   -0.8940207517   -0.0394970093
 H    1.0024546810    1.9473485210    0.0447074735
 H   -0.5032733393    1.9545271565   -0.8850164074
 H   -0.5557242798    1.9439923245    0.8835891202
 H    1.0779363390   -0.5057543753   -2.0126535128
 H    2.1265681821   -2.2950376381    0.0531114021
 H    2.5624791993   -0.5719783536    0.0763800769
 H    0.9560858266   -0.5301031357    2.0738874923
 H   -1.0674171792   -2.0599449688    2.0044752169
 H    0.3897727951   -3.6078853149   -0.0065063981
 H   -1.3871713285   -3.5433987079   -0.0591031660
 H   -0.9455747374   -2.0355801489   -2.0821434694
 H   -2.3104483776   -0.6064947813   -0.0691189880