17

 C    0.3406814023    0.8922880362   -0.7442367493
 C    0.1652304646   -0.3506091509    0.1656575549
 C    0.3643667146   -0.0057336092    1.5781191218
 C    0.5455882612    0.2978622120    2.7258778358
 C   -1.1383311898   -0.9864529832   -0.0549200447
 C   -2.2135349583   -1.4884916140   -0.2584977037
 C   -3.4817706956   -2.1196330151   -0.5042489697
 C   -4.7155105246   -1.6734925316    0.1734309146
 O   -4.4852099506   -1.3523553900   -1.1917548177
 H    1.3314871023    1.3267829282   -0.5913088246
 H    0.2310876226    0.6041933329   -1.7923848130
 H   -0.4139286432    1.6448555925   -0.5063515660
 H    0.9426875834   -1.0768110480   -0.1131536119
 H    0.6997285425    0.5569626805    3.7440929283
 H   -3.4323148008   -3.1596689398   -0.8252188577
 H   -5.5065357835   -2.3980008986    0.3634028620
 H   -4.6588949071   -0.8390612119    0.8695644008