17

 O    0.0234302841   -0.0620089897   -0.0968642976
 C   -0.0038386999    1.1487334744   -0.0148071278
 C   -1.3185864109    1.9138652425    0.0895808106
 C   -1.2160112377    3.2459938498    0.8058702945
 O   -1.0235280934    3.1066332529    2.2341424536
 C    0.0122356023    4.1039390481    2.2312255652
 C    0.1004809638    4.0532545020    0.6778924714
 C    1.2695179874    3.2677328622    0.1834493773
 C    1.2319762085    1.9574537613   -0.0902855162
 H   -1.6694932977    2.0845034869   -0.9377890945
 H   -2.0614272625    1.2763471198    0.5776906674
 H   -2.1052145458    3.8589096977    0.6024333031
 H   -0.3402807879    5.0685272047    2.6209035553
 H    0.8977311333    3.7830348642    2.7894035847
 H    0.0308334540    5.0226835572    0.1783593990
 H    2.2137294121    3.8048876165    0.1086285646
 H    2.1256953803    1.4111286596   -0.3754991107