13

 N   -0.0029313317    1.4367262617    0.1698636860
 C    0.0258651278    0.0491419347    0.0364789946
 C   -1.0279019823   -0.8205174764   -0.0030997138
 O   -0.6004485293   -2.1676171972   -0.0392515773
 C    0.7174188188   -2.0612419160   -0.0356709184
 C    1.2059337538   -0.7871650842    0.0121848738
 C    2.6054309122   -1.0236682318    0.0156389697
 N    2.8926847643   -2.3084139477   -0.0297080760
 O    1.6386306986   -3.0053623027   -0.0634092234
 H    0.7154067586    1.9043823842   -0.3670474689
 H   -0.9058353402    1.8435979220   -0.0353845073
 H   -2.0955312637   -0.6893098228    0.0046144993
 H    3.4355408432   -0.3317797838    0.0510049716