11

 O   -0.0259615887    1.4190450919    0.0081543402
 C    0.0035614777    0.0029999176    0.0023378475
 C   -1.4123763933   -0.4661878313    0.0122825577
 C   -2.5743708052    0.2350814039    0.0242011852
 O   -3.5929237240   -0.6244510525    0.0293841854
 N   -3.0177757600   -1.9276513261    0.0204285570
 N   -1.7656519530   -1.7965533430    0.0105494334
 H    0.8799159496    1.7404173134    0.0016747220
 H    0.5154949162   -0.3940336572   -0.8882738086
 H    0.5302139428   -0.4010300380    0.8811385804
 H   -2.8004102521    1.2870601811    0.0296872700