17

 O   -0.0088627112    1.4090809362   -0.2552026385
 C    0.0428145667    0.0293605428    0.0017008505
 C    0.2840986361   -0.9140793566   -1.2002226069
 O   -0.9258500570   -1.6455900902   -0.9073049477
 C   -1.3521464284   -0.6620165286    0.0658064800
 C   -1.5407467956   -1.2799924108    1.4374292428
 C   -0.1135913447   -1.4229127787    1.9820374440
 O    0.2601441208   -2.2103858415    2.8073698604
 C    0.7678842020   -0.3624220711    1.2955546043
 H    0.8891071080    1.7576413490   -0.2512700244
 H    0.2275705073   -0.3887844590   -2.1620136506
 H    1.1694260536   -1.5601350257   -1.1773929899
 H   -2.1884249559   -0.0570136127   -0.2975095833
 H   -2.0986152858   -0.6052082968    2.1006089718
 H   -2.0587991412   -2.2407928572    1.4146192327
 H    1.7885788301   -0.7305469068    1.1661692225
 H    0.8021006851    0.5083610875    1.9629041822