20

 C    0.5837699488    0.1999664451   -1.0327241857
 N   -0.1054538583    0.0576745130    0.2522516150
 C    0.0300009786    1.2529880585    1.0814429861
 C   -1.4220502346   -0.4086477272    0.1587688641
 N   -2.5228485591    0.2941620843    0.3241224139
 C   -3.5538980354   -0.6066636121    0.1790235519
 C   -3.0691281163   -1.8561964295   -0.0855129001
 N   -1.6912784898   -1.7322333501   -0.0853955246
 C   -0.7264593173   -2.8041159474   -0.2101585067
 H    1.6495616060    0.3728591661   -0.8531876025
 H    0.4828619777   -0.7136535856   -1.6228810035
 H    0.1896143012    1.0397427052   -1.6281657837
 H   -0.4187346942    2.1435797417    0.6177949383
 H   -0.4611767485    1.0890324711    2.0417566387
 H    1.0947332063    1.4419327125    1.2519356182
 H   -4.5847960125   -0.2995148505    0.2693175751
 H   -3.5477836091   -2.8040654627   -0.2691822097
 H   -0.5133692492   -3.0464555577   -1.2578902056
 H    0.1996378523   -2.4922735996    0.2767667076
 H   -1.1060347367   -3.7020022153    0.2838424131