17

 O    0.2024967252    0.0558874952   -0.4441286362
 C    0.1131531510    1.1915964278   -0.0825055050
 C   -1.0214898938    2.0359940467    0.5413763946
 C   -0.0525066397    3.2443004126    0.5531165994
 O    0.6926417867    3.3470519359    1.7837772102
 C    1.7772632603    2.5952334832    1.2274952673
 C    3.2002038664    2.9581496641    1.4920105753
 C    2.6095060993    1.6645716093    2.0414959013
 C    1.0745035509    2.3931791013   -0.1170246579
 H   -1.8564363854    2.1477854086   -0.1596407288
 H   -1.4055921380    1.7171793355    1.5129034496
 H   -0.4091032763    4.2091025436    0.1922124936
 H    3.9117788752    2.9014770449    0.6747694535
 H    3.3726520132    3.7657670915    2.1953786268
 H    2.4016396988    1.6259931143    3.1053053625
 H    2.9120421978    0.7206844994    1.6004453449
 H    1.6206230683    2.6212812764   -1.0312449311