14

 N   -0.0315360582   -1.1823044869   -0.0006996761
 C   -0.0099463353   -0.0268923650    0.0254811659
 C    0.0048950875    1.4343156243    0.0810554849
 C   -0.2661051769    2.1498584116    1.4239094524
 C    0.8062345624    1.5374459083    2.3637317607
 C    1.8267693725    2.1904197414    1.4344694351
 C    0.8355473305    3.1659402446    0.9291357193
 N    1.3470808972    2.1109687885    0.0030829985
 H   -0.6084770103    1.8323514929   -0.7314170714
 H   -1.2772491990    2.3568109602    1.7653339239
 H    0.8048484727    2.0328862558    3.3372940813
 H    0.8135045542    0.4514844094    2.4924326014
 H    2.8961272487    2.2956700121    1.5548676161
 H    0.8549160140    4.2251187028    0.7133690980