18

 C   -0.1035500208    1.5551568385    0.0469075501
 C    0.0501949396    0.0549558685   -0.0527237602
 C    0.7154981277   -0.6610731603   -1.1969994567
 C    1.6634550720    0.1131596261   -2.1136984887
 C    2.7935577758    0.5355461564   -1.1828000770
 C    2.6205520681    0.0556881233    0.0618486397
 C    1.3572765507   -0.7032258780    0.1925107831
 C    3.8720916142    1.3519314825   -1.6133942386
 N    4.7420070218    2.0137450371   -1.9993821536
 H    0.7919239951    2.0917500540   -0.2742163688
 H   -0.9384512344    1.8952452254   -0.5757490318
 H   -0.3162860320    1.8542430390    1.0785913956
 H   -0.8073743909   -0.4880430961    0.3384344508
 H    0.2272530834   -1.5393979163   -1.6021999634
 H    2.0428218595   -0.5148388452   -2.9278640855
 H    1.1863521841    0.9809755768   -2.5846447134
 H    3.3113147766    0.2158802669    0.8810630194
 H    1.3285419294   -1.5788514686    0.8312138690