20

 O   -0.0003230373    1.4085373346    0.2472147744
 C    0.0199486651   -0.0086320141    0.1605136185
 C   -1.4143021632   -0.4801544369   -0.0500900609
 C   -1.5095392125   -1.9884492905   -0.1888604345
 O   -1.0901849188   -2.6907501397    1.0104364566
 C   -2.3378637871   -3.4174125081    1.1040018956
 C   -2.8838681898   -2.6590597860   -0.0984688270
 C   -4.2205767077   -2.1009840658   -0.3784181751
 N   -3.6879703337   -3.2404522688   -1.1587855131
 H    0.8873376506    1.7076042009    0.4642323802
 H    0.6497982633   -0.3478784946   -0.6790828962
 H    0.4185109056   -0.4661076575    1.0770837989
 H   -2.0293598088   -0.1471442211    0.7926165118
 H   -1.8136082674   -0.0063982160   -0.9564311904
 H   -0.9217043745   -2.3322149393   -1.0558825721
 H   -2.2070442690   -4.4941295386    0.9398341553
 H   -2.8393405217   -3.2503505438    2.0647130485
 H   -5.0604246039   -2.3447775126    0.2670953453
 H   -4.2808713421   -1.1230353828   -0.8497086037
 H   -3.3609198868   -2.9238490593   -2.0693705222