15

 C    0.1214277079    1.4443518621    0.0230507849
 N   -0.1055149317    0.0182995730   -0.1180655727
 C    0.5412670538   -0.6941935616   -1.0837913137
 N    1.1591799869   -0.1136368811   -2.1256401006
 N    1.5899351887   -1.1898465455   -2.8177007993
 C    1.2437792101   -2.3369622040   -2.1901061358
 C    1.6064290226   -3.6505229514   -2.7402469880
 O    1.3382454890   -4.7110327951   -2.2354220942
 N    0.5749953035   -2.0532688689   -1.0800910377
 H    1.1587555782    1.6927250568    0.2893648036
 H   -0.1119087514    1.9479867081   -0.9184128167
 H   -0.5449984241    1.8315076259    0.7964977514
 H   -0.2815653303   -0.5107643199    0.7209659880
 H    2.1036974631   -1.0589430380   -3.6743116379
 H    2.1718397337   -3.5845297804   -3.6986640312