14

 O   -1.2272619857    1.6709839401   -0.0092432226
 C   -0.1903492719    1.1193537745   -0.2633323331
 C    1.1633072399    1.7048523729    0.0929151883
 C    1.2817963918    2.5088359052    1.4524585339
 C    2.2871669987    1.4289942016    1.8320565918
 N    3.2991649724    0.9571414948    2.5304495835
 C    3.7003631920   -0.0741173483    1.7073212125
 N    3.0378267142   -0.2350246346    0.5574897495
 N    2.1047692572    0.7368965065    0.7069810178
 H   -0.1479663822    0.1371116142   -0.7807071178
 H    1.5890686704    2.2227068832   -0.7742831715
 H    1.6962456195    3.5121975141    1.3464005043
 H    0.3533848965    2.5469464827    2.0230668387
 H    4.5116228771   -0.7360698470    1.9728165745