17

 C    0.0937459988   -1.1657210699    0.0070487431
 C    0.0323195485    0.0337762506    0.0135916760
 C   -0.0868004836    1.4749815718    0.0165523286
 C   -0.7129259739    2.1692674428    1.2470839546
 C   -0.4782873893    3.5708368943    0.6324734879
 C    1.0582860688    3.4537678875    0.3878194248
 O    1.2470248254    2.0919558635   -0.0100310860
 C   -1.1145003423    3.3853803725   -0.7340921874
 C   -0.8826361942    2.1257998736   -1.1155750727
 H    0.1549079741   -2.2258332752    0.0023590614
 H   -1.7674341335    1.9294155779    1.3828871931
 H   -0.1472705644    1.9719493769    2.1610194555
 H   -0.7824608110    4.4405319632    1.2132604715
 H    1.4102620882    4.1279494212   -0.4009789463
 H    1.6268494792    3.6481623818    1.3058729085
 H   -1.5572243797    4.1792434822   -1.3222223470
 H   -1.0826174612    1.6530593553   -2.0671489557