15

 C   -0.0140294824    1.4843174240    0.0028960852
 N   -0.0070631091    0.0398639944    0.0407667220
 C   -0.0357384254   -0.8311294400   -1.0531319559
 N   -0.0207912904   -2.1037686855   -0.7374589749
 C    0.0201778507   -2.0943853013    0.6380049580
 C    0.0289700830   -0.8021923419    1.1160865570
 N    0.0692369656   -0.8779243878    2.4811508613
 C    0.0829505200   -2.2493216643    2.7476810926
 N    0.0543113784   -3.0003663654    1.6734239858
 H    0.8892175431    1.8986384050    0.4643895753
 H   -0.0462082321    1.8071277378   -1.0394877674
 H   -0.8916900600    1.8914547745    0.5171437840
 H   -0.0671786383   -0.4275482097   -2.0550825365
 H    0.0873488667   -0.1401717928    3.1629323524
 H    0.1146053401   -2.6054012369    3.7665164711