17

 O   -0.1364055841    1.4689221451   -0.0540981994
 C   -0.0164356243    0.0462194603    0.0375783874
 C   -1.4432594639   -0.4958748184    0.0294080356
 O   -2.2095909286    0.1807570502    0.9710553764
 C   -2.0243220887   -0.7966926080   -1.4210743850
 O   -1.1620048012   -1.9795651917   -1.4143872029
 C   -1.5527237572   -2.0585723979   -0.0048359637
 C   -3.0708875938   -2.2626492273   -0.1108113257
 C   -3.3893312922   -1.4019973074   -1.0797921109
 H    0.7131714350    1.8635205135    0.1600431064
 H    0.5594058585   -0.3686048094   -0.7942518023
 H    0.4648974193   -0.2398221178    0.9847939153
 H   -1.8542572379    1.0803699598    0.9974230615
 H   -1.8959156894   -0.1430398406   -2.2826177517
 H   -0.9412529071   -2.7253133700    0.6033107568
 H   -3.6833628457   -2.9199566675    0.4871378954
 H   -4.3444425486   -1.1443128229   -1.5117310432