17

 C   -0.0348765763    1.4337609777    0.0346151620
 C    1.3572856127    0.8637042138    0.0159586770
 C    0.1644203095   -0.0647740342    0.0356017230
 N   -0.0985462394   -0.7471276950    1.2613755778
 C   -0.5714438212   -1.9043975029    1.2426172641
 C   -0.9725331121   -2.9192399925    2.2908344729
 C   -1.3418430834   -3.7848673685    1.0682534327
 O   -0.9176424779   -2.7179305405    0.1688049284
 H   -0.3851617062    1.8734941710    0.9608463179
 H   -0.4252996048    1.8915215185   -0.8674445052
 H    1.9357771938    0.9246766195   -0.8990905001
 H    1.9365058983    0.9228318905    0.9297281960
 H   -0.0642625103   -0.5931412349   -0.8867619866
 H   -0.1534060839   -3.2893348513    2.9099301052
 H   -1.8026174991   -2.6156447864    2.9311548921
 H   -0.7438986166   -4.6867274790    0.9151903743
 H   -2.4033449931   -4.0089088060    0.9365872585