14

 C   -0.0182010957    1.5354455779   -0.0095964883
 C   -0.0071203903    0.0416010029    0.0414600389
 C   -0.0338306337   -0.8087820592   -1.0209192367
 O   -0.0136517401   -2.1587956420   -0.6392584010
 C    0.0260829566   -2.0907244971    0.6866541369
 C    0.0335232031   -0.8267277017    1.2001616028
 C    0.0773779326   -1.0975593515    2.5939096593
 N    0.0936730595   -2.3897028969    2.8510580756
 O    0.0593234267   -3.0588837544    1.5810339091
 H    0.8758099475    1.9554081805    0.4645619857
 H   -0.0523261384    1.8938765615   -1.0415954612
 H   -0.8865400602    1.9441871107    0.5189479437
 H   -0.0671114503   -0.6493423438   -2.0854813381
 H    0.0986795426   -0.4249933169    3.4402998133