21

 C   -0.1597562866    1.5224220485   -0.0035326328
 C    0.0746600962    0.0088219471   -0.0249413453
 C    0.7344825929   -0.4749308787   -1.3188278075
 C    0.8306599141   -2.0014052442   -1.3033417933
 C    1.2954545401   -2.6155902739    0.0102103617
 O    1.7280859035   -3.7342987755    0.0817964704
 O    1.1308436017   -1.9024775647    1.1509562089
 C    0.8927654938   -0.4730619262    1.1843890749
 C    2.2371457675    0.2216532557    1.4009104925
 H    0.7686996248    2.0778911439   -0.1685105757
 H   -0.8601804085    1.8085036859   -0.7941950251
 H   -0.5837984728    1.8509697020    0.9514270905
 H   -0.9041109892   -0.4858144738    0.0513694418
 H    0.1589839205   -0.1434299587   -2.1897386927
 H    1.7311245925   -0.0292253751   -1.4222219767
 H   -0.1618604224   -2.4345530607   -1.4862808075
 H    1.4821866710   -2.3936779532   -2.0873471206
 H    0.2878508546   -0.3377384229    2.0877768041
 H    2.8798937844    0.1540396026    0.5179592952
 H    2.0971687088    1.2779093676    1.6460257065
 H    2.7583042030   -0.2575096158    2.2330989908