14

 C   -0.0418306365    1.4590616005    0.0089023787
 N   -0.0055937562   -0.0061493337    0.0005628729
 C   -1.2258305054   -0.6485747285    0.0046637547
 O   -2.3005237183   -0.0943640071    0.0144089333
 N   -1.1064773245   -2.0421087374   -0.0033938039
 C    0.1032217865   -2.6637268233   -0.0137605460
 N    1.2393301421   -2.0687567227   -0.0174339286
 C    1.2560850180   -0.6681987145   -0.0107397935
 O    2.2809204028   -0.0329719660   -0.0119712710
 H    0.9884225137    1.8054662404    0.0011896378
 H   -0.5784807182    1.8234095146   -0.8699302002
 H   -0.5616545438    1.8140809545    0.9016156617
 H   -1.9738544990   -2.5578242725   -0.0007085829
 H    0.0663152888   -3.7518469845   -0.0190441132