15

 O    0.1177653387    1.4816182455   -0.0099298286
 C    0.0296407275    0.0821145580   -0.0401794366
 C    0.6598908164   -0.4811021149   -1.2578135245
 N    1.1787146837   -0.9290367122   -2.1881900898
 C    0.6850380543   -0.5226575929    1.2171155415
 N    1.9248917577    0.1962621658    1.6062405132
 C    1.4605633676    0.4307049097    3.0031139310
 C    0.0795417025   -0.0890784911    2.5737488556
 O   -1.0065515594   -0.1399627458    3.0571888514
 H    1.0195292360    1.6671703595    0.3022315740
 H   -1.0323949731   -0.1878337006   -0.0452918310
 H    0.7691789668   -1.6133253243    1.1312318304
 H    2.7792289751   -0.3394568621    1.5183054348
 H    1.9237272347   -0.2075699853    3.7667755262
 H    1.5094043012    1.4734749005    3.3317159524