16

 O   -0.0713701980    1.4342556026   -0.2565200818
 C    0.0187447452    0.0508906527   -0.0173714721
 C   -1.3587572119   -0.6205964203   -0.0747020949
 C   -1.3537539737   -2.1349407220    0.2579429956
 O   -2.2550652514   -2.2539483437    1.3885798572
 C   -2.6403609781   -0.9972222939    1.6772282227
 C   -3.5489326477   -0.7913787080    2.8453445289
 O   -3.9585614008   -1.6795291396    3.5440528132
 N   -2.2307713876   -0.0279078906    0.9576381611
 H   -0.7537585925    1.7696884868    0.3379609904
 H    0.6687638191   -0.3687765659   -0.7933466627
 H    0.4788255424   -0.1722332143    0.9605600094
 H   -1.7969350211   -0.4109460009   -1.0569218621
 H   -1.7337368808   -2.7666550112   -0.5471909771
 H   -0.3707487069   -2.5036369709    0.5698251779
 H   -3.8039703163    0.2752959391    2.9947496844