21

 C   -0.7616295615    1.2337306761   -0.0712737254
 C   -0.0217926971   -0.0998898999   -0.0803286994
 C    1.0600349967   -0.2415986066   -1.1671178573
 O    1.8056248323    0.9674861646   -1.2060712704
 C    1.8819671196   -1.4247721476   -0.6315027072
 O    1.7113857916   -1.4549451550    0.7825430505
 C    0.7806702984   -0.4577996206    1.1640360736
 C    1.2237682384    0.5257162728    2.2106011230
 C    0.2290451147   -0.5768152243    2.5454304629
 H   -0.0615766917    2.0685785965   -0.0165507424
 H   -1.3541090521    1.3502635064   -0.9841053139
 H   -1.4504938889    1.2936590352    0.7778273720
 H   -0.7432591902   -0.9118019823   -0.2475795335
 H    0.6286065655   -0.4630146130   -2.1538086377
 H    2.5530152513    0.8404464693   -1.7979381889
 H    1.5328739515   -2.3750858099   -1.0600858412
 H    2.9471062990   -1.3125668343   -0.8755627037
 H    2.2359450752    0.4085522592    2.5804121076
 H    0.8675395860    1.5487065941    2.1687938171
 H   -0.8074844855   -0.3041615317    2.7180751560
 H    0.5841093670   -1.4099629592    3.1416885384