23

 C   -1.0438031833   -1.5228977245    0.4479374724
 O    0.0657008101   -0.7325281590    0.0857731531
 C    0.7875805098   -1.1393173690   -1.0210361876
 C    0.2285287936   -1.7949399031   -2.2477170386
 C    1.3490281974   -2.4876638158   -1.4886485233
 C    2.6767866797   -1.8146622677   -1.8449215199
 C    2.1363413254   -0.4434113471   -1.2874510956
 C    2.1233681537    0.7469630354   -2.2457965079
 C    2.8315117249   -0.0751560582    0.0259286901
 H   -1.8558799539   -1.4602173085   -0.2899366988
 H   -0.7662390414   -2.5792295075    0.5772846309
 H   -1.4078038869   -1.1352630359    1.4021375788
 H   -0.7456325918   -2.2563231597   -2.1221584992
 H    0.3949664263   -1.3976955405   -3.2474814737
 H    1.2300935780   -3.4925861500   -1.1022908046
 H    3.5329637741   -2.1835033694   -1.2751975364
 H    2.9318824391   -1.8279253225   -2.9108203960
 H    1.6360452125    0.5050642145   -3.1949383986
 H    1.5938359064    1.5981239483   -1.8034980940
 H    3.1451773163    1.0724721085   -2.4720796188
 H    3.8684245967    0.2225674291   -0.1658426475
 H    2.3214548098    0.7553063282    0.5229113444
 H    2.8410855235   -0.9201476657    0.7212395308