17

 C   -0.1131896359    1.5340341899    0.1024073282
 C   -0.0364810116    0.0434079131    0.0171439371
 C    0.0767861674   -0.7157488806   -1.0764786880
 C    0.1068792779   -2.2108418584   -0.7645487688
 C    1.2319472288   -2.9222576680   -1.3626552105
 C    2.1518388239   -3.5083187474   -1.8665164606
 C    0.0972050768   -2.2251521372    0.7736846590
 O    1.2042132940   -1.5752554894    1.3847339727
 C   -0.0314336381   -0.8363336281    1.2333239869
 H    0.7333548069    1.9393203185    0.6701534236
 H   -0.1112258562    1.9928802837   -0.8895257352
 H   -1.0238165831    1.8554413088    0.6233469270
 H    0.1820084940   -0.3512558909   -2.0916936760
 H   -0.8251362468   -2.6799459077   -1.1154465861
 H    2.9713287791   -4.0238055234   -2.3023772300
 H   -0.3004232839   -3.0861277222    1.3030771710
 H   -0.5123100632   -0.5445085806    2.1628961197