23

 C   -0.2364202394    1.5387926021    0.0104782993
 C    0.0645655002    0.0409163720    0.0026270907
 C    0.8951686627   -0.5229429426   -1.1827518170
 C    2.2324756886    0.2538655418   -1.2956506007
 C    3.0688499311    0.1563251507    0.0033256739
 C    2.2323862814    0.2403093641    1.3031891907
 C    0.8950932694   -0.5352997299    1.1820985907
 C    1.1545478752   -1.9425142776    0.6595605753
 C    1.1546011434   -1.9355408715   -0.6749186595
 H    0.6581079276    2.1660683525    0.0134634009
 H   -0.8264005422    1.8149800896   -0.8709103403
 H   -0.8258708640    1.8058233900    0.8950403498
 H   -0.8958665651   -0.4892262146   -0.0001810983
 H    0.3571256558   -0.4876479013   -2.1359524107
 H    2.8237589610   -0.1316941868   -2.1343672602
 H    2.0132806463    1.3007805405   -1.5349628905
 H    3.5975693490   -0.8013818048   -0.0016495049
 H    3.8426585201    0.9318078028    0.0073969390
 H    2.8236208458   -0.1539553232    2.1378828048
 H    2.0131397698    1.2846681155    1.5533779414
 H    0.3569796598   -0.5099538601    2.1355762684
 H    1.3827702662   -2.7890557141    1.2975742058
 H    1.3828705470   -2.7753674350   -1.3217295887