16

 C   -0.1059001321    1.5601332370    0.0797042124
 C    0.0409162620    0.0287033362    0.0310325008
 C    0.7232463596   -0.4789798223   -1.2048134272
 C    2.0639842240   -0.7783069127   -1.3688028888
 O    3.1285459391   -0.7516646946   -0.5351730297
 N    2.2452059492   -1.1739661321   -2.6473118072
 N    1.0905844356   -1.1601080843   -3.3634883610
 C    0.1843623804   -0.7403066635   -2.4908967879
 H    0.8719285803    2.0514040479    0.0427762771
 H   -0.6848849322    1.9202962208   -0.7759935289
 H   -0.6147601935    1.8801056948    0.9949893642
 H    0.5869592140   -0.3093124004    0.9243999629
 H   -0.9510802778   -0.4308869413    0.1133068528
 H    2.8281677181   -0.4670864733    0.3342074405
 H    3.1049695961   -1.4715003158   -3.0753971089
 H   -0.8461839327   -0.6380171366   -2.8027714312