16

 C    0.0448075777    1.4043030642    0.0236468168
 O   -0.0040288788   -0.0095252628    0.0408645983
 C   -1.2309691771   -0.6002458048    0.0145895935
 C   -2.4508561728    0.0669000481   -0.0324350845
 N   -3.6304433092   -0.5753199134   -0.0566462313
 C   -3.6303187987   -1.8958789161   -0.0349530869
 O   -4.8266720632   -2.5301688607   -0.0598243252
 C   -2.4602147464   -2.6670275091    0.0122241861
 C   -1.2522427978   -2.0027558924    0.0370026952
 H    1.1018921881    1.6731891310    0.0527980538
 H   -0.4070525301    1.8138473973   -0.8894509120
 H   -0.4624511181    1.8373537228    0.8958601997
 H   -2.5046071405    1.1497050533   -0.0519032437
 H   -5.4939268429   -1.8311059065   -0.0910195199
 H   -2.5216462665   -3.7481103899    0.0281991219
 H   -0.3106253134   -2.5392462711    0.0736565384