12

 N   -0.0314367365    1.3521973713    0.1565426069
 C    0.0216687067   -0.0192041859    0.0480798305
 N   -1.0730743714   -0.7688763686    0.0314902115
 N   -0.6047330426   -2.0469243660   -0.0088890937
 C    0.7315442048   -2.1313597675   -0.0263829817
 C    1.2043375514   -0.8257432616    0.0086333675
 C    2.5388305431   -0.3714814748   -0.0013966722
 N    3.6207474421    0.0457068029   -0.0162917240
 H    0.7583280057    1.8443584947   -0.2339970709
 H   -0.9199434188    1.7515902979   -0.1084548604
 H   -1.2684597171   -2.8019247691   -0.0234184675
 H    1.2590058526   -3.0708016933   -0.0624080460