21

 C    0.5450370405    1.4266957326    0.1226853794
 C    0.3664659814   -0.0948215411    0.1010736434
 C    0.5033875669   -0.6517198580   -1.3073877999
 O    1.8528104192   -0.4831755587   -1.8234559323
 C    2.0790927819   -1.8889013701   -1.8774207075
 C    3.0990451257   -2.3949541878   -0.8778428690
 O    3.5312124484   -1.7647015019    0.0513335856
 C    0.5866803443   -2.1929260883   -1.5143637790
 C    0.2437616085   -3.1471655196   -0.3784504365
 H    1.5238783201    1.6967629542   -0.2829604481
 H   -0.2219228744    1.9270578167   -0.4793118143
 H    0.4788797376    1.8167088838    1.1423546126
 H    1.1199157221   -0.5596069518    0.7446938878
 H   -0.6214128926   -0.3694564336    0.4938824780
 H   -0.2168450871   -0.1577390104   -1.9737348990
 H    2.3863898217   -2.2276835237   -2.8780944725
 H    3.4157839822   -3.4491333176   -1.0644140120
 H    0.0415493351   -2.4878946610   -2.4143352802
 H    0.7897487891   -2.9166759825    0.5399722090
 H   -0.8265374855   -3.1015370053   -0.1520973408
 H    0.4732418048   -4.1815996357   -0.6553560348