19

 O   -0.0727336285    1.3718591919   -0.2882534453
 C    0.0003890994    0.0296427621    0.2103965602
 C   -1.3885011287   -0.5659383620    0.0638688665
 C   -2.0085880089   -0.5849843229   -1.3853802224
 O   -1.1557595341   -0.2019686046   -2.4393459149
 C   -2.2363291235   -2.0907993384   -1.2646252852
 C   -0.9156899736   -2.7876757963   -1.0335540224
 C   -1.5866866063   -2.0866211511    0.1153826012
 O   -2.0311265061   -2.7617919827    1.2407265269
 H    0.8051691973    1.7623620668   -0.2391596137
 H    0.7329512043   -0.5515363691   -0.3648492803
 H    0.3160363752    0.0231304713    1.2644165154
 H   -2.0762694928   -0.0722072560    0.7558987274
 H   -2.9541134896   -0.0285032367   -1.4159548798
 H   -0.7792562913    0.6485931016   -2.1742874930
 H   -3.1123813378   -2.6260093035   -1.6074261134
 H   -0.9914276160   -3.8692088141   -0.9823899923
 H   -0.0135420562   -2.4115090432   -1.5050438209
 H   -1.2679545725   -3.1373743330    1.6922667660