18

 N   -0.0973075328    1.4300825214   -0.0260837196
 C   -0.0350371583   -0.0333385930    0.0804327587
 C    0.7053463165   -0.3778465398    1.3812827613
 O    1.9955307688    0.1944616776    1.4054962111
 C   -1.4209164317   -0.6709726953   -0.0615501407
 C   -1.5265121757   -0.9267820477   -1.5728873354
 O   -0.1699546533   -1.1019229750   -2.0379241134
 C    0.7116663511   -0.6463885571   -1.1206177648
 O    1.9040874674   -0.7103760199   -1.2876154092
 H    0.8290494674    1.7933888893    0.1863829418
 H   -0.3307695998    1.7304407388   -0.9682228625
 H    0.1517683871    0.0439548074    2.2264126922
 H    0.7380772224   -1.4720441324    1.5011040602
 H    2.4509513543   -0.1355709769    0.6152494549
 H   -1.4574340877   -1.6214104371    0.4809148054
 H   -2.2096188999   -0.0187916290    0.3153651404
 H   -2.0800433522   -1.8309682241   -1.8322872833
 H   -1.9675888635   -0.0814502671   -2.1124795472