15

 C   -0.0263619231    1.4013289393   -0.0600151106
 N    0.0160740269   -0.0468740566    0.0176962572
 N   -0.0375686764   -0.7870976640   -1.1077035604
 C   -0.0175746734   -2.0256191450   -0.6264207970
 N    0.0425672442   -2.1180688575    0.7315234692
 C    0.0596948387   -0.8522019001    1.1121746159
 C    0.1183596539   -0.3619204392    2.5180869168
 C   -0.0514528988   -3.1638956322   -1.4852748109
 N   -0.0792786554   -4.0912043189   -2.1750285898
 H    0.5886719820    1.8308749438    0.7328815690
 H    0.3682607492    1.6982021625   -1.0310588193
 H   -1.0523513964    1.7687532247    0.0400198423
 H    1.0066082014    0.2543836032    2.6941211497
 H   -0.7605424539    0.2393593924    2.7733885281
 H    0.1564378013   -1.2239165222    3.1841691399