19

 C    0.2132328469    1.4997830231   -0.1594637836
 C   -0.1018378073    0.0219472550    0.1088921298
 C    0.5943667838   -0.5060443496    1.3287717332
 O    2.0106001732   -0.7758565422    1.2381452990
 C    1.1137720163   -1.8512736817    1.5715263176
 C    0.7927734146   -1.9850843886    3.0815964064
 C    1.2798990762   -0.6475479471    3.6817416242
 C    0.1172511500   -0.1830723856    2.7788291134
 O   -0.5776514001   -1.4403551190    3.1087968024
 H    1.2880499838    1.6447416530   -0.3033860387
 H   -0.3015653023    1.8509378673   -1.0582950329
 H   -0.1027934598    2.1355661256    0.6744511684
 H   -1.1815522884   -0.1193503290    0.2422644805
 H    0.1961908592   -0.5831705601   -0.7540011991
 H    1.0657867947   -2.6831614044    0.8772832640
 H    0.8943784700   -2.9550335568    3.5660041922
 H    1.0101227134   -0.5730126096    4.7343896659
 H    2.2910177585   -0.3020004302    3.4779928209
 H   -0.4811885628    0.7104368600    2.9529586363