13

 C   -0.0363264934    1.4907352426    0.0239727738
 C    0.0164647457    0.0368713846    0.0008698936
 C    0.0660112183   -1.1656098752   -0.0148248387
 C    0.0877984275   -2.6343146340   -0.0345598695
 O   -1.1997530717   -3.2004548196    0.1992583696
 C    0.6866837473   -3.1346716856   -1.2826368560
 C    1.1504312460   -3.5578140606   -2.3068193606
 H    0.7158512384    1.9022156038    0.7056348074
 H    0.1472414936    1.9116784071   -0.9703971739
 H   -1.0171503532    1.8437831669    0.3605840175
 H    0.6943370970   -2.9924540985    0.8074132257
 H   -1.7771579577   -2.8924094974   -0.5090014857
 H    1.5671128124   -3.9314727642   -3.2094946832