17

 N    0.0489332837    1.3379974351   -0.1995750113
 C   -0.0114370215    0.0912003112   -0.0309679714
 O    1.1068704364   -0.7365611274    0.0353101158
 C    0.7841785613   -2.1333900303    0.3228415453
 C   -0.6377804922   -1.9933130102    0.8124964871
 C   -2.0998390675   -2.5081396888    0.8592586755
 N   -2.2639856588   -0.9990811638    1.1932711231
 C   -1.0328009374   -1.2090793099    2.0899877865
 C   -1.2124591166   -0.8147673893    0.0474787574
 H    1.0216300323    1.6469602776   -0.2622971203
 H    0.8769175307   -2.7197530914   -0.5982830068
 H    1.5105088259   -2.4879112572    1.0578988868
 H   -2.5703851148   -2.8032801191   -0.0814786441
 H   -2.3963174926   -3.1572235629    1.6859578946
 H   -1.2468295564   -1.7855427880    2.9929931277
 H   -0.5067298019   -0.2820000916    2.3244174675
 H   -1.6571839706   -0.9837449540   -0.9372490336