19

 C    0.1002050267    1.4129268394    0.0766932860
 C    0.0290437619   -0.0671694867   -0.0571745185
 C    0.0802261474   -0.9009082051   -1.0983229328
 C   -0.0110822497   -2.2770331604   -0.4430253595
 C    1.0188762463   -2.0851634530    0.8007327547
 C   -0.1247682544   -1.0391488286    1.1361762598
 O   -1.0323202380   -0.5233246628    2.1557895693
 C   -2.1279733233   -1.0461980880    1.2881983538
 C   -1.1138888555   -2.0631928565    0.6821693717
 H    1.0043336075    1.7187541600    0.6192317655
 H    0.1124917988    1.9017238976   -0.9013577612
 H   -0.7470848018    1.7973551043    0.6546801707
 H    0.1985616926   -0.6968777179   -2.1536817630
 H    0.0301221157   -3.1740939183   -1.0599835636
 H    1.0680444144   -2.9466361415    1.4710205744
 H    2.0139989791   -1.7096858570    0.5480292775
 H   -2.9397112689   -1.4595118231    1.8907210687
 H   -2.4915627867   -0.2618852367    0.6187434215
 H   -1.1014048923   -2.9271753858    1.3517092049