20

 C   -0.2258139997    1.5373188734   -0.1552070020
 C    0.0066588397    0.0575228503    0.1186650468
 C    0.6846860011   -0.7995990899   -0.9925454767
 N    1.7872149044   -1.0423095762   -0.0539686955
 C    2.9909080920   -1.7815452883   -0.2070597319
 C    3.5823590554   -2.4428955389    1.0072470373
 C    2.9599337070   -3.2905573982   -0.0713304985
 C    1.2548660994   -0.2847356485    0.9692702962
 O    1.6441556510   -0.0209983382    2.0780563193
 H    0.6680436515    2.0053511126   -0.5811843011
 H   -1.0543982257    1.6876186927   -0.8545797920
 H   -0.4653581407    2.0614936520    0.7746369501
 H   -0.8954253897   -0.4124635924    0.5215911799
 H    0.1486565260   -1.7062375101   -1.2935836157
 H    0.9824435001   -0.2398422888   -1.8871541448
 H    3.6833253049   -1.3691586448   -0.9387418381
 H    4.6620693593   -2.4325687472    1.1003163758
 H    3.0481582398   -2.3185484919    1.9402064921
 H    1.9990495933   -3.7465782938    0.1386082646
 H    3.6071778209   -3.8701298238   -0.7199494659