17

 C    0.0342536749    1.5137170107   -0.0536296620
 C    1.5433860884    1.9186670990    0.0329698604
 C    2.1167271735    0.6864685201    0.6547226250
 C    1.2776215047   -0.3965187554    0.6596445290
 C   -0.0412504169   -0.0473594237    0.0272283523
 C    1.9919104874   -1.4953228757    1.2125344940
 C    3.2509598055   -1.0261486055    1.5263271233
 N    3.3239081001    0.3081220501    1.1746766665
 H   -0.4913270287    1.9391560809    0.8066499112
 H   -0.4463396099    1.9098350252   -0.9521121549
 H    1.9660942712    2.1151584579   -0.9629978651
 H    1.6837783989    2.8350103406    0.6186001754
 H   -0.9160092549   -0.3738643642    0.6005964422
 H   -0.1432245960   -0.4919499707   -0.9724603628
 H    1.6438882235   -2.5045324096    1.3737836662
 H    4.0941523551   -1.5212389031    1.9815898778
 H    4.1261982932    0.8967068434    1.3134997515