16

 C   -0.0565590851    1.5462864868    0.0087160542
 N    1.4632399094    1.3035109634   -0.0350246454
 C    1.2759407537    0.1605222879    0.9961841658
 C    1.8533700528   -0.9929969496    0.1683349458
 C    0.7861539019   -2.1108843675    0.3177108153
 O   -0.0268991357   -2.0248857423    1.5046645001
 C   -0.5179453829   -1.4105419333    0.3015978742
 C   -0.0035301629    0.0138997586    0.1381785175
 C    1.2124979261    0.0045419497   -0.8323241406
 H   -0.3774269848    2.1241365893    0.8803034765
 H   -0.4575080331    1.9740730889   -0.9151407148
 H    1.3281291189    0.3526292846    2.0660759952
 H    2.9072767799   -1.2707803548    0.1580615622
 H    0.9389258642   -3.1112818835   -0.0749409244
 H   -1.4295858355   -1.8182918830   -0.1218705150
 H    1.2036974330    0.0057081447   -1.9238376467