16

 O    0.1974898057    0.1463201771   -0.7482753490
 C    0.0661536237    1.2148571959   -0.2298210127
 C   -1.1455958319    1.9928941353    0.3284048383
 C   -0.1694544498    3.1103126159    0.7801757792
 C    0.4539441899    2.8678316880    2.1980878734
 C    1.6929856954    2.1730300442    1.5309403667
 C    1.0439413264    2.3476497335    0.1275800099
 C    0.7562857395    4.0673949278    2.9596697824
 N    1.0022469758    5.0325006713    3.5473316511
 H   -1.8066582399    2.3115586503   -0.4850628131
 H   -1.7538808041    1.4931130080    1.0878154871
 H   -0.4297358252    4.1370147853    0.5348768025
 H   -0.1477022556    2.2011239464    2.8225048652
 H    2.6040916992    2.7612621630    1.6427857313
 H    1.8928710834    1.1490978748    1.8517589937
 H    1.6729549672    2.7342603130   -0.6740912260