21

 C   -0.0160267765    1.3663379976    0.1504649144
 O    0.0539318551   -0.0365693457    0.0640891339
 C    0.6014644354   -0.4824614129   -1.1583906359
 C    0.6100443326   -2.0083094350   -1.1131834209
 C    1.3193155964   -2.6834300363   -2.3115680308
 C    0.6693666757   -2.3250922279   -3.6610349945
 N    2.7260120293   -2.2568794516   -2.3427559372
 C    1.2124941048   -4.1545971403   -2.1218511203
 N    1.1753472655   -5.3010874052   -1.9737940303
 H    0.9792466914    1.8315543453    0.0695478980
 H   -0.6574437391    1.7938303147   -0.6368848756
 H   -0.4432908197    1.6131594643    1.1253389243
 H   -0.0060460974   -0.1139106626   -2.0012777093
 H    1.6223039804   -0.0970187016   -1.2972883423
 H    1.1085527404   -2.3176344212   -0.1876582530
 H   -0.4181954321   -2.3775791341   -1.0509472214
 H    0.8052342380   -1.2609825255   -3.8635619441
 H    1.1352392439   -2.8918963257   -4.4724503114
 H   -0.3977684587   -2.5597948508   -3.6540665157
 H    3.1975971194   -2.5529896270   -1.4922578596
 H    3.2093883450   -2.7102417185   -3.1132037184