16

 N    0.0495365256   -1.1627793517    0.0654226196
 C    0.0838291858   -0.0068349710    0.0550813845
 C    0.0933404594    1.4336964172    0.0586596274
 C    0.5072784107    2.2450543777    1.2648955622
 C    1.6240443815    1.5266743785    2.0407079981
 C    2.4825996148    1.6209095486    0.7603270954
 C    3.9163039055    1.8796893075    0.6418561607
 O    3.3409089740    0.6228141892    0.2546621178
 C    1.3586216995    2.2736496438   -0.0084022238
 H   -0.7303633445    1.8663189166   -0.5020837141
 H   -0.1412096302    3.0167866286    1.6572734323
 H    2.0272624386    2.1162523505    2.8665442064
 H    1.3902726672    0.5179862527    2.3901029333
 H    4.2943675963    2.4911809483   -0.1768439086
 H    4.5440253020    1.8537925045    1.5317394672
 H    1.4564583340    3.0419060390   -0.7655827284