19

 O    0.0139075541    1.3414140554   -0.1451092785
 C    0.0220215314   -0.0383908318   -0.0247203568
 C    0.4876469863   -0.7961325584    1.2564708338
 C   -0.3765524465   -1.9259212503    0.6768642243
 C   -0.0256344083   -2.1322111562   -0.8646218344
 C   -1.4875547911   -1.7247575798   -1.2239801072
 C   -1.3371615384   -0.8701185435    0.0361519012
 O   -2.3396991637   -0.1576265726    0.6848973245
 C    0.7409325611   -0.8186132631   -1.1341098058
 H   -0.6749487279    1.6728141973    0.4434654709
 H    1.5612822725   -0.9406835393    1.4079794163
 H    0.0286569534   -0.3884214291    2.1615678529
 H   -0.7189790479   -2.7918245377    1.2414343945
 H    0.3982525872   -3.0673634358   -1.2246408337
 H   -1.6684922061   -1.2490019301   -2.1932758294
 H   -2.1978292635   -2.5450065415   -1.0705983309
 H   -3.0756499689   -0.7478785389    0.8759950121
 H    0.5513364737   -0.4151063541   -2.1321708224
 H    1.8206524224   -0.8788516604   -0.9731376813