16

 O    0.0554334711   -0.0649834035   -0.1367982250
 C    0.0152211571    1.1320632979   -0.0776932776
 C    1.2266280654    2.0451032263    0.0639448825
 O    2.3650237011    1.2411253567    0.3575913801
 C    3.5785133111    1.6017522752   -0.1320622060
 N    3.8602092540    2.4340211838   -1.0403867041
 C    2.7779867246    3.1057498555   -1.6882287178
 C    1.7870168148    2.2900678567   -2.4917152835
 C    1.3693517467    2.9085832967   -1.1812245886
 H   -0.9407255558    1.7002374796   -0.1545234031
 H    1.0469996739    2.7095326092    0.9236425573
 H    4.3572112934    1.0346225962    0.3717662951
 H    3.0504053433    4.0799990891   -2.0788895163
 H    1.3887722259    2.7175840930   -3.4049754291
 H    1.9490363273    1.2175908064   -2.5231208666
 H    0.6889144462    3.7534822312   -1.2102418374