17

 C    0.0164696093    1.5161900305   -0.0276922167
 C    0.0371664457    0.0093370592   -0.0492414585
 C    0.4261510913   -0.7571371134   -1.3071608888
 O    1.6149125845   -1.5580761600   -1.1577252807
 C    0.3318503518   -2.1568047245   -0.8883361022
 C   -0.1041464111   -2.0303659066    0.5590577682
 C    0.6140447024   -0.7935099596    1.1643915013
 O   -0.5657075006   -0.4677494259    1.9876599876
 C   -1.1009359096   -0.8227370540    0.6763373750
 H    1.0098425101    1.9253451908   -0.2403730290
 H   -0.6744900100    1.9158680771   -0.7783617253
 H   -0.3009598291    1.8682967660    0.9573034967
 H    0.2172701786   -0.3918137494   -2.3077475488
 H    0.0396947125   -2.9782973677   -1.5332972759
 H   -0.2635008879   -2.9026982646    1.1890493115
 H    1.5962475928   -0.7252097066    1.6290544413
 H   -2.1844097206   -0.7915716911    0.5450130440