17

 C   -0.0075621921    1.5748240788   -0.0363193971
 C    0.0203160190    0.0436900954    0.0806014307
 O    0.7327036908   -0.3847870302    1.2365847077
 C   -1.3337679732   -0.5206411896    0.0315425878
 C   -2.4490243699   -0.9772271817    0.0112465427
 C   -3.8103008884   -1.5251114473    0.0055553979
 O   -3.8607913888   -2.9213307701   -0.0895226863
 C   -4.5091322114   -1.0510557100    1.2857582034
 O   -4.9620701564   -1.8382131914    2.0755289838
 H    1.0149496779    1.9579941855    0.0075221989
 H   -0.4677630379    1.8871270925   -0.9782020418
 H   -0.5828946081    2.0121779627    0.7862165944
 H    0.5961807641   -0.3624180127   -0.7597583481
 H    0.1958545842   -0.1687788250    2.0072779818
 H   -4.3619440518   -1.0750306221   -0.8388526964
 H   -4.2246082345   -3.2242503841    0.7582168960
 H   -4.5520527435    0.0441573494    1.4387384645