18

 C   -0.5779060038    1.5738161562    0.1556657295
 C   -0.0443968722    0.1543540008   -0.0095382229
 C   -1.1591336984   -0.8917492743    0.1305992261
 C    0.9012466289   -0.1273448997   -1.2340109619
 C    1.9050498185   -0.8915117429   -0.2975237090
 O    3.2841847328   -0.7077245460   -0.4081298710
 C    1.1968297860   -0.1661869038    0.8470850061
 O    1.6410553702    0.2948953604    1.8640713666
 H    0.2234384874    2.3131729493    0.0681697702
 H   -1.3324825399    1.7944689149   -0.6070368519
 H   -1.0417948278    1.7005031843    1.1389470478
 H   -1.9116207869   -0.7437881079   -0.6516546601
 H   -0.7814372252   -1.9147659282    0.0400550922
 H   -1.6576504854   -0.8016598481    1.1009272100
 H    0.4770741866   -0.7071084341   -2.0552503617
 H    1.3548658839    0.7889014530   -1.6187192742
 H    1.6772703390   -1.9649022846   -0.3103684447
 H    3.5458035164   -0.1063950494    0.3008993190