21

 C    0.0032135643    1.5869670160   -0.0853530705
 C    0.0399058039    0.0446236868   -0.0094943027
 C    0.6525072078   -0.4880994627   -1.2275283940
 C    1.1354080655   -0.8892303334   -2.2526419616
 C    0.7486952517   -0.4977506880    1.2690061277
 C    0.8578660342   -2.0304837153    1.2356370584
 O    2.0441333896    0.0873031986    1.3085817361
 C   -0.0157630143   -0.0640212721    2.5337432347
 O    0.7900538217   -0.4539177834    3.6455835049
 H    1.0136103320    1.9865036332    0.0141143702
 H   -0.4077214132    1.9016255691   -1.0473395473
 H   -0.6237341398    2.0136177583    0.7020149998
 H   -0.9939752472   -0.3272184886    0.0291800235
 H    1.5691252509   -1.2520990268   -3.1511949974
 H    1.4994515515   -2.3367228440    0.4084922385
 H    1.2852470652   -2.3921385137    2.1740272258
 H   -0.1253427165   -2.4967328723    1.1066928115
 H    2.3533450217   -0.0345606114    2.2154298142
 H   -0.1587694983    1.0221978716    2.5337357501
 H   -1.0025419070   -0.5491281393    2.5714217410
 H    0.5028881860    0.0372756774    4.4195926072