19

 C   -0.2188085589    1.0973389171   -0.1240696198
 O    0.5907016162   -0.0498814684    0.0960461351
 C    0.9315950730   -0.6990126400   -1.0860465031
 C    1.4126916470   -2.1165172955   -0.9645659444
 C    0.0450551971   -1.8214270424   -1.5750664984
 N   -1.1686473217   -2.0612146431   -0.8367298018
 C   -0.1316875206   -1.9963932295   -3.0780772922
 C   -0.3871378750   -3.3932131307   -3.4390728774
 N   -0.5910232041   -4.5021580093   -3.6925996699
 H    0.3012119129    1.8333615489   -0.7542004331
 H   -1.1713114385    0.8320849213   -0.6004376304
 H   -0.4121575865    1.5422676306    0.8542400406
 H    1.4010432433   -0.0539747815   -1.8317608011
 H    2.2340177655   -2.4390941359   -1.5959375469
 H    1.4112098560   -2.5394473987    0.0339979493
 H   -1.3399203060   -3.0589607716   -0.7447958667
 H   -1.0681822057   -1.6825484618    0.1000696972
 H   -0.9778224140   -1.3894434502   -3.4181163822
 H    0.7619523901   -1.6584002792   -3.6138522850