16

 N   -0.3555522068    1.4711907363    0.0060261743
 C   -0.0476002996    0.0411514965   -0.0410910639
 C   -1.3631122310   -0.7318048372    0.2018368023
 O   -1.9523291809   -0.3130223341    1.4060488457
 C    0.6243579311   -0.4247210954   -1.3015694385
 N    0.8003817696    0.3511564897   -2.3389373557
 O    1.4248342110   -0.4849292351   -3.2752082659
 C    1.5503417165   -1.6706725426   -2.6800098698
 N    1.0865219190   -1.7175335162   -1.4735999296
 H    0.4926069116    2.0166149437    0.1181380588
 H   -0.7625256229    1.7636592252   -0.8790414953
 H    0.6148166992   -0.1913029640    0.8006981391
 H   -2.0302046874   -0.5695780850   -0.6638159910
 H   -1.1610988204   -1.8040307708    0.2712345314
 H   -1.8545349950    0.6509913430    1.4059755767
 H    2.0192096860   -2.4598721541   -3.2498643887