14

 O   -0.0178633761    1.5884037787   -0.3714713745
 C   -0.0233240915    0.2382026713    0.0433939589
 C   -1.4698157665   -0.2789679567    0.0093133949
 O   -1.6666331594   -0.8592758472   -1.2799854739
 C   -0.4476045970   -1.4481626040   -1.7084250584
 C    0.6540810694   -0.6299948033   -1.0444933598
 O    1.8183097395   -0.5807959233   -1.3324057141
 C   -1.7151347361   -1.2748118771    1.0722768879
 N   -1.8939335980   -2.0666265084    1.8941737769
 H    0.8923538405    1.8161681894   -0.5991881005
 H    0.4579787207    0.0975531085    1.0188896047
 H   -2.1782313016    0.5463394611    0.1122872553
 H   -0.3655826646   -2.5006206238   -1.3936090590
 H   -0.3922835891   -1.4017255853   -2.7982174383