19

 C   -0.5698438529    1.4130170558    0.0957824599
 C    0.0938116571    0.0442903520   -0.0271632254
 C    0.9027256819   -0.0687310200   -1.3502583535
 O    1.9946078886   -0.9865207825   -1.2689185410
 C    2.5421834807   -1.0885671004    0.0374673503
 C    1.4729812379   -1.6423631896    0.9987609452
 N    0.9504201500   -0.2318336166    1.1544313967
 C    2.3588455408    0.2227353991    0.8341673155
 H    0.1805886028    2.2091868815    0.1572827966
 H   -1.2058713435    1.6194692085   -0.7720405521
 H   -1.1840430992    1.4569108903    0.9984129025
 H   -0.6877054147   -0.7248350039   -0.0129273317
 H    0.2676935740   -0.4080115277   -2.1742458199
 H    1.2847682945    0.9256052227   -1.6257428938
 H    3.5206220750   -1.5658522312   -0.0631672547
 H    0.7614843344   -2.3648120854    0.5898434742
 H    1.8703276834   -2.0009505746    1.9535597392
 H    2.9537835921    0.2469403298    1.7509283983
 H    2.4554295068    1.1800858821    0.3172533338