14

 O   -0.5702292670    0.2584727059    0.1841093958
 C   -0.2015778623    1.3410168384   -0.1773670526
 C    1.2037370470    1.8734636248   -0.0014650138
 C    1.4159584097    2.7992382106    1.2812320686
 C    2.3902962079    1.7170001074    1.7340288236
 C    3.3372254469    1.0147114245    2.4419300318
 N    3.6153551043   -0.1107029443    1.7060339148
 N    2.9145707044   -0.1508969001    0.5979008407
 N    2.1722898488    0.9690262776    0.6426535915
 H   -0.8874361832    2.0721017911   -0.6620059926
 H    1.5675661720    2.3172882757   -0.9333379298
 H    1.8526566067    3.7740736842    1.0598612277
 H    0.5250318547    2.9245737907    1.8998338843
 H    3.8295957202    1.2039736736    3.3801174200