17

 C    0.0076532810    1.4190776926    0.0445644978
 N   -0.0560178885   -0.0275941097    0.0188445107
 C    0.5000154838   -0.6150610024   -0.9389049262
 O    0.4983005161   -1.9741582169   -1.0002928983
 C    1.0320485528   -2.5470454108   -2.1652412617
 C    1.1178052630   -4.0753082394   -1.9851062880
 N    0.0458874963   -4.6193961111   -2.8318854138
 C   -0.4194274072   -3.6296246885   -3.4658342079
 O    0.1132556082   -2.3891734819   -3.2599287745
 H    0.4972016045    1.7463310417    0.9685425077
 H    0.5462598726    1.8606513808   -0.8094984465
 H   -1.0086340786    1.8278051842    0.0607494601
 H    1.0258382740   -0.1249433856   -1.7716220125
 H    1.9624516445   -2.0457507490   -2.4483630198
 H    2.0840285270   -4.4750084598   -2.3078891856
 H    0.9647161089   -4.3433821874   -0.9371381900
 H   -1.2204401784   -3.6575963768   -4.1950218412