25

 C    0.0274081985    1.6169381025    0.0869799070
 C   -0.0144961786    0.0892482527   -0.0387832736
 C    0.7723382912   -0.4761654471   -1.2365619543
 C    2.2599513777   -0.0925342065   -1.1699527177
 C    0.6277716423   -2.0124167164   -1.3619674886
 C   -0.8334980771   -2.5128115792   -1.3704108537
 C    1.2606026802   -2.5168103473   -2.6663484135
 C    2.0478375429   -3.8120149750   -2.5864836290
 O    1.1106519401   -1.9253133664   -3.7117591821
 H    1.0317514672    1.9879977271    0.3101686859
 H   -0.3067345765    2.0975382446   -0.8395491882
 H   -0.6320364840    1.9558888346    0.8921889236
 H    0.3631365110   -0.3637551980    0.8894886808
 H   -1.0632426306   -0.2142367877   -0.1205356009
 H    0.3543907745   -0.0494210147   -2.1574928184
 H    2.7249854750   -0.4797512066   -0.2543878327
 H    2.8118918811   -0.4899709884   -2.0263547251
 H    2.3968405378    0.9916491995   -1.1768004865
 H    1.1465280005   -2.4893378762   -0.5187619925
 H   -0.8816065088   -3.5863399847   -1.5827981952
 H   -1.3182753249   -2.3512398206   -0.4054553580
 H   -1.4087558386   -1.9947127706   -2.1439122395
 H    1.4819901866   -4.5840648348   -2.0538776700
 H    2.3083991069   -4.1594512135   -3.5870830099
 H    2.9649235357   -3.6410627473   -2.0095133581