19

 C   -0.0270503626    1.5057357488    0.0003914136
 C    0.0269235394   -0.0114901738    0.0147007869
 O    1.0854646768   -0.6084952682    0.0329387990
 C   -1.2739312432   -0.7349876727    0.0035251615
 C   -1.3715763926   -2.0742949659    0.0498186196
 C   -2.8010374107   -2.5519804644    0.0051995040
 C   -3.6156582932   -1.2582220477    0.0369847324
 C   -3.4679243879   -0.3526026988    1.2308094466
 C   -2.6312065447   -0.0988659968   -0.0090014825
 H    0.9843917112    1.9075755694    0.0655347829
 H   -0.5017376709    1.8611816249   -0.9219277503
 H   -0.6343782210    1.8790492502    0.8323788691
 H   -0.5162897149   -2.7346739026    0.1284834592
 H   -2.9895845902   -3.1298186800   -0.9103006799
 H   -3.0361249559   -3.2247159681    0.8405127664
 H   -4.5456275595   -1.2146280597   -0.5169985435
 H   -4.2874244447    0.3292795652    1.4325594867
 H   -2.9586959809   -0.7237304625    2.1150003786
 H   -2.8168342543    0.7937391028   -0.5954426804