23

 C    0.0273804786    1.3740039411   -0.0860872594
 O   -0.0757384785   -0.0238776479    0.0190639479
 C    0.7020651628   -0.5528584698    1.0720672996
 C    0.5507031769   -2.0679835383    1.0599862720
 C    1.2727181871   -2.7547760581    2.2170057746
 C    1.1392058774   -4.2830290399    2.1605556540
 O    1.7732996074   -4.8075687139    1.0113544205
 O    2.6606564733   -2.4098537293    2.1245555803
 C    3.3674066093   -2.4573724825    3.3472508804
 H    1.0638014100    1.6959131027   -0.2774733430
 H   -0.5996122303    1.6883323615   -0.9242969866
 H   -0.3223530217    1.8817337104    0.8277717735
 H    1.7598727753   -0.2741797715    0.9528839808
 H    0.3649808414   -0.1389721640    2.0403615575
 H   -0.5148578422   -2.3179227715    1.1150533786
 H    0.9241484424   -2.4694929345    0.1135124090
 H    0.8701359724   -2.3908072239    3.1767190497
 H    1.5544250129   -4.7251201825    3.0810762232
 H    0.0824905526   -4.5670813865    2.1127317830
 H    2.6186897655   -4.3443883727    0.9501797984
 H    4.3923173828   -2.1416724708    3.1371385502
 H    2.9298735939   -1.7729917559    4.0890010204
 H    3.3954176107   -3.4659104224    3.7834668954