19

 O    0.1344177029    1.3742361411   -0.2768726319
 C    0.0639942416   -0.0121884957    0.0118947619
 C   -1.3523146673   -0.5684453959   -0.1715234469
 C   -1.4095505753   -2.0843319164    0.0881510846
 O   -0.9486275987   -2.3803885859    1.3814010735
 C   -2.8122664940   -2.6499678072   -0.1021102294
 O   -3.3472940236   -3.2512131034    0.8106620058
 C   -3.5451361102   -2.4948035899   -1.4224015344
 O   -4.7477177536   -3.2048447079   -1.4291779245
 H   -0.3072543385    1.8479306248    0.4348273603
 H    0.7449050056   -0.4998830081   -0.6953434810
 H    0.4226561338   -0.2406725123    1.0231187738
 H   -2.0380994734   -0.0666034755    0.5237835187
 H   -1.6859034196   -0.3426760481   -1.1903866406
 H   -0.7682847453   -2.5852780329   -0.6605009467
 H   -1.6544843610   -2.8959008360    1.8021200932
 H   -3.7149118708   -1.4187561120   -1.5941694633
 H   -2.8823858730   -2.8333189141   -2.2344044711
 H   -4.8495512897   -3.5566300545   -0.5317397921