13

 O   -0.0452475145   -0.0160064273   -0.0091115445
 C    0.0078683410    1.1940819677   -0.0199664700
 C    1.2586685370    1.9519241721    0.0180085318
 C    1.3828633507    3.2827364244    0.0083732656
 C    2.8330486513    3.6543376558    0.0576858690
 O    3.5390067854    2.4210903258    0.0974427790
 C    2.6263210205    1.3216515280    0.0749695473
 H   -0.9141055485    1.8146139562   -0.0603934777
 H    0.5760674990    4.0050982386   -0.0290680162
 H    3.1377137812    4.2426838849   -0.8232465165
 H    3.0727102671    4.2623064535    0.9453210214
 H    2.7582377145    0.7004141597    0.9717246133
 H    2.8234053253    0.6822806307   -0.7967629925