17

 O    0.0068970513   -0.0002137543    0.0035953423
 C   -0.0286564826    1.1996347475    0.0107692331
 C   -1.2808520635    2.0919197262   -0.0280622831
 C   -0.7074946587    3.5185547986    0.0745131601
 C    0.6382644889    3.3964015346   -0.6738042378
 C    1.1931803444    2.1616954098    0.0421880463
 O    1.4974568392    2.5307341571    1.3937115555
 C    0.3601890240    2.9580569760    2.1143323965
 O   -0.4251884517    3.9011697013    1.4258725542
 H   -1.7896055496    1.9513047273   -0.9883475953
 H   -1.9898448476    1.8311940098    0.7618437176
 H   -1.3764054689    4.2868235486   -0.3140103801
 H    0.4879511840    3.2115577214   -1.7433088244
 H    1.2697177086    4.2754235340   -0.5371207999
 H    2.0915321355    1.7052746308   -0.3716529926
 H   -0.2512679900    2.0841240516    2.3975207419
 H    0.7270076568    3.4495868598    3.0175028559