19

 C   -0.2855928275    1.4437503987    0.0056576257
 N    1.1238487922    1.0335067629   -0.0121861686
 C    0.0585432653   -0.0065970883    0.0322867993
 C   -0.0012767576   -0.7704535346    1.3012607580
 C   -0.1250265984   -2.0946557068    1.3676783840
 C   -0.1970072297   -3.0112674812    0.1761994979
 C   -0.3314874318   -2.2831973177   -1.1463024532
 N   -1.5341058561   -1.4463563422   -1.3006290553
 C   -0.2083136122   -0.8029560543   -1.2113218225
 H   -0.6072227983    1.9389669654    0.9182970532
 H   -0.7362731152    1.8364622028   -0.9029039862
 H    1.4965376917    1.1015169100   -0.9572120250
 H    0.0811634976   -0.1812131796    2.2100578213
 H   -0.1573285481   -2.5758237085    2.3419949268
 H    0.7088207628   -3.6344490921    0.1498448142
 H   -1.0355384777   -3.7119629645    0.2911711708
 H   -0.0017145877   -2.8452371917   -2.0177825180
 H   -1.8480857017   -1.4579461610   -2.2673204289
 H    0.1977601625   -0.3671638173   -2.1239860336