16

 C   -0.0192480053    1.6007628600    0.0107161845
 C    0.0540526947    0.1041133571    0.0087641143
 C    0.6160587966   -0.9287523284   -0.9269614340
 O    1.1004848812   -1.7406190891    0.1719538933
 C    0.6653864591   -0.7602331207    1.0725729159
 N    0.8377282000   -0.6512462097    2.3060053521
 C   -0.8770353785   -0.7964576154   -0.8568194561
 C   -1.7784743209   -1.8421721295   -0.2979647941
 O   -2.8982013410   -2.0255273677   -0.7084915116
 H    0.9367391871    2.0332748000    0.3205065936
 H   -0.2671059365    1.9833650147   -0.9832218991
 H   -0.7870461259    1.9482464614    0.7085121838
 H    1.2300152237   -0.8682306515   -1.8153354859
 H    1.3686717493   -1.4366212588    2.6857626155
 H   -1.3196504692   -0.2443949201   -1.6819554289
 H   -1.3571950344   -2.4481466125    0.5279334267