21

 C    0.0779130386    1.5180863325    0.1044924476
 C   -0.0691367416    0.0287112547   -0.0439814742
 C    0.4965110856   -0.7089964789   -1.2864354345
 C   -0.6353495328   -1.7626713046   -1.1590630939
 C   -0.4013534434   -2.7463483123    0.0178769588
 C   -0.7983171704   -1.6258724778    1.0152826127
 C   -1.4530334760   -1.9557774143    2.3284530067
 O    0.2974826704   -0.6835156953    1.1687394942
 C   -1.3878480635   -0.7953525615   -0.1661079912
 H    1.1296816359    1.7791212621    0.2693813718
 H   -0.2651711850    2.0356739511   -0.7969113621
 H   -0.4990779466    1.8814673076    0.9601413677
 H    0.3643096415   -0.1022005542   -2.1886674715
 H    1.5339689710   -1.0506214218   -1.2259547707
 H   -1.0688713741   -2.1590207569   -2.0765962488
 H   -1.1523443143   -3.5436577593    0.0145534631
 H    0.5938700481   -3.1838075687    0.1397134177
 H   -0.7414001255   -2.4665424037    2.9874234257
 H   -1.7889533988   -1.0454301835    2.8339479298
 H   -2.3145493060   -2.6145060999    2.1801307014
 H   -2.3997981831   -0.4066704750   -0.2555915503