20

 C   -0.0900880880    1.5612352209    0.1465310840
 C    0.0120120108    0.0484084011    0.0484631839
 C   -1.3346804297   -0.6932111621   -0.0292302927
 C   -1.0628005671   -2.0752696168    0.5883106630
 C   -0.1004151065   -1.7602090483    1.7473315546
 C    0.8287944912   -0.6641507724    1.1850749364
 N    2.0098695123   -1.2333130437    0.5101081321
 C    1.8694798937   -0.9658822106   -0.7208799866
 O    0.7959565733   -0.2690790130   -1.1509186150
 H    0.9050879497    2.0149146146    0.1714241753
 H   -0.6342076916    1.9746913287   -0.7083390442
 H   -0.6209126479    1.8457321098    1.0607685208
 H   -2.0725535246   -0.1509867006    0.5741781828
 H   -1.7083210829   -0.7275933150   -1.0557658324
 H   -1.9744324671   -2.5826078763    0.9145346665
 H   -0.5714439863   -2.7257786376   -0.1435725103
 H   -0.6614246649   -1.3626340813    2.6017019561
 H    0.4706109720   -2.6240694756    2.0942935477
 H    1.1649755390    0.0248002787    1.9659974445
 H    2.5607371445   -1.2527190204   -1.5068704565