17

 O   -0.0118038000    0.0133981563   -0.2148798389
 C    0.0258914195    1.1912590091   -0.0009459000
 O   -1.1259747506    1.9175643476    0.1381490452
 C   -0.9216044388    3.2235704042    0.7015315925
 C   -0.1316908931    3.0693281330    2.0255081310
 C    1.1316889313    3.1889111562    1.1594432083
 C    0.3220259403    3.9670537226    0.0724725238
 C    1.0116867336    3.1729843068   -1.0383760422
 C    1.2583539462    2.0681493311    0.0452034280
 H   -1.8930195300    3.7151619663    0.6902480598
 H   -0.2439245577    3.9495137306    2.6652553843
 H   -0.3216716050    2.1619575620    2.6058048681
 H    2.0820490667    3.5279363193    1.5716293888
 H    0.2331039604    5.0532898953    0.0405085721
 H    0.4506259739    2.8929554769   -1.9336482401
 H    1.9509287443    3.6509364294   -1.3283543270
 H    2.1611918991    1.4632804632   -0.0018002839