18

 O    0.1562667231    1.3239629241    0.4537215968
 C   -0.0369179888    0.0896146177   -0.2249815669
 C   -1.4736920752   -0.3161963734   -0.0423499143
 O   -1.9434170064   -1.3353949261   -0.9260289571
 C   -2.5639741307   -0.0454875150   -0.9998653892
 C   -3.8890211049    0.0754859267   -0.2537743048
 C   -3.5419380158   -0.1396016632    1.2218500234
 N   -3.0269013125   -1.4807103539    1.5557160492
 C   -2.0774817522   -0.3657918718    1.3517840894
 H    1.0988534299    1.5126605719    0.4689736831
 H    0.1768867189    0.1690407919   -1.3007954082
 H    0.6147765301   -0.6980645960    0.1853192657
 H   -2.4140305156    0.4832828192   -1.9394915935
 H   -4.2940406821    1.0835701243   -0.3969021013
 H   -4.6293790609   -0.6432506381   -0.6182682989
 H   -4.1062433155    0.4015740283    1.9751651565
 H   -3.1382241044   -1.6317919277    2.5564831923
 H   -1.4935149070    0.0184437610    2.1792407278