18

 C   -0.0196148969    1.4964509960    0.0526700372
 C    1.3156897242    0.7933467117   -0.0054184292
 C    0.0179569085   -0.0035360610   -0.0270300522
 O   -0.3471116590   -0.6403000428    1.1679046808
 C   -0.1140110632   -2.0433860376    1.1308292301
 C   -0.9850391188   -2.7132538833    0.0647953628
 C   -0.8756675146   -1.9517508515   -1.2303106425
 C   -0.3885247454   -0.7112145832   -1.2606977122
 H   -0.3269728251    1.9077282527    1.0072809620
 H   -0.3613837402    2.0482240042   -0.8160825404
 H    1.9031025357    0.8579401831   -0.9147481498
 H    1.8891053567    0.7381952349    0.9128330395
 H    0.9487585216   -2.2450920153    0.9253714890
 H   -0.3448160948   -2.4141128404    2.1330274470
 H   -0.6644115945   -3.7541505594   -0.0715237466
 H   -2.0301617836   -2.7541927388    0.4013695160
 H   -1.1922738294   -2.4419369550   -2.1463724511
 H   -0.2684868513   -0.1714339243   -2.1959259404