19

 C    0.2142248587    1.5700397279   -0.1039859360
 C    0.0954241514    0.0730097016    0.0593414582
 O    0.9553761194   -0.6623605182   -0.8507792582
 C    1.4039450522   -1.5307008717    0.2048909514
 C    2.9115710848   -1.6966961474    0.2750018651
 O    3.5461974074   -0.5722799175    0.8668070482
 C    2.9562720031   -0.2715653070    2.0970881213
 O    1.6546870959    0.2432112797    1.9582003147
 C    0.7579399996   -0.6164783903    1.2793512478
 H    1.2415889859    1.8905872520    0.0733278712
 H   -0.0801393384    1.8524119714   -1.1194621678
 H   -0.4439418722    2.0867593033    0.6020681451
 H   -0.9475913418   -0.2549687642   -0.0617344610
 H    0.9214301914   -2.5166783924    0.1379435324
 H    3.1497378296   -2.6058776321    0.8524356578
 H    3.3200792468   -1.8050765072   -0.7333670858
 H    2.9471172869   -1.1714793299    2.7417046814
 H    3.5485407219    0.5179163769    2.5630791448
 H    0.0855556371   -1.0977864349    1.9985424996