18

 C   -0.0378124753    1.4032606084    0.1137020709
 C    1.4961147950    1.5283434449   -0.0872197054
 C    1.4525288322    0.0784823047   -0.5577044095
 C    2.3180802188   -1.1102361446   -0.2024830086
 O    1.5563549466   -2.2118439769   -0.7295349551
 C    0.6499729678   -1.6815214346   -1.6761409554
 C   -0.3790400871   -0.6454541206   -1.2436573705
 C    0.9064644804   -0.2471443432   -1.9771668763
 N    0.0478492457   -0.1038061747    0.0499889765
 H   -0.4403750355    1.7593016733    1.0641026640
 H   -0.6176664616    1.8382785425   -0.7078415252
 H    1.8659645333    2.2735850265   -0.7935612605
 H    2.0304789835    1.6356962995    0.8604266077
 H    3.3168945735   -1.0731673328   -0.6639791393
 H    2.4164891368   -1.2455316140    0.8782530753
 H    0.3745065263   -2.3899689295   -2.4477999767
 H   -1.4158429238   -0.6538307922   -1.5667130054
 H    1.1534082933    0.2079685033   -2.9292270365