19

 C   -0.4069146148    1.2375590514   -0.5154854650
 O   -0.6086363929   -0.1563403319   -0.5026747589
 C   -0.9342896085   -0.6561245822    0.7775853279
 C   -1.0817046014   -2.1574797033    0.6286605551
 O   -1.5487237159   -2.8218744589    1.8357451494
 C   -2.5795605638   -3.4858040697    1.0892638532
 C   -3.5632780862   -2.4830050574    0.5479367683
 C   -2.2506560632   -2.7374757065   -0.1707030644
 O   -2.1579721456   -3.1998310918   -1.4641536053
 H   -0.1607146186    1.5237662431   -1.5409099590
 H   -1.3097374085    1.7836063874   -0.1996221086
 H    0.4219473225    1.5343988195    0.1456728789
 H   -0.1445477116   -0.4213671471    1.5106622520
 H   -1.8700774242   -0.2101397711    1.1498659259
 H   -0.1361164636   -2.6005344940    0.2931176012
 H   -2.7845212543   -4.5255491090    1.3116327754
 H   -4.4113644187   -2.9241106145    0.0325867436
 H   -3.7703624299   -1.5683229922    1.0964149261
 H   -2.2814895809   -2.4478407519   -2.0551524358