17

 O    0.1370693782    1.1987287896    0.5736628841
 C    0.0423786469    0.0184417612   -0.2223658972
 C   -1.3058821139   -0.6159102925   -0.1515216627
 N   -2.1363465087   -0.8193431629   -1.1660290617
 C   -3.2907323626   -1.3913343312   -0.6688351369
 C   -3.1452512196   -1.5310050133    0.6894677075
 C   -3.4695762156   -1.8456799309    2.1458772698
 C   -2.0366774483   -1.2657542039    2.4528264154
 N   -1.9072752639   -1.0494530063    0.9936542323
 H   -0.5127615352    1.8222383778    0.2315444346
 H    0.2668898054    0.2058883712   -1.2796735162
 H    0.8151425430   -0.6505544128    0.1725251511
 H   -4.1134867558   -1.6477825356   -1.3166951692
 H   -4.2919318158   -1.2771178381    2.5859776301
 H   -3.5941942911   -2.9026941002    2.3919458925
 H   -2.0113543079   -0.3394570836    3.0301315633
 H   -1.3113153451   -1.9763933087    2.8551422229