18

 C   -0.0188140477    1.4815587962   -0.0041211862
 C    0.0045269597    0.0267807716    0.0036727553
 C    0.0260018323   -1.1802415347    0.0097022746
 C    0.0325242748   -2.5953555399    0.0209158112
 C    1.1387596967   -3.4162719289   -0.1358034780
 N    0.7273701701   -4.7192897863   -0.0829129269
 C    1.5993085413   -5.8745909826   -0.1149193971
 C   -0.6333437731   -4.7536518875    0.1156745568
 C   -1.0951650099   -3.4640442370    0.1823907246
 H    0.5835336219    1.8994419275    0.8112528665
 H    0.3744495055    1.8862205003   -0.9442353994
 H   -1.0398507582    1.8616746673    0.1145858229
 H    2.1768941463   -3.1642177764   -0.2804540915
 H    1.9556603378   -6.1435801427    0.8863076053
 H    1.0619343744   -6.7277297124   -0.5355915088
 H    2.4639674310   -5.6655812481   -0.7492109944
 H   -1.1507240262   -5.6970588003    0.1905365343
 H   -2.1195285466   -3.1534549360    0.3133059108