18

 O    0.3755520756    0.8864510421    0.7884719008
 C   -0.0044219959    0.0716798152   -0.3123562803
 C   -1.3676669799   -0.4453889385   -0.2208367044
 C   -2.5053721968   -0.8371405568   -0.1249113871
 C   -3.8555538863   -1.2784635830   -0.0391546989
 C   -4.5111900007   -1.6634636307    1.2375202453
 N   -4.2754247033   -2.7372749159    0.2689556795
 C   -5.3609006147   -2.5836769149   -0.7645147314
 C   -4.9042968026   -1.1558191215   -1.1520889653
 H   -0.3080874929    1.5551869840    0.9004052671
 H    0.1141445903    0.6076959021   -1.2680410258
 H    0.7104672422   -0.7588103641   -0.3278593736
 H   -3.8740404810   -1.7325449303    2.1131359071
 H   -5.5314244681   -1.3347592277    1.4341054861
 H   -5.2238883461   -3.3199230082   -1.5578160580
 H   -6.3682140974   -2.6895852653   -0.3480826375
 H   -5.6183058218   -0.3338524142   -1.0483285081
 H   -4.4551026705   -1.1132852824   -2.1449338256