18

 C   -0.2071790111    1.6253544764   -0.1221129065
 C    0.0160606389    0.1232265542   -0.0846932638
 C    0.8592457143   -0.4896080650   -1.2338540799
 C    1.8578518000   -0.8525452488   -0.1170154540
 O    1.0113486960   -0.2535553349    0.8948219234
 C   -1.3098828054   -0.6089223111    0.2397388231
 O   -2.3357529411   -0.3349772974   -0.6951443529
 C   -1.0935945248   -2.0632425073    0.3800877397
 N   -0.9373589047   -3.2075859702    0.4202875349
 H    0.7254508316    2.1390305411   -0.3687548996
 H   -0.9673873167    1.8844408768   -0.8636314604
 H   -0.5437267729    1.9812332656    0.8572416616
 H    0.4144290890   -1.3428217549   -1.7501132162
 H    1.2137665454    0.2327565227   -1.9699384032
 H    1.9996482925   -1.9229372949    0.0598559297
 H    2.8334284463   -0.3573644328   -0.1687372422
 H   -1.6681904811   -0.2276729266    1.2024942312
 H   -2.1067073864   -0.7593983029   -1.5303404451