12

 C   -0.2530247429   -1.1867955159    0.0063324412
 C   -0.1145139552    0.0062547912    0.0187845250
 C    0.0178127963    1.4344975962    0.0049587018
 O    0.5464218471    2.0746638645    1.1699589066
 C    1.3493268978    2.1115193441   -0.0109153178
 C    2.5725417937    1.3636287281   -0.0048301903
 C    3.6184183055    0.7595829900   -0.0230303251
 C    4.7953374987    0.0689334427   -0.0406561871
 N    5.7974417385   -0.5183460476   -0.0584942947
 H   -0.3670120462   -2.2434011472    0.0035634220
 H   -0.7993412413    1.9798289857   -0.4665045987
 H    1.4063473483    3.0877276482   -0.4917843728