14

 O   -0.1524243315    0.0331313493   -0.0362933825
 C    0.0435563672    1.2111251469   -0.1945949982
 C    1.3509823962    1.8688506291   -0.0278172418
 C    1.4622928972    3.3451139457    0.5199685182
 C    2.9101320416    3.4678558872    0.9884407988
 N    3.3244397067    2.6996215337   -0.2652024117
 C    1.9434421935    3.0432029157   -0.8337379129
 C    2.7560161967    1.3573518341    0.0822458852
 O    3.3111015751    0.3263474642    0.2595595054
 H   -0.7771732927    1.9035666204   -0.4953908274
 H    0.5656744313    3.8666619639    0.8349511595
 H    3.2795937951    4.4938130021    0.9324723542
 H    3.2189103822    2.9991189075    1.9274087649
 H    1.7282194314    3.3470225001   -1.8467734117