14

 C   -0.0421213937    1.4413670670    0.0300179252
 N   -0.0296407004   -0.0078248787    0.1478643174
 C   -1.1077032607   -0.6484519109    0.1220554631
 C   -1.2578820796   -2.1542683511    0.2056499019
 O   -2.6430809447   -2.3415944899    0.4620975501
 C   -3.2832257082   -1.2230607673   -0.0876606025
 O   -2.3753092240   -0.1291312188    0.0150493067
 H    0.6372239999    1.7373605992   -0.7767636439
 H   -1.0314439501    1.8706272509   -0.1642446898
 H    0.3543970801    1.8785356418    0.9535668323
 H   -0.9516686993   -2.6260439091   -0.7405744517
 H   -0.6766268306   -2.5854969589    1.0217077248
 H   -3.5335896593   -1.3752864468   -1.1507910689
 H   -4.1841898894   -1.0000696073    0.4896510554