22

 C    0.2869595860    1.4133154866    0.2025308968
 C   -0.1646889263   -0.0471120114    0.0191721655
 C   -1.6774029504   -0.1124925915   -0.0729941589
 O   -2.3972574655   -0.7069611116    0.6866828955
 C    0.4416431650   -0.6334146371   -1.2477259827
 N    1.8633814242   -1.0196369171   -1.1886518912
 C    0.8400062393   -2.0582152161   -1.4404150885
 C    0.6833922223   -3.0886494685   -0.3397469066
 C    0.7387144234   -2.6281813982   -2.8425512309
 H    1.3792092032    1.4560036232    0.2153827132
 H   -0.0693256797    2.0459571882   -0.6189245606
 H   -0.0902505759    1.8317188076    1.1401535595
 H    0.1367768417   -0.6368747900    0.8871221245
 H   -2.1037818461    0.4604036027   -0.9330026663
 H    0.1144563481   -0.1180378492   -2.1528449289
 H    2.3343425556   -0.7654609333   -2.0539871590
 H    0.8977136755   -2.6642904064    0.6419563266
 H   -0.3320489192   -3.4989691684   -0.3283418344
 H    1.3804808082   -3.9187819920   -0.5003315450
 H    1.5338911543   -3.3616683672   -3.0204892426
 H   -0.2188808525   -3.1389929135   -2.9922539631
 H    0.8231736188   -1.8437939767   -3.6019853129