16

 C   -0.0073027554    1.5130379606    0.0695076112
 N    0.0480412135    0.0667699436    0.0653436478
 C    0.5788961542   -0.6586392860    1.0609789094
 O    1.0824200331   -0.2334845044    2.0927140740
 C    0.4908775805   -2.1768921684    0.7673853290
 O   -0.0051482101   -2.6066321672   -0.2497569689
 N    1.0428827945   -2.8774982913    1.8069571080
 C    1.1819800329   -4.2511767421    1.9757914339
 N    0.7893111356   -5.1084076282    1.1300049873
 H    0.5459952444    1.9306841826   -0.7782444836
 H   -1.0422928016    1.8674919563    0.0206593848
 H    0.4462852768    1.8607719314    0.9987132177
 H   -0.3198177211   -0.4738795405   -0.7063222469
 H    1.3866431982   -2.2622542882    2.5368662812
 H    1.6724945570   -4.4719691917    2.9316977236
 H    0.9974202672   -6.0461762365    1.4698504716