22

 C   -0.2866251547    1.1805077485   -0.2992625030
 C    1.1802841132    0.9902901488   -0.0025683411
 C    0.2189809704   -0.1559278642    0.1769520447
 C   -0.1783483446   -0.7018268806    1.5205437822
 C    0.9143907140   -1.2268185332    2.4343280615
 C    0.1522117971    0.0344191834    2.7846764183
 N   -1.4871092634   -1.3268113318    1.4276917005
 C   -1.5502372054   -2.7337312466    1.0430174847
 C   -1.9309853735   -2.2978606515    2.4152258035
 H   -0.8677350744    1.7658105660    0.4048517245
 H   -0.6017426527    1.2806019118   -1.3318549374
 H    1.8742558997    0.9376540943   -0.8344565099
 H    1.5894273080    1.4795701691    0.8746201813
 H    0.2789881945   -0.9311279004   -0.5837811940
 H    0.7435103846   -2.1104700971    3.0391204131
 H    1.9366302968   -1.1222480403    2.0875276600
 H    0.6646148531    0.9885683915    2.7361572034
 H   -0.5755215018   -0.0331361297    3.5865600195
 H   -2.3083676020   -2.9949650019    0.3100362003
 H   -0.6110250580   -3.2766505651    0.9496124696
 H   -1.2665430804   -2.5830711456    3.2277390966
 H   -2.9765928806   -2.2190198754    2.7006095719