18

 C    0.0381642694    1.5610975255    0.0932241638
 C    0.0131963751    0.0333253379    0.0005940065
 C    0.7047487662   -0.4963507098   -1.2593982737
 C    0.6706528767   -2.0342724498   -1.3474775004
 C    1.3782328389   -2.5538115106   -2.5499609579
 N    0.8168180433   -3.1349587980   -3.5718569026
 O    1.8381208277   -3.4148305200   -4.4168798713
 N    3.0269619375   -2.9717952376   -3.8451826357
 N    2.7514505266   -2.4582147311   -2.7330633982
 H    1.0658111440    1.9399782018    0.1104472570
 H   -0.4687292948    2.0183162480   -0.7635094936
 H   -0.4613996809    1.9113042131    1.0014268452
 H    0.4976097043   -0.3975302752    0.8867100311
 H   -1.0261080993   -0.3200905826    0.0195223671
 H    0.2237824049   -0.0761024465   -2.1515269072
 H    1.7481952267   -0.1596801244   -1.2807059473
 H    1.1444801851   -2.4622519281   -0.4563600432
 H   -0.3616898215   -2.3940694125   -1.3757297897