21

 C   -0.8135348874    1.2535431377    0.1609056376
 C    0.0041549121   -0.0071625617   -0.0749687494
 C    1.3528818888    0.1092567147   -0.8512115192
 C    2.0124354954   -0.8535517831    0.1774313839
 O    3.2996710349   -0.5694601528    0.6661684838
 C    0.7955193007   -0.6292751382    1.0893826385
 C    0.8692555902   -0.1114362286    2.5070942937
 C    0.2779421993   -1.4597881305    2.2228198577
 O   -1.1086223235   -1.5648625394    2.3990549662
 H   -0.1994790074    2.0459209042    0.6026925138
 H   -1.2263179230    1.6347660892   -0.7795419768
 H   -1.6478457896    1.0546744658    0.8414005352
 H   -0.6339134301   -0.7702339524   -0.5394502995
 H    1.3688975202   -0.1818725440   -1.9041014256
 H    1.7749106431    1.1166877964   -0.7599522484
 H    2.0654234621   -1.8822894880   -0.1948545106
 H    3.2886054709    0.3320718440    1.0064511176
 H    1.8435338621   -0.0783275417    2.9852554743
 H    0.1783809809    0.6703034448    2.8042908527
 H    0.8510208341   -2.3386812023    2.5220477303
 H   -1.4472337037   -2.1613286039    1.7227957542