23

 C   -0.8499283835    1.1953419334    0.2542929327
 C   -0.0859935322   -0.0957653189    0.0582648147
 C    1.3290191831   -0.0672033041   -0.4673820045
 C    1.0563115059   -0.5345012527    0.9504842317
 C    1.5645283713    0.2238125288    2.1225034256
 C    0.8646812723    0.8365986115    3.0822635029
 C    1.7386186021    1.4122189047    4.1697216492
 C    3.1601450896    1.3289191738    3.5559592544
 C    3.0533215367    0.2782506516    2.4249196952
 H   -0.2002729499    1.9906877754    0.6273188916
 H   -1.2835859824    1.5305998373   -0.6947416228
 H   -1.6721052445    1.0745255014    0.9687416682
 H   -0.6998677330   -0.9133626781   -0.3124321788
 H    1.6399758076   -0.7953103053   -1.2087707319
 H    1.7853820177    0.9113534126   -0.5844494237
 H    1.1387058721   -1.6139916070    1.0774069420
 H   -0.2177347165    0.8854595777    3.1203725469
 H    1.4615188674    2.4354809162    4.4491639067
 H    1.6546590198    0.8140418915    5.0891634270
 H    3.4251343867    2.2997822806    3.1248777419
 H    3.9281960469    1.0849065044    4.2943409732
 H    3.4086307172   -0.7115565950    2.7485070221
 H    3.6512323457    0.5401121999    1.5446565556