21

 C   -0.0269669410    1.5804667233   -0.0638955213
 C   -0.0284889142    0.0397979790   -0.0486378477
 C   -1.4410768183   -0.5488007164    0.1687128027
 C   -1.5288341892   -0.7961191989    1.7040192414
 C   -0.0732011975   -0.9794352714    2.0960355830
 C    0.7301400228   -0.5216335884    1.1419920014
 C    2.1800599070   -0.5976762482    0.7745894326
 O    2.2040047488   -0.4060150111   -0.6495235392
 C    0.8711466377   -0.5098827449   -1.1678886228
 H    0.9931679495    1.9712975958   -0.1231345652
 H   -0.5817712121    1.9557540744   -0.9312180482
 H   -0.4950327025    1.9855021875    0.8389043924
 H   -2.2375349679    0.1017496306   -0.2036023760
 H   -1.5273251517   -1.5086791731   -0.3528204361
 H   -1.9884546212    0.0530431767    2.2295210230
 H   -2.1402203218   -1.6716691606    1.9495285745
 H    0.2340407917   -1.4464896924    3.0255463518
 H    2.7971689365    0.1876759477    1.2297501648
 H    2.6225071457   -1.5680257564    1.0417583580
 H    0.6184304726   -1.5588348359   -1.3911245006
 H    0.8468896253    0.0637939127   -2.0992828284