21

 C   -0.0209114988    1.5267447166    0.0751283760
 C    0.0030321989    0.0324784957    0.0158937695
 C   -0.0112142879   -0.7318546469   -1.0807978224
 C    0.0207735560   -2.2163542961   -0.8060409720
 C   -1.2415961876   -2.9498843908   -1.3016955577
 C    1.2821457349   -2.9066103575   -1.3628060523
 C    0.0589266652   -2.2460718378    0.7410693211
 O    0.0914175213   -3.2462476773    1.4103040229
 C    0.0484451642   -0.8067305331    1.2700616996
 H    0.8641065609    1.9171151187    0.5937881600
 H   -0.0527489157    1.9683343004   -0.9247410241
 H   -0.8924452711    1.8872398513    0.6364987756
 H   -0.0429632179   -0.3408241006   -2.0937861931
 H   -1.2817055146   -2.9475939950   -2.3960905945
 H   -1.2318065368   -3.9878262226   -0.9561479970
 H   -2.1529746603   -2.4719885110   -0.9295482490
 H    2.1935548310   -2.3976232571   -1.0345457025
 H    1.3244882572   -3.9441013772   -1.0183520026
 H    1.2692993088   -2.9035385784   -2.4578597325
 H    0.9375018699   -0.6239809348    1.8889664487
 H   -0.8136300073   -0.6528779965    1.9333622862