21

 C   -0.1808480327    1.5079680037    0.0868223087
 C   -0.0293920470   -0.0084712871   -0.0366758024
 O    0.6531673492   -0.3607955245   -1.2405797572
 C    0.6436780346   -0.6278524845    1.1938607967
 C    0.7528111496   -2.1502860795    1.1145668134
 N    1.4900094577   -2.6801368989    2.2566721104
 C    0.7007396654   -3.0211480493    3.4356929514
 C    1.2732690647   -4.0870514654    2.5675697082
 H    0.7983856649    1.9860971401    0.2162038064
 H   -0.6445586029    1.9175027093   -0.8146362763
 H   -0.7978355615    1.7773150791    0.9502385555
 H   -1.0251797082   -0.4547380350   -0.1579310606
 H    1.5304382896    0.0371893688   -1.2020377145
 H    1.6511464609   -0.2051910035    1.3113092973
 H    0.0829998440   -0.3428758801    2.0932500242
 H   -0.2595943073   -2.5913981969    1.0377512805
 H    1.2891637184   -2.4269175726    0.2015727661
 H    1.1506914234   -2.7867738320    4.3963026143
 H   -0.3776380630   -2.8717785576    3.3890197353
 H    0.5757291508   -4.6455841728    1.9447153509
 H    2.1510050593   -4.6453977815    2.8808141617