16

 O   -0.0220241092    0.0341523305   -0.3462589878
 C    0.0177390130    1.1993106393   -0.0366645059
 C   -1.2671603379    1.9667505382    0.3170391233
 O   -1.0963228998    3.3368600735    0.6670061971
 C    0.2419678648    3.8004594109    0.6390071959
 C    0.9631621037    3.3928828124   -0.6716099653
 C    1.2692348758    2.0365043952    0.0459873754
 C    1.1986354009    2.8374963868    1.3883047737
 H   -1.9442981716    1.8936246695   -0.5437327970
 H   -1.7511039368    1.4374417380    1.1479508154
 H    0.1992786180    4.8513751052    0.9272307557
 H    0.3749891948    3.3806480612   -1.5924613915
 H    1.8797050107    3.9666349408   -0.8265686311
 H    2.1567170163    1.4589971455   -0.2111670550
 H    2.1583229469    3.3094870820    1.6107449515
 H    0.8178141603    2.3361777310    2.2814559354