18

 O    0.6273081277    0.5192442220    1.2314316316
 C    0.2721108138    1.2923764804    0.3668009999
 N    1.0457146480    1.6895389476   -0.6787138797
 C    2.4049005281    1.2088183630   -0.8581960397
 C    3.4305943860    2.0233552366   -0.0615326978
 N    4.7686753348    1.4866763884   -0.2886321629
 C    5.8019212118    2.2389293283    0.4134909526
 C    7.1282915983    1.6619570316    0.1759094093
 N    8.1718933069    1.1973640517    0.0064198374
 H   -0.7351851632    1.7526983478    0.3381257386
 H    0.6684280685    2.3578247479   -1.3305725537
 H    2.4294169659    0.1666245121   -0.5241229787
 H    2.6583981068    1.2318965613   -1.9211752972
 H    3.4175836550    3.0654827946   -0.4065663099
 H    3.1320033228    2.0281703686    1.0002743088
 H    4.8038846605    0.5162165894    0.0096973596
 H    5.8038150177    3.2698084894    0.0375344889
 H    5.6500209607    2.3061593092    1.5062580829