17

 O    0.0259832379    1.4650874409   -0.0575506028
 C   -0.0421179309    0.0755820608   -0.0620717494
 C    0.1310253812   -0.6600831350    1.2608640146
 O   -0.9150723147   -0.0067089409    2.0660108740
 C   -2.0955536621    0.0600186304    1.1706020931
 C   -1.4683626068   -0.6624270986    0.0103197394
 C   -1.6690471585   -1.6411073557   -1.1416998162
 O   -0.5588817083   -2.4400431334   -0.6123171365
 C   -0.7144741713   -1.8178283829    0.6940298401
 H   -0.1819394393    1.7502478325    0.8418998745
 H    0.5558793353   -0.3113747154   -0.8847635317
 H    1.0331933621   -0.7101333589    1.8702370976
 H   -2.9337274932   -0.4596277747    1.6412954694
 H   -2.3535257153    1.1091693989    0.9966216855
 H   -2.6056553418   -2.2124736522   -1.1205600410
 H   -1.4679958885   -1.2818370347   -2.1553753916
 H   -1.1811700858   -2.4850727412    1.4229921010