21

 C   -0.1104440402    1.3525306909   -0.0087296847
 O    0.0741978732   -0.0436439121   -0.0388312646
 C    0.6422100340   -0.5609458942    1.1542123158
 C    0.6286314202   -2.0793049104    1.0093878059
 O   -0.6834952819   -2.5196025447    0.7541028683
 C    1.7644442302   -2.6216613054    0.0831301656
 C    2.6151545496   -2.9034774378    1.3515399385
 C    1.3079060229   -2.8081198874    2.1873424967
 O    1.3055539713   -2.0973524473    3.4043510816
 H    0.8461115443    1.8847946912    0.1067841734
 H   -0.5640762199    1.6441249132   -0.9592134228
 H   -0.7746913077    1.6573621653    0.8144454778
 H    1.6619520955   -0.1756820882    1.3005505474
 H    0.0408502246   -0.2687258362    2.0268009784
 H   -1.0651636729   -1.8751253792    0.1438588401
 H    1.4373434893   -3.5383607958   -0.4119350968
 H    2.1676405493   -1.9327874457   -0.6608529227
 H    3.1726715925   -3.8414029964    1.3934387350
 H    3.2892413674   -2.0776763401    1.5944948090
 H    0.8377325029   -3.7950400363    2.2936859953
 H    1.6814306155   -2.6590624435    4.0885413128