22

 C    0.6193168695   -0.0805865639   -1.5422555891
 C   -0.0041187197    0.3073009891   -0.1976141024
 C   -1.4267804214   -0.2246085899   -0.0264832733
 O   -2.2784602552    0.2894120200   -1.0437075974
 C   -1.6503936405   -1.7358881945    0.0293152027
 C   -1.0577360774   -2.3374557246    1.2370676357
 N   -2.3694606827   -1.6758155720    1.3639962921
 C   -2.1200280845   -0.1825121532    1.3850212417
 C   -1.4460498793    0.3819301676    2.6235797605
 H    1.6162548842    0.3547838164   -1.6563933036
 H    0.7175561763   -1.1681957390   -1.6260728774
 H   -0.0059872452    0.2611682680   -2.3708101297
 H    0.6278521070   -0.0466817828    0.6235446892
 H   -0.0327459102    1.4027759242   -0.0979586814
 H   -2.2530041392    1.2514645903   -0.9926768209
 H   -2.0398819369   -2.3125157948   -0.8026571994
 H   -1.1274048654   -3.4158647370    1.3432218540
 H   -0.1747642888   -1.9048072707    1.6989726612
 H   -3.0969439933    0.2906327692    1.2510635881
 H   -0.4538504004   -0.0408962466    2.8031890433
 H   -1.3328134886    1.4682886958    2.5400332111
 H   -2.0610310684    0.1757808585    3.5058135352