23

 C   -0.0074009603    1.4953020254   -0.0286709499
 C    0.0161873075   -0.0182604258   -0.0371008239
 C    0.5176364884   -0.7403966515   -1.2906128827
 C    0.3197401658   -2.1653600535   -0.7375367888
 C    1.1548307217   -2.0966207655    0.5623845430
 C    0.6945148472   -0.7550133375    1.1877535819
 C   -0.7048630264   -0.8963870071    1.8307912451
 C   -1.2966482048   -0.7816861898    0.4065787069
 C   -1.1777285916   -2.1278636692   -0.3527278446
 H    0.9971153959    1.9076924072   -0.1804254231
 H   -0.6501287406    1.8856185026   -0.8266064523
 H   -0.3850829556    1.8907778607    0.9206097668
 H   -0.0936464709   -0.5311210716   -2.1760236710
 H    1.5627955925   -0.5089378701   -1.5261656393
 H    0.5927037311   -2.9855597810   -1.4052962145
 H    0.9887980523   -2.9483960322    1.2308440783
 H    2.2234404484   -2.0706174026    0.3220453539
 H    1.4749054911   -0.2396609790    1.7533088826
 H   -0.9137346168   -1.8126627678    2.3944789140
 H   -0.9611082240   -0.0352913346    2.4545361583
 H   -2.2651101946   -0.2897523570    0.2860245548
 H   -1.7981792095   -2.1244821944   -1.2557204507
 H   -1.4907318868   -2.9816094456    0.2580693153