16

 C   -0.0563959962    1.5864681335    0.0051761486
 C   -0.0043872289    0.0468259608    0.0210737338
 N    0.7677982572   -0.4961090340    1.1293176922
 C    2.1316066607   -0.5858970763    1.0565829726
 N    2.7896354526   -0.2738533313    0.0077651183
 C    2.7821286786   -1.1202015850    2.3173601142
 O    3.9696227967   -1.2753168276    2.4080694769
 C   -1.3550871638   -0.5325258740    0.0509757915
 N   -2.4249504984   -0.9660075201    0.0935686152
 H    0.9640195776    1.9682368531   -0.0614759931
 H   -0.6244255315    1.9382184090   -0.8599347873
 H   -0.5312423760    1.9688846429    0.9125897826
 H    0.4987773193   -0.2911818823   -0.8917227666
 H    0.3170304847   -0.5764087683    2.0266768531
 H    3.7779522551   -0.4717363534    0.1723380043
 H    2.0948459523   -1.3636291370    3.1584944338