21

 C   -0.0984901241   -1.2416540948   -0.0406999783
 C   -0.0473630446   -0.0395546728   -0.0147232441
 C    0.0139366219    1.4090501764    0.0362697792
 C   -0.2127489883    1.9995760125    1.4705379504
 C    1.3221812028    2.1179324989    1.6392011650
 C    1.4744182071    2.0119183331    0.0962478395
 C    2.6264795263    1.2517233140   -0.4909408513
 C    3.0518401839    1.4877989382   -1.9196653731
 C    3.9278923160    1.9587666147   -0.7861977755
 H   -0.1520253896   -2.3014851214   -0.0727548060
 H   -0.6210146510    1.8285394571   -0.7498692821
 H   -0.7005183662    2.9762914249    1.4142691039
 H   -0.7567655791    1.3690402448    2.1748952405
 H    1.7169766996    3.0129533005    2.1252569002
 H    1.7391508766    1.2369154527    2.1358776639
 H    1.4340137456    3.0144408425   -0.3453461146
 H    2.7082300851    0.2279792230   -0.1373320691
 H    3.3775008367    0.6359269525   -2.5059575319
 H    2.5161163905    2.2392825992   -2.4909521910
 H    3.9804987533    3.0261413316   -0.5963558072
 H    4.8554059275    1.4302295922   -0.5957335485