19

 C   -0.0734590887    1.5700111288    0.0609093764
 C    0.0403417523    0.0586924643   -0.0525415234
 C    0.5868566039   -0.8196514229   -1.1583179303
 C    1.5365755579   -0.3519315150   -2.2601756657
 C    1.9484583491    1.0848535545   -2.3683777999
 C    2.8242507549    0.1000409414   -1.6050909336
 C    2.6677296756   -0.1248181290   -0.1134439493
 O    3.5491545046    0.0109730291    0.7000851397
 C    1.3108168905   -0.7438377817    0.1743603503
 H    0.8910450191    2.0798096973    0.0354521514
 H   -0.7119730968    1.9922414510   -0.7224770024
 H   -0.5302025099    1.8188440621    1.0242744608
 H   -0.8101376779   -0.4295313407    0.4202310136
 H   -0.0093271448   -1.6902834340   -1.4076457794
 H    1.5530651709   -0.9597027827   -3.1573512943
 H    2.3612658931    1.4019659088   -3.3208178859
 H    1.4047364150    1.8615538758   -1.8551842704
 H    3.8118017833   -0.1007147394   -2.0035004498
 H    1.3119574079   -1.5256176978    0.9256676822