17

 O   -0.3042297021   -0.0003303807    0.3181269035
 C   -0.1768317388    1.1955298198    0.1946142612
 C    1.1223154841    1.8242187343    0.0029964622
 C    2.1798005499    2.3790177143   -0.1508834385
 C   -1.3608651495    2.1706709880    0.1868247583
 C   -1.6821845136    2.6186152698   -1.2783611917
 C   -3.1596045160    2.2062620573   -1.4482939244
 C   -3.3212055173    1.1162946850   -0.3851424105
 O   -2.5224699861    1.5667363243    0.7060253523
 H    3.1237078291    2.8492338818   -0.2862448871
 H   -1.1044406032    3.0245490425    0.8246293129
 H   -1.5213429280    3.6887451962   -1.4165201781
 H   -1.0428559555    2.0967237925   -1.9961702832
 H   -3.8197250011    3.0483563292   -1.2209864383
 H   -3.3866798759    1.8564213046   -2.4580990475
 H   -4.3441044122    0.9988530950   -0.0192979768
 H   -2.9607807237    0.1440527362   -0.7483263644