21

 C   -0.3222251873    1.2255337124    0.0601618254
 O    0.3163398891   -0.0135550039   -0.1419171899
 C    0.7849805881   -0.6031002890    1.0438725994
 C   -0.1676632312   -1.2642468083    2.0374162442
 C   -0.4209607725   -2.6899689959    1.5399955557
 C    0.3285109795   -2.8511955316    0.2194139424
 C    1.4531649918   -1.9891920619    0.8672488900
 C    2.8866222009   -2.1029900333    0.4212420324
 C    0.8464291554   -2.3628989579    2.2876899228
 H    0.3502183012    1.9577349496    0.5355198071
 H   -0.6184458121    1.6061487595   -0.9204856626
 H   -1.2213925586    1.1281669798    0.6870186652
 H    1.4615248981    0.0870512280    1.5741654707
 H   -0.8132266535   -0.7964828794    2.7693127589
 H   -1.2726195181   -3.2529458865    1.9000753373
 H    0.6641011900   -3.8831730400    0.0785863035
 H   -0.1244887209   -2.4688212539   -0.6998364726
 H    2.9964311708   -1.7392218433   -0.6068097627
 H    3.5528600653   -1.5107555602    1.0583673388
 H    3.2320535299   -3.1420682362    0.4477339248
 H    1.2782607740   -2.7324301582    3.2057861792