23

 C    0.1024383212    1.3475242850    0.2240261323
 O    0.4616504028   -0.0098113575    0.1134697143
 C    0.7315807262   -0.5384496140   -1.1897794551
 C   -0.3602165006   -0.1416425181   -2.1968300518
 C    2.1206635973   -0.0652531466   -1.6504431831
 C    0.7090512673   -2.0728585283   -1.0174126354
 C    1.2838047483   -2.9071596926   -2.1464036345
 C    0.6536610940   -2.6665703105    0.3270603240
 O   -0.5215938585   -2.5817308255   -0.4879033191
 H    0.8319903607    2.0245535869   -0.2435012187
 H   -0.8881700842    1.5594184030   -0.1997877472
 H    0.0720787620    1.5686453507    1.2942565972
 H   -0.3571402398    0.9346466469   -2.3886356820
 H   -0.2000365887   -0.6412767273   -3.1557244291
 H   -1.3403382178   -0.4365533442   -1.8145416086
 H    2.8906586414   -0.4014988609   -0.9499671162
 H    2.3647285342   -0.4405337713   -2.6475254040
 H    2.1562580069    1.0268753213   -1.6972605692
 H    2.3698622504   -2.7973284361   -2.2175862555
 H    1.0550125093   -3.9595856313   -1.9637209716
 H    0.8526753916   -2.6366088565   -3.1155780076
 H    1.0437134917   -3.6742338862    0.4726184079
 H    0.6561094641   -2.0211358369    1.1981936529