21

 C   -0.1229240997    1.4058359900    0.0608113861
 O    0.1335404049    0.0295330838   -0.0802008382
 C    0.7053573772   -0.5759916473    1.0724084808
 C   -0.2759297813   -0.8641623300    2.1900627518
 C   -0.1134571114   -2.0905570284    2.6804337934
 C    0.9881177118   -2.8461259408    1.9798688198
 C    1.2804922308   -1.9785152629    0.7243222481
 C    0.6177086280   -2.5767288900   -0.5179510960
 O    1.2130511987   -3.8525732174   -0.7364723953
 H    0.7894614399    1.9631719590    0.3270578607
 H   -0.4881832807    1.7681470586   -0.9035890420
 H   -0.8868881025    1.6172971515    0.8239620267
 H    1.5101611710    0.0861413258    1.4396331051
 H   -0.9807130878   -0.1249645674    2.5530825234
 H   -0.6740331170   -2.5110781633    3.5089580855
 H    1.8730124175   -2.9297781024    2.6249638362
 H    0.7128372513   -3.8690820529    1.7051788085
 H    2.3538206025   -1.9223341397    0.5230155541
 H   -0.4671800221   -2.6655263966   -0.3555531025
 H    0.7711305137   -1.9121900125   -1.3759331378
 H    0.7929270951   -4.2457514369   -1.5063946386