19

 C   -1.3844377662   -1.5034972296    2.5132464579
 N   -0.8564553563   -1.7010138296    1.1767333827
 C   -1.2070454779   -0.9824065195    0.1890113940
 C   -0.4128223959   -1.1643377848   -1.0987544409
 O    0.6401386684   -0.2109597241   -1.2065463950
 N   -2.2521430614   -0.0183772135    0.1720632521
 C   -3.5581015700   -0.2977968491    0.7777753151
 C   -2.1364834337    1.1548726645   -0.5533196329
 O   -3.0340519546    1.9606993437   -0.6590572683
 H   -2.2093200315   -2.1978927513    2.7135882978
 H   -0.5919100971   -1.7436936209    3.2285121557
 H   -1.7351160784   -0.4832476935    2.7110571123
 H   -0.0251147559   -2.1886863783   -1.0960057137
 H   -1.0421047885   -1.0200289129   -1.9808417332
 H    1.2181727191   -0.3469161661   -0.4468027885
 H   -3.6893756757    0.2128385292    1.7358049074
 H   -4.3301006353    0.0627931963    0.0959447122
 H   -3.6647509164   -1.3726018366    0.9224184367
 H   -1.1383050129    1.2836206859   -0.9985874912