20

 O    0.0437804810    1.3983358419   -0.1911484139
 C    0.0719526553   -0.0092167332   -0.0241323608
 C   -1.3707772461   -0.5032543659   -0.0374918275
 C   -1.5000883378   -2.0208236511    0.0843441443
 C   -1.0218718952   -2.6071761797    1.4250588614
 O   -1.7318011951   -3.8441890232    1.5860278857
 C   -2.8610849240   -3.8512082761    0.8107070654
 N   -3.6901787944   -4.8011982959    0.7619651223
 C   -2.9408579821   -2.5547717321    0.0364371539
 H    0.9484866800    1.7238061593   -0.1769761018
 H    0.6377031520   -0.4984464300   -0.8345672918
 H    0.5604299204   -0.2859946795    0.9247601140
 H   -1.9180892413   -0.0154551885    0.7790818106
 H   -1.8365133552   -0.1662482613   -0.9705686782
 H   -0.9258324352   -2.5000338006   -0.7193949206
 H    0.0468825166   -2.8307961265    1.4614600453
 H   -1.2684629047   -1.9383301699    2.2618091426
 H   -3.4087446664   -5.5527216662    1.3944331609
 H   -3.6244962193   -1.8704809229    0.5553100375
 H   -3.3345640486   -2.7162921287   -0.9672491492