20

 C    0.5554144079    1.1279741128    0.6153422340
 C    0.1765509112   -0.2644676561    0.1581915939
 C    0.5262232126   -0.7031456061   -1.2822702668
 C    1.2635840601   -1.8708621782   -0.5971847065
 C    2.7351029142   -2.0475090346   -0.9204910887
 O    3.3289617873   -3.1190163919   -0.1957940654
 C    3.6866949020   -2.8621623509    1.0836758756
 N    4.1857607107   -3.7848430401    1.7847764380
 O    1.0440464323   -1.2908936540    0.7108394272
 H    1.5869544106    1.3642163718    0.3358875864
 H   -0.1088050791    1.8720456871    0.1622319475
 H    0.4667119701    1.2095960578    1.7032317325
 H   -0.8683678859   -0.4785877186    0.4223880692
 H   -0.3050947178   -0.9651294362   -1.9371128976
 H    1.1902068056   -0.0055726760   -1.8010957367
 H    0.7556333548   -2.8404577896   -0.6835243805
 H    2.8479330184   -2.3058066298   -1.9784475252
 H    3.2712428287   -1.1070418314   -0.7344787110
 H    3.4935510076   -1.8287935114    1.3922887899
 H    4.4088962087   -3.4275092147    2.7114930443