19

 C    0.0860450259    1.4500399324   -0.0476495700
 N    0.1839633706   -0.0009695999   -0.0682323472
 C    0.5407657751   -0.6162638851    0.9698331429
 C    0.7026376822   -2.1148478186    1.0999479277
 C    0.6151608016   -2.3460027708    2.6167901779
 C    1.3204331817   -3.5932043499    3.1405379294
 C    1.1997655715   -1.0237061582    3.1391219389
 O    0.8395968493   -0.0254589960    2.1762923801
 H    0.8973008875    1.8771429009   -0.6502341964
 H   -0.8527589305    1.7489382580   -0.5262130626
 H    0.1314913883    1.8926530534    0.9537643257
 H   -0.0442393726   -2.6469036600    0.5102527005
 H    1.6929446392   -2.4053252944    0.7244462527
 H   -0.4439367244   -2.3823053034    2.9010744973
 H    2.3801357277   -3.5927822308    2.8609974816
 H    1.2614252882   -3.6561162618    4.2324650113
 H    0.8679572806   -4.5020388790    2.7322405763
 H    0.8022391093   -0.7171147026    4.1102217519
 H    2.2955874287   -1.0758336342    3.2116807618