19

 C   -0.0673575834    1.3487966497    0.1030773365
 O    0.0170920648   -0.0766621610   -0.0211582713
 C    0.6479862540   -0.5214262983   -1.1287850693
 O    1.1131328670    0.2066110488   -1.9640016938
 C    0.6732507575   -2.0622469979   -1.1462914739
 C    1.4268934364   -2.5717152684    0.1097250827
 C   -0.7836217673   -2.5938290693   -1.1401313957
 C    1.3602495908   -2.5249087580   -2.3531391760
 C    1.9120804793   -2.9727332539   -3.3211921262
 H    0.9310349670    1.7920705693    0.1339229840
 H   -0.6145448835    1.7767212247   -0.7405417831
 H   -0.5976885153    1.5341008591    1.0371739750
 H    0.9195654946   -2.2358651021    1.0163578020
 H    1.4557432437   -3.6642324073    0.0995224789
 H    2.4561533130   -2.2037707407    0.1223908011
 H   -1.3305324779   -2.2416380056   -2.0186360321
 H   -0.7731847310   -3.6865302050   -1.1607694140
 H   -1.3040623988   -2.2581300550   -0.2409064835
 H    2.4051928291   -3.3404076993   -4.1867804012