21

 C   -0.1437328754    1.5954985839    0.0977933799
 C    0.0546533292    0.0933557759    0.0854037825
 C    1.3561187275   -0.6354012823   -0.2030231488
 C    2.7022624913    0.0882614482   -0.0750607988
 O    2.9325925729    1.1499917628   -0.9956915778
 C    2.7307583324    0.5095259472    1.3869987693
 C    1.6711902916    0.0556337034    2.0564251400
 C    0.7309447983   -0.7208589791    1.1808122799
 C    0.0716676135   -1.9615355667    1.7374390611
 H    0.6452898651    2.1164374906    0.6465851906
 H   -0.1812728288    1.9953294158   -0.9224151404
 H   -1.0937891614    1.8527243959    0.5793831006
 H   -0.7988534813   -0.4287075414   -0.3448420579
 H    1.3052019061   -1.4771567383   -0.8847614514
 H    3.5178367810   -0.6158319088   -0.2846814723
 H    2.2349690303    1.8006046956   -0.8690569913
 H    3.5261806221    1.1311735163    1.7827129497
 H    1.4676362006    0.2264030896    3.1091531530
 H   -0.5934600189   -1.7161890569    2.5743095206
 H   -0.5303499794   -2.4643776172    0.9742794092
 H    0.8154749134   -2.6777076647    2.1049070125