20

 C    0.0751424343    1.5505392424   -0.0215096204
 C   -0.0255195900    0.0239302693    0.0115433491
 C   -1.4683718501   -0.5287832917    0.0334279214
 C   -2.2757141954   -0.0362219634    1.2426614447
 N   -2.1715928731   -0.1545693910   -1.2190497460
 C   -2.4666009576   -1.2451096875   -1.8064044367
 N   -2.0776918430   -2.4109499629   -1.1569051433
 C   -1.4256385816   -2.0659926724    0.0251136550
 N   -0.9000222042   -2.7952183987    0.9222916827
 H    1.1190521579    1.8580598023   -0.1374151263
 H   -0.4981904056    1.9588963288   -0.8578773913
 H   -0.2984264038    2.0052848757    0.9007282609
 H    0.4773489940   -0.3914008285   -0.8701538098
 H    0.4924371603   -0.3866203141    0.8852179919
 H   -2.3849926850    1.0496586913    1.2151689110
 H   -3.2771519272   -0.4760773000    1.2395082569
 H   -1.7734914323   -0.3329162579    2.1673964174
 H   -2.9888613566   -1.3141961646   -2.7560397236
 H   -2.2270873222   -3.3491963744   -1.4886899666
 H   -0.9865123589   -3.7911948128    0.7132990730