17

 C    0.0899008695    1.6071137295    0.0845211831
 C    0.0714554793    0.1095771209    0.0107901202
 C   -0.9322096154   -0.7786120292    0.7402713458
 C    0.5400323435   -0.9395641221    1.0254799875
 N    1.1900365231   -1.6616527845   -0.0853179228
 C    1.5238573430   -2.8214843167   -0.7226746688
 N    1.4140251215   -2.6631432113   -2.0284458805
 C    0.8760189615   -1.4041995332   -2.2458776238
 C    0.7440448143   -0.7712972859   -1.0368128557
 H    1.1010489500    1.9981363213   -0.0649158922
 H   -0.5557790531    2.0432690794   -0.6858980539
 H   -0.2736642514    1.9565480716    1.0558212169
 H   -1.5040190947   -0.2892459615    1.5260054166
 H   -1.4640447546   -1.5616515916    0.2089061635
 H    1.0191231413   -0.8258090995    1.9882840226
 H    1.9144632984   -3.6961081522   -0.2256691755
 H    0.6685599336   -1.0541298150   -3.2446279832