18

 C   -0.1559766994    1.5401495718   -0.0674669967
 C    0.0037451816    0.0186230439   -0.0102338339
 O   -1.2682840784   -0.6164821127    0.0305333720
 C    0.8932010319   -0.4909067238   -1.1907288886
 C    2.2419507648   -0.7063706502   -0.5699367215
 C    2.1834997163   -0.6619958334    0.7688437337
 C    0.7748883896   -0.4132339537    1.2664644532
 C    3.2837154798   -0.8577664757    1.6474745686
 N    4.1615737584   -1.0089293791    2.3883392087
 H    0.8187841508    2.0379051738   -0.0431999163
 H   -0.6602327899    1.8441039242   -0.9930635284
 H   -0.7488392029    1.8919431385    0.7816647898
 H   -1.8134243924   -0.2438441830   -0.6706161588
 H    0.4857193344   -1.4363476074   -1.5727712929
 H    0.9216824028    0.2094098086   -2.0340820774
 H    3.1427157740   -0.9010672715   -1.1399355066
 H    0.7304440835    0.3408166460    2.0579343541
 H    0.3323924650   -1.3318408761    1.6675747811