17

 O    0.0320953905    0.2864255704    0.9914821185
 C    0.0165377733    1.2292623381    0.2481854323
 C   -1.3031193550    1.9558067312   -0.0366961644
 C   -1.2766324395    3.3223851474   -0.6979152566
 C   -0.0944656505    4.2356512952   -0.3086008952
 C    0.5262737376    3.6654409050   -1.5985236607
 C    1.4561302531    2.4843426218   -1.3993264347
 O    1.2069793653    1.6505907176   -0.2585756347
 O   -0.7703633437    3.2129024693   -2.0530251529
 H   -1.9043160629    1.2816473115   -0.6582254133
 H   -1.8085210336    2.0074242821    0.9333635241
 H   -2.2760836413    3.7678858688   -0.6819128984
 H   -0.3357732670    5.2953249247   -0.3937780871
 H    0.4168275646    4.0393569397    0.6344832477
 H    0.9809516402    4.3674929363   -2.3064577803
 H    1.4308029284    1.8630305564   -2.3028642392
 H    2.4820823704    2.8351471247   -1.2504931753