19

 C   -0.0479822527    1.4759277121    0.0499141493
 C   -0.0071830791    0.0219096127   -0.0093919291
 C    0.0347089422   -1.1792327771   -0.0629056174
 C    0.0561290419   -2.6452743499   -0.1164956702
 C   -1.3755139169   -3.2273270746    0.0368404140
 C   -1.3947035574   -4.7473119219    0.1337734432
 O   -2.7436515417   -5.1391947796    0.3387832418
 C    0.7124571072   -3.1225372966   -1.3412401295
 C    1.2399740737   -3.5271310149   -2.3420192896
 H    0.5266477361    1.8563157339    0.9015615268
 H    0.3722371636    1.9202878427   -0.8589779456
 H   -1.0756335898    1.8412096555    0.1531090396
 H    0.6494886806   -3.0074061527    0.7374666121
 H   -1.8209203437   -2.8046792210    0.9423962067
 H   -1.9888878656   -2.9067865205   -0.8100414395
 H   -0.9823606794   -5.1849672944   -0.7865442734
 H   -0.7530532502   -5.0744433456    0.9698336039
 H   -2.7822439901   -6.0996826638    0.3215633449
 H    1.7128343812   -3.8739399344   -3.2272852879