23

 C    0.0816103134    1.3107795551    0.2872545532
 O   -0.0219208762   -0.0909515471    0.3019589623
 C   -1.2599892205   -0.5524407931   -0.2039046611
 C   -1.2480094224   -2.0576367804   -0.1836466805
 C   -1.6356547155   -2.8286491320    1.0549171001
 C   -2.5146745042   -2.8903801887   -0.1722239155
 C   -3.8902302060   -2.2483549195   -0.1403870400
 C   -2.4632454137   -4.1662302436   -0.9852019123
 O   -3.3370239543   -5.1191795835   -0.3907434269
 H    1.0647479630    1.5721280135    0.6867728142
 H   -0.0069751134    1.7195878953   -0.7327103106
 H   -0.6921999896    1.7872167075    0.9113327143
 H   -2.0887282705   -0.1510573411    0.4013428969
 H   -1.4062745807   -0.1794329729   -1.2334573852
 H   -0.4218102133   -2.4691259936   -0.7588181411
 H   -1.0556789855   -3.7042942987    1.3252309133
 H   -1.9996262219   -2.2582738138    1.9036371163
 H   -3.9356072741   -1.3983569441    0.5444048721
 H   -4.1902540184   -1.8962422419   -1.1352227791
 H   -4.6280349878   -2.9854520214    0.1880901139
 H   -2.7661869128   -3.9535222354   -2.0240684128
 H   -1.4296513542   -4.5454290826   -1.0143911847
 H   -3.4117680917   -5.8696908179   -0.9870292467