18

 O   -0.1061859074    0.4637268153    1.0236139457
 C   -0.1683026527    1.5997596025    0.5849467352
 C    1.0388135550    2.5088268536    0.5172336797
 C    2.1998293997    2.1872121412    1.3613683514
 O    2.2136709424    1.9051435425   -0.0317593206
 N   -1.3292581275    2.1460527433    0.1470604651
 C   -1.6798434278    3.3143670759   -0.6754466714
 C   -3.0936272992    2.6940123353   -0.8690201418
 C   -2.6131031695    1.4667866477   -0.0410009257
 H    0.8777205035    3.5413883428    0.2103231046
 H    2.8561869681    2.9927261482    1.6875910525
 H    2.1286712323    1.3145456443    2.0057906704
 H   -1.6519604987    4.2675407270   -0.1364742975
 H   -1.0861340165    3.4081937771   -1.5912871832
 H   -3.8995612116    3.2641907880   -0.4066455190
 H   -3.3583124587    2.4760479143   -1.9035721483
 H   -2.5218040309    0.5254121307   -0.5918280140
 H   -3.1506146204    1.2744058702    0.8924848269