16

 N   -0.0623249470    1.2794197932   -0.0500571354
 C   -0.0317679686    0.0217991427   -0.0180768776
 O    1.1017890006   -0.7606095733    0.0145831577
 C    0.6515316395   -2.1424633483    0.0637902772
 C   -0.6147743899   -2.1008442808   -0.8086193160
 C   -1.2191957082   -0.9260703069    0.0035508418
 C   -1.1990763889   -1.5420865574    1.4227659279
 O   -2.0211928199   -1.4121672937    2.2839974398
 C    0.0914681611   -2.3892421999    1.4720379768
 H    0.8840649812    1.6646701723   -0.0561005643
 H    1.4758614200   -2.7773277063   -0.2540091362
 H   -0.4064844823   -1.8428669071   -1.8487829466
 H   -1.2060895788   -3.0184830951   -0.7629455332
 H   -2.1629075330   -0.4755155705   -0.2857542657
 H   -0.1545552868   -3.4415065938    1.6471038541
 H    0.7598119110   -2.0543310150    2.2685700997