15

 N    0.2082062430    1.3555671258   -0.1642740483
 C    0.0074597138   -0.0221586193   -0.0895373318
 C   -1.1262165393   -0.8062286823    0.0138427373
 C   -0.6343108457   -2.1237688050    0.1393409369
 N    0.6893996013   -2.1788056096    0.1111765248
 N    1.0692882125   -0.8747890686   -0.0142631972
 C    2.4707996550   -0.5367409800   -0.0111175391
 C    2.9064728443    0.0850462439   -1.2717540099
 N    3.2109764165    0.6171739756   -2.2509949511
 H    0.7872350409    1.6418373777   -0.9473941407
 H   -0.6665290508    1.8618661091   -0.1898008470
 H   -2.1504218698   -0.4719427520   -0.0154720449
 H   -1.2005753169   -3.0383569222    0.2408957231
 H    2.6994646681    0.1561590361    0.8077362773
 H    3.0174272472   -1.4669628891    0.1562733606