21

 C   -0.1479045930    1.5732382103   -0.2539469458
 C   -0.0047285889    0.0586043979   -0.0730107832
 C    0.9499357246   -0.5533742708   -1.1680404093
 C    2.2918996720   -0.7186561724   -0.4632235671
 C    2.0933132664   -0.7096200897    0.8484097794
 C    2.6559049612   -0.3553612327    2.2043693691
 C    1.2842587122    0.3912994730    2.4603142326
 O    1.3414716639    1.7799091793    2.2298020098
 C    0.6763525710   -0.4143638278    1.2433629889
 H    0.8260021877    2.0671815026   -0.2332919248
 H   -0.6267938976    1.7864457303   -1.2161822466
 H   -0.7548301940    2.0175526561    0.5389368463
 H   -1.0005951302   -0.3895651804   -0.1562844729
 H    0.5651823719   -1.5124398129   -1.5429928007
 H    1.0266348780    0.1068523132   -2.0405245697
 H    3.2379535112   -0.7615169350   -0.9908325315
 H    2.7825662698   -1.2124287236    2.8748152929
 H    3.5585631397    0.2621179517    2.2371838638
 H    0.8158630767    0.1728642433    3.4299131705
 H    1.8995315874    2.1688587614    2.9109174080
 H    0.1540289500   -1.2856654440    1.6601067004