14

 N   -0.0104843946    1.4545908142   -0.1568367562
 C    0.0253446279    0.0789507339   -0.0862590096
 C   -1.1428834952   -0.7050889016   -0.0602658858
 O   -2.3245732234   -0.0428936802   -0.0442214808
 N   -1.1779316846   -2.0243236197   -0.0427803559
 N   -0.0405635845   -2.7212364653   -0.0487281072
 C    1.1063464535   -2.0549438006   -0.0662361297
 C    1.2008934444   -0.6596100151   -0.0821002566
 O    2.3758947708    0.0290999513   -0.0882338379
 H    0.8271823453    1.9253604019    0.1495378587
 H   -0.8700919052    1.8764015442    0.1594033916
 H   -3.0087631355   -0.7272479026   -0.0133611978
 H    2.0085180033   -2.6640782587   -0.0661511676
 H    3.1119180280   -0.5916151216   -0.0661504851