13

 C    0.0185749246    1.4599360922   -0.0553132228
 O    0.0059745789    0.0281780545   -0.0115490899
 C    0.5866505572   -0.5970167503   -1.0302826834
 C    0.7064525422   -1.9526216876   -1.2240824684
 O    1.3688666782   -2.1117183255   -2.3941772792
 N    1.6441742472   -0.8422948186   -2.8978472705
 N    1.1818227134    0.0243907150   -2.0904510141
 C    0.2958506104   -3.0655716843   -0.4835020709
 C   -0.0626237196   -4.0159970889    0.1626619130
 H    1.0442401821    1.8401441315   -0.0642243946
 H   -0.5069265604    1.8269859518   -0.9417356066
 H   -0.4959579731    1.7825678350    0.8494032406
 H   -0.3797861211   -4.8534559150    0.7342390868