23

 C    0.3770077498    1.2055242664    0.4893131267
 C    0.2387910469   -0.2389901571    0.0002108694
 C    0.5214330381   -0.4020308836   -1.4920603630
 C    2.0293796713   -0.2952781728   -1.8973593711
 C    2.0293800916   -1.8056265973   -2.1533655024
 C    2.9376914873   -2.5903295426   -3.0652693865
 C    3.0211684894   -2.7568654480   -1.5654406889
 O    4.0872072391   -2.1886641237   -0.8608175940
 C    0.5063203203   -1.8792544557   -2.0018000984
 H    1.3855649789    1.5923771484    0.3083737763
 H   -0.3280044905    1.8663052326   -0.0278206148
 H    0.1803375253    1.2834450801    1.5631992147
 H    0.9203189938   -0.8877021155    0.5671108850
 H   -0.7759260325   -0.6024792493    0.2114322733
 H   -0.1348055124    0.2648924136   -2.0606229666
 H    2.2004016674    0.3028299348   -2.7973177218
 H    2.7163950988    0.0430447870   -1.1172556501
 H    2.5191839729   -3.4005724008   -3.6552692757
 H    3.7451026718   -2.0441743201   -3.5445459198
 H    2.6335346480   -3.6843754085   -1.1398702295
 H    4.8831534511   -2.6886680624   -1.0688345056
 H    0.1247286607   -2.6234116353   -1.2942385160
 H   -0.0195840272   -2.0049666804   -2.9534303612