16

 O   -0.0352582816    1.4288530920    0.0571298927
 C    0.0331882703    0.0146452473    0.0075106751
 C    0.7297014343   -0.5481463440    1.2463840527
 O    0.6862227020   -1.9790605852    1.2549229782
 C   -0.5007689482   -2.5247474298    0.8565113172
 N   -1.4876026294   -1.9457961818    0.3060229993
 C   -1.3932363462   -0.5285199293   -0.0161968498
 C   -0.5349153479   -3.9323427055    1.1334112311
 C   -0.5537196913   -5.1110050937    1.3650611348
 H    0.8358726785    1.7868067316   -0.1413379609
 H    0.5699290837   -0.3302596179   -0.8888771911
 H    1.7892146085   -0.2800770419    1.2826425608
 H    0.2383834344   -0.1573641954    2.1467061501
 H   -1.9980404598    0.0454976217    0.6985565718
 H   -1.8483414006   -0.3696456868   -0.9992067034
 H   -0.5820595965   -6.1535050713    1.5669868414