16

 O    0.4677361610    0.8555024834   -0.7213855134
 C    0.1146371165   -0.1996534242    0.0990917402
 C   -0.0684274128   -0.0084644286    1.6254817037
 C   -1.2426412503   -1.0156246343    1.5854021177
 C   -1.3855842829   -0.7660509223    0.0364826235
 C   -2.3151981004    0.3065811102   -0.2797135705
 C   -3.0175780402    1.2507044415   -0.5272833513
 C   -1.5999023360   -1.9412205531   -0.7993567178
 N   -1.7272162664   -2.8959590885   -1.4385543319
 H   -0.2206436580    1.5309033553   -0.6575498658
 H    0.8004470349   -1.0210991975   -0.1210428930
 H    0.7860391480   -0.2422483822    2.2616533393
 H   -0.4154313316    1.0039933337    1.8495721123
 H   -0.9242965675   -2.0425651765    1.7722233281
 H   -2.1310015923   -0.7952965888    2.1756537468
 H   -3.6754818220    2.0546180119   -0.7514969676