15

 C   -0.0168566974    1.5322352578   -0.0252432405
 C   -0.0068246692    0.0385247353    0.0466719980
 C   -0.0323322194   -0.8240532190   -1.0098727891
 O   -0.0136630469   -2.1635221387   -0.6140379865
 C    0.0238673949   -2.0749077108    0.7145399850
 C    0.0313901651   -0.8099528264    1.2182440851
 C    0.0732479901   -1.0099804376    2.6451980441
 C    0.0856994416   -2.3593628048    2.8296466737
 O    0.0550130081   -3.0524659952    1.6209068411
 H    0.8771538985    1.9597785294    0.4428513694
 H   -0.0508729013    1.8777996815   -1.0620198498
 H   -0.8844974242    1.9505163010    0.4975970782
 H   -0.0637364992   -0.6742039463   -2.0757489999
 H    0.0918631077   -0.2751735378    3.4348607211
 H    0.1139873115   -2.9881448485    3.7026079001