18

 C   -0.0973379116   -1.1800772050   -0.0644325691
 C   -0.0373844544    0.0202011486   -0.0159870309
 C    0.0392067522    1.4531665800   -0.0030559830
 N    0.6256456799    2.0996511183    1.2108052333
 C    1.3451495348    2.1793201328   -0.0463839857
 C    2.7799381077    1.6428592724   -0.2003461697
 C    3.1252520018    2.9268256084   -0.9765574777
 C    2.2282168257    3.0743799671   -2.1702521473
 C    1.6888490294    3.4413005616   -0.8101613099
 H   -0.1513669282   -2.2400123754   -0.0930580046
 H   -0.8005718691    1.9615313504   -0.4732317687
 H    0.1281374690    2.9700048997    1.3917969370
 H    3.2718766944    1.5744990432    0.7722066242
 H    2.9035482669    0.6976704786   -0.7374142810
 H    4.0487243307    3.4832990710   -0.8805185703
 H    2.4461939920    3.9162352152   -2.8199933884
 H    1.8505421054    2.1960064335   -2.6883592352
 H    1.3329777633    4.4375634596   -0.5723570429