17

 C   -0.0398247688    1.5500723040    0.1252587544
 C    1.5343313223    1.6083591349    0.1290043843
 C    1.5408421001    0.0954618351   -0.1612986626
 N    0.8077298513   -0.5647627475    0.9516546681
 C    0.0452362408    0.0363405718   -0.1545082846
 C   -0.4111706924   -0.8119781482   -1.3304048249
 C    0.9197595878   -1.2827734578   -1.9198728999
 C    1.9843217707   -0.7449114807   -1.3017166582
 H   -0.5457060659    1.8294012250    1.0525350440
 H   -0.4727700427    2.1085812265   -0.7080060792
 H    1.9326919561    2.2042034255   -0.6945465519
 H    2.0131651491    1.9096301908    1.0632789508
 H    0.8639868753   -1.5698194536    0.7978637176
 H   -1.0610662907   -1.6518372178   -1.0520909771
 H   -0.9783703329   -0.2152096452   -2.0566488195
 H    0.9706098143   -2.0189388425   -2.7163220102
 H    3.0188352658   -0.9278325404   -1.5705420311