25

 C    0.0287744321    1.5648920004    0.0967961014
 C    0.0007493460    0.0467024326    0.0367912769
 O    0.7016292973   -0.4625891328    1.1506156019
 C    0.7236798588   -1.8738573803    1.1970210704
 C    1.4688113621   -2.3006540114    2.4551477639
 C    1.6070260482   -3.8165529889    2.5873793307
 C    2.4326138183   -4.2060403854    3.8169657360
 O    0.2854117452   -4.3460658187    2.6445420972
 C    0.1843733775   -5.7248570498    2.3807698760
 H    1.0594327799    1.9307036375    0.0774025630
 H   -0.5077651880    1.9916523433   -0.7560124201
 H   -0.4424497815    1.9205246766    1.0175466695
 H   -1.0397503652   -0.3214277015    0.0400333450
 H    0.4614816176   -0.3110913216   -0.9006498634
 H   -0.2983557148   -2.2804237483    1.2068162426
 H    1.2260226494   -2.2781154838    0.2993511857
 H    2.4664565745   -1.8480745903    2.4481724509
 H    0.9424695965   -1.9102105230    3.3336529957
 H    2.1055221373   -4.2114098293    1.6836765283
 H    2.5402431080   -5.2907026670    3.9055947334
 H    3.4380149809   -3.7782055089    3.7532855148
 H    1.9538389440   -3.8328038413    4.7278132668
 H    0.6560925198   -6.3441162954    3.1576797337
 H   -0.8807441799   -5.9686620676    2.3476207477
 H    0.6368389559   -5.9882513350    1.4113147023