17

 C   -0.4709710958    1.7633647550    0.3481807853
 N   -0.6761554903    0.3327630535    0.3516283443
 C    0.1555192547   -0.4658758773    0.8413526182
 C    1.4780651172   -0.2628996388    1.5236433920
 O   -0.2388614003   -1.8206976112    0.8355235437
 C    0.3857608307   -2.6628899087   -0.0314048022
 C   -0.1897974591   -4.0514783118    0.0870129624
 O    1.2630928002   -2.3227405719   -0.7803347995
 H    0.4430441823    2.1176548338    0.8421947267
 H   -0.4560133804    2.1106737049   -0.6907017988
 H   -1.3314565289    2.2420886921    0.8282233049
 H    1.7270328062    0.7914631981    1.6407154297
 H    1.4558069528   -0.7335746153    2.5116068395
 H    2.2602276928   -0.7503074189    0.9357276681
 H   -0.1191144802   -4.4026467985    1.1201003943
 H   -1.2507775461   -4.0335833402   -0.1780943811
 H    0.3486092944   -4.7254287147   -0.5779730675