25

 C   -0.1788658128    1.5410148618    0.0641506020
 C    0.1879887875    0.0534726580    0.1063161356
 C    0.8055783526   -0.4762515229   -1.2062792513
 C    2.2861187442   -0.0539952349   -1.3048401384
 O    2.8060278437   -0.0935132921   -2.6155408729
 C    0.6392742780   -2.0074650152   -1.3107728700
 C   -0.7979363756   -2.4356116398   -1.6198309044
 O    1.5243686696   -2.4857028905   -2.3339496556
 C    1.8363730582   -3.8601009093   -2.2655297765
 H    0.6856148225    2.1708671855   -0.1666707495
 H   -0.9402070984    1.7345708080   -0.6991197575
 H   -0.5797607513    1.8725400061    1.0270911527
 H    0.8956431214   -0.1301100789    0.9268960525
 H   -0.7114342322   -0.5180143272    0.3594770754
 H    0.2863864945   -0.0178626497   -2.0590982673
 H    2.3931781494    0.9818885420   -0.9668684275
 H    2.8784054310   -0.6764153056   -0.6097620646
 H    2.6340760247   -0.9925897768   -2.9235330472
 H    0.9602448409   -2.4530637989   -0.3530449120
 H   -1.1027254028   -2.0352080600   -2.5916963904
 H   -0.8945160377   -3.5244920193   -1.6520278378
 H   -1.4962619620   -2.0726601678   -0.8615249163
 H    2.2419857607   -4.1317301148   -1.2793441924
 H    0.9662846805   -4.4980247735   -2.4712539999
 H    2.5960515334   -4.0563175241   -3.0260479566