19

 O   -0.1189597272    1.3142759683    0.1103339911
 C    0.0140729387   -0.0699664735    0.0089666125
 C   -0.3892645266   -0.7872298560   -1.2565228787
 C   -1.2002949517   -0.9565724909    0.0174706206
 C   -0.7770127869   -1.9761164505    1.0897966024
 O   -1.7369363466   -2.9519582347    1.3366233478
 C    0.7087540942   -2.2937223149    0.7557234220
 C    0.8792853599   -0.7833595548    1.0746052426
 C   -0.1985931455   -0.9990686556    2.1878438441
 H    0.6411856900    1.7175130002   -0.3229382882
 H   -0.8606668427   -0.1399514552   -1.9896724919
 H    0.1860213120   -1.5958471952   -1.6915057783
 H   -2.2043705106   -0.5535475389    0.0695823599
 H   -1.4134152713   -3.5221467977    2.0415539316
 H    1.1667083443   -2.9134863426    1.5318812979
 H    0.9785274490   -2.6830746764   -0.2260509432
 H    1.8573683326   -0.3555456586    1.2926817862
 H   -0.8052752794   -0.1370234856    2.4737289056
 H    0.1849286678   -1.5195199773    3.0714333561