17

 C    0.0603670522    1.3516289494   -0.2082326047
 C   -0.0862540142   -0.1159967628    0.0960623938
 C   -0.8552408199   -0.6076580554    1.2959336097
 C    0.6430083916   -0.7855379615    1.2245351231
 O    1.1116368808   -2.0757718620    0.9724101780
 C    1.7067845774   -2.1589890007   -0.3108413569
 C    0.7368066842   -1.7820020282   -1.4254003979
 O    0.7783673205   -2.2485988928   -2.5278313023
 O   -0.2289549761   -0.8866926268   -1.0928496822
 H    0.9462977801    1.5372581412   -0.8241747414
 H   -0.8163285633    1.7187989857   -0.7504797353
 H    0.1569948546    1.9265752446    0.7169468991
 H   -1.2631441110    0.1254419222    1.9826320449
 H   -1.4426885107   -1.5086522441    1.1632887106
 H    1.2895051941   -0.1859331003    1.8648287209
 H    2.6028821236   -1.5228615071   -0.3848192272
 H    2.0090946361   -3.1945150615   -0.4707566222