14

 C    1.0394333922    1.0378528847    0.0460193270
 N    0.3057671661    0.1300116017   -0.8400747437
 C   -0.3483100595    0.6108090948    0.3904622643
 C   -0.6144450464   -0.4064865585    1.4272181691
 N   -1.5254644247   -0.1841531706    2.3472392915
 O   -1.5202311134   -1.3116432931    3.1633060847
 C   -0.6056036406   -2.1759909065    2.6990038181
 C    0.0110202602   -1.6767251825    1.6008815211
 H    1.8811589305    0.5890062471    0.5654537530
 H    1.1859856575    2.0724904282   -0.2527215841
 H   -0.0574099030    0.6309200607   -1.6460524313
 H   -1.1238031028    1.3669422298    0.3086951917
 H   -0.5128478391   -3.0999741173    3.2487051159
 H    0.7691216630   -2.1279257086    0.9845592929