20

 C    0.0555994313    1.4641650553   -0.0035770740
 N    0.0015068405    0.0096676593    0.0320836711
 C    0.0040460312   -0.6931788510   -1.1869355251
 C   -0.3190422193   -1.9836165552   -1.3105738491
 C   -0.3321524507   -2.6906749735   -2.6329681134
 C   -0.7172956494   -2.7386048451   -0.0648343464
 C   -0.0091682316   -2.1577132069    1.1649800633
 C   -0.0677628918   -0.6377339192    1.2513337742
 O   -0.1193917104   -0.0400918937    2.3103903463
 H    0.9300035339    1.8004576087   -0.5719170187
 H   -0.8449493155    1.8815663564   -0.4681040373
 H    0.1275461744    1.8192323602    1.0231215555
 H    0.2788632524   -0.0842213190   -2.0420165447
 H   -0.0735756061   -2.0176599164   -3.4555686540
 H    0.3743615254   -3.5310777641   -2.6493643211
 H   -1.3228926655   -3.1151691412   -2.8445118668
 H   -1.8093481731   -2.6894956014    0.0657113183
 H   -0.4754946407   -3.8028128235   -0.1629322408
 H   -0.4073368345   -2.5501745788    2.1022209773
 H    1.0561908394   -2.4242336011    1.1281095354