16

 O    0.0626948327    0.0146333664    0.4082573199
 C    0.0075168606    1.1821009062    0.0725004651
 C   -1.2344560183    2.0337516017   -0.0010117740
 C   -0.9585845625    3.2884371558   -0.3883461833
 C    0.5034027290    3.4394484564   -0.7372090778
 C    1.4706796552    4.4633632973   -0.0963838439
 N    2.7179637518    3.6601875871   -0.0085973522
 C    2.3481764892    2.3325301590    0.1405213566
 C    1.0816134508    2.1213184617   -0.2653244094
 H   -2.2103174679    1.6327611462    0.2452833573
 H   -1.6898034868    4.0772692026   -0.5313196258
 H    0.5899978389    3.5365817980   -1.8319915010
 H    1.6258150278    5.3589390725   -0.7017854146
 H    1.1360926276    4.7631106226    0.9070989366
 H    3.4601774732    4.0100599843    0.5788715776
 H    3.0466312287    1.6219492021    0.5645969589