18

 C   -0.3212999920    1.3577798256    0.0020115750
 C    1.1298253857    0.9430899492   -0.0323750789
 C    0.0446436547   -0.0943917650    0.0306038037
 C   -0.1914110823   -1.1318083077    1.1466566012
 C   -0.5261742917   -2.1890782365    0.0564592910
 C   -1.9773389990   -2.1550477198   -0.4572771087
 O   -1.6676820721   -1.1443045359   -1.4457470311
 C   -0.2791193084   -1.1241692411   -1.0522778375
 H   -0.7034323540    1.8004733722    0.9164617579
 H   -0.7741438906    1.7445154708   -0.9048208947
 H    1.6746538778    1.0537432103   -0.9650665271
 H    1.7313566959    1.1024956799    0.8573130118
 H    0.7087832141   -1.3705817050    1.7205271650
 H   -1.0030750801   -0.9149687564    1.8488613432
 H   -0.0275797055   -3.1555607196    0.1061278814
 H   -2.3215071773   -3.0811927476   -0.9347104731
 H   -2.7372098610   -1.8205807583    0.2611777923
 H    0.3950125459   -1.2176561850   -1.9090907013