21

 C   -0.2310430849   -1.1349244994   -0.3971523460
 C   -0.0721130455    0.0381814000   -0.1851965367
 C    0.1279984709    1.4519644024    0.0909318558
 C   -0.6153261795    1.9736640232    1.3464359162
 C    0.0559638795    3.3314042323    1.6480765794
 C    1.4613066571    3.2386661613    1.0205113587
 C    2.0685210179    4.4437673258    0.3434282255
 C    2.6524063687    3.9225173474    1.6347263892
 C    1.5925181451    1.8529308176    0.3905753538
 H   -0.3739506571   -2.1689759255   -0.5904164073
 H   -0.2133034278    2.0337967797   -0.7766474314
 H   -1.6946137812    2.0476177147    1.1933242818
 H   -0.4488811526    1.2684544627    2.1675106784
 H   -0.5125808792    4.1510708387    1.1949791402
 H    0.0941368873    3.5281067228    2.7239621294
 H    2.6334144253    4.2920791349   -0.5712368334
 H    1.5154838118    5.3776088220    0.3752868268
 H    2.4971139637    4.5055384739    2.5372282206
 H    3.6118133490    3.4158962131    1.5942312730
 H    2.0148958598    1.1356107899    1.1048359553
 H    2.2246628017    1.8403123224   -0.5014281395