20

 C   -0.2701971607    1.1463910379   -0.1274196388
 C    1.1953200165    1.0087020110    0.2447266252
 C    0.3623834262   -0.2050720916    0.0021589402
 O    0.0681190107   -0.9713961798    1.1539456523
 C   -0.8829850446   -1.9083893862    1.0153264240
 N   -1.5076747397   -2.1703778344   -0.0603008775
 C   -2.4656160967   -3.2444758844    0.2264613691
 C   -2.1028644568   -3.8204415946    1.6262316899
 C   -1.2421775119   -2.7039104531    2.2497135794
 H   -0.9518775230    1.4466416584    0.6599837548
 H   -0.5354877613    1.4951519003   -1.1189314628
 H    1.9534027039    1.2665502060   -0.4859766417
 H    1.4652828818    1.2175401370    1.2737059941
 H    0.5074416626   -0.8094201963   -0.8854395544
 H   -3.4825276773   -2.8298044649    0.2072724806
 H   -2.4243489379   -4.0042947018   -0.5608923640
 H   -2.9818582169   -4.0717740717    2.2237981491
 H   -1.5104089981   -4.7333333038    1.5147136906
 H   -0.3570057081   -3.0591636567    2.7839010173
 H   -1.8030013385   -2.0693057714    2.9469850424