25

 C    0.0528992500    1.5803928934   -0.1319808988
 C    0.0107298441    0.0576652499    0.0142370656
 C   -1.4139178059   -0.5110416447    0.0349861213
 O   -2.1385328025   -0.1393101239   -1.1409590580
 C   -1.4315821507   -2.0304936660    0.2391744514
 C   -2.8420647305   -2.6124949059    0.3660068536
 C   -2.8733469309   -4.1454635392    0.3293469729
 C   -4.2781877039   -4.7042483735    0.5558730631
 O   -2.3118654140   -4.6482048819   -0.8850238637
 H    1.0821424650    1.9450491183   -0.2016539793
 H   -0.4878959318    1.8962602856   -1.0279012842
 H   -0.4179155224    2.0707417778    0.7273882967
 H    0.5611615387   -0.4150922320   -0.8129330795
 H    0.5259418102   -0.2486858006    0.9332173097
 H   -1.9722038020   -0.0316391786    0.8511188335
 H   -1.6720584485   -0.5196634220   -1.8944715284
 H   -0.9232951990   -2.5127678714   -0.6066278692
 H   -0.8433229079   -2.2790185184    1.1323923323
 H   -3.3074643672   -2.2665509614    1.2985196381
 H   -3.4642875792   -2.2221812410   -0.4504714390
 H   -2.2061113563   -4.5342583639    1.1097583881
 H   -4.9736270769   -4.3215262866   -0.2020330635
 H   -4.2687114806   -5.7957433196    0.4916938926
 H   -4.6675977082   -4.4156517044    1.5375521705
 H   -2.9021723497   -4.3883288199   -1.6015671157