15

 O    0.0176442963    1.3498167285   -0.1316512050
 C    0.0505779209   -0.0148238492    0.0316983447
 C   -0.3973745083   -0.6764928868    1.3272021295
 C   -0.8197075667    0.1010103382    2.4476420221
 C   -1.1645483573    0.7556492089    3.3948981563
 C   -1.2988887382   -0.7256781449    0.0679612529
 O   -2.3903151825    0.1252906426    0.0367961622
 C   -1.5047180268   -1.9985758824   -0.6425459930
 O   -2.5356036858   -2.2245416402   -1.2384865336
 H   -0.9139932715    1.6168197521   -0.1128880734
 H    0.8795979399   -0.4806172995   -0.4929579155
 H    0.0996538842   -1.6155654003    1.5602316933
 H   -1.4695655760    1.3338239684    4.2315252387
 H   -3.0338889599   -0.3167939753   -0.5420325644
 H   -0.6670445382   -2.7232252600   -0.6126654147