20

 O    0.3491787733    1.1933942885   -0.3859295094
 C    0.0747669479   -0.1318588685    0.0138774681
 C   -1.4209597954   -0.3392127298    0.2466012489
 N   -2.1299975343    0.0076252586   -0.9855686486
 C   -2.4911338934   -1.0869116095   -1.8956308434
 C   -3.5197690796   -0.3590877012   -1.1184539145
 C   -4.4897246351   -0.8831503692   -0.0567479533
 O   -5.5188815344    0.0011763493   -0.5463321850
 C   -4.6461287234    0.5745504581   -1.5471341527
 H   -0.3315449154    1.4081976410   -1.0374992777
 H    0.4293174977   -0.8619350122   -0.7340894781
 H    0.6268288981   -0.3172735529    0.9414574682
 H   -1.6199625918   -1.3719420295    0.5792812979
 H   -1.7585295848    0.3440686901    1.0341535913
 H   -2.3534703656   -0.8914342028   -2.9559080976
 H   -2.2573863427   -2.1046013986   -1.5833172328
 H   -4.7785568256   -1.9383788848   -0.1383815383
 H   -4.2170189463   -0.6646807191    0.9843520371
 H   -4.4501207945    1.6397025275   -1.3714458320
 H   -5.0366209947    0.4349733350   -2.5626105679