18

 N    0.4199257726    0.0137624466    0.8126345448
 C   -0.1512497573    0.3591712006   -0.3709297434
 O    0.1563919530    1.3373431397   -1.0230423656
 C   -1.2693401581   -0.5931757316   -0.8172631890
 N   -1.2070453012   -1.9008115021   -0.1987981040
 C   -0.2995461608   -2.9243088522   -0.7715520431
 C   -1.3680637043   -3.9990488075   -0.4610910153
 C   -2.3606334742   -2.8176761905   -0.3420953217
 H    1.1096270734    0.6207403031    1.2218530756
 H    0.0648362513   -0.7871474250    1.3096948675
 H   -2.2173004639   -0.1193237284   -0.5319634849
 H   -1.2471926688   -0.6251281675   -1.9193846537
 H   -0.1440164659   -2.7910705036   -1.8540015977
 H    0.6771650804   -3.0001329738   -0.2842405533
 H   -1.5676295234   -4.7409751069   -1.2339854147
 H   -1.1960183365   -4.5031758821    0.4915202657
 H   -3.0621479067   -2.8061918368    0.4983717979
 H   -2.9224412895   -2.6566979719   -1.2753827452