12

 O    0.1090477317    1.3221184674    0.0813384968
 C    0.0699615465   -0.0162901244    0.0369897215
 N    0.0788016889   -0.6166966897   -1.1391411297
 C    0.0380555903   -1.9603898030   -1.1201184903
 C   -0.0107398907   -2.6818021485    0.0702475946
 N   -0.0190834572   -2.0579599196    1.2550216124
 C    0.0206812907   -0.7367347413    1.2485631228
 C    0.0463751391   -2.6458146370   -2.3828826907
 N    0.0517733543   -3.2277672375   -3.3823865311
 H    0.1393982399    1.6379120823   -0.8335202038
 H   -0.0431673368   -3.7656091049    0.0679402281
 H    0.0147281636   -0.2113863939    2.1986883695