17

 O   -0.1371337517    1.3836567051   -0.0577030727
 C    0.0040864412   -0.0109051680    0.0174818961
 C   -0.4352309165   -0.7355944000    1.2727118125
 C   -1.3080558518   -0.7527751919    0.0299630266
 O   -2.4535043230    0.0480093831    0.0279302834
 C   -1.4798600373   -2.0145813905   -0.7558173406
 C   -2.8078962989   -2.6692823550   -0.8329704585
 N   -2.2380754800   -1.9892466383   -2.0133888307
 H    0.3812660362    1.7873685459    0.6457924702
 H    0.8364821652   -0.4140508275   -0.5565339408
 H    0.1022153348   -1.6330537109    1.5609865825
 H   -0.8000569983   -0.1278401899    2.0943716528
 H   -2.1394848137    0.9591369530   -0.0689765799
 H   -0.5868256415   -2.6362714422   -0.7855230871
 H   -2.8756408605   -3.7505076723   -0.9128982223
 H   -3.6312491642   -2.1880609249   -0.3146900971
 H   -2.6778712999   -1.0732518958   -2.0881326045