16

 O   -0.5113166216    0.3145925240   -0.3152045085
 C    0.4832609527    0.5675584420   -0.9360440551
 N    1.6197315844    1.2075837208   -0.4521993809
 C    1.8486620611    1.7076358771    0.8261440764
 O    1.0915724546    1.6507265274    1.7613961622
 C    3.2218722910    2.3688179015    0.9553782729
 C    4.2603465659    1.6003199427    1.8056399377
 C    5.0753126646    1.5396009924    0.4979174509
 O    4.0463965326    2.2641938061   -0.2284532881
 H    0.6174408820    0.3108921846   -2.0067375800
 H    2.3928770073    1.3528558751   -1.0917592346
 H    3.0606660290    3.4122565833    1.2486101451
 H    4.7089760791    2.1785384338    2.6127023202
 H    3.9121067230    0.6445026894    2.1973312160
 H    6.0203880152    2.0917766884    0.4986529895
 H    5.2413361191    0.5420993112    0.0769878663