23

 C   -0.0275434592    1.5671855309    0.1086247697
 C   -0.0201866145    0.0277856557    0.0435817187
 C    0.7997710265   -0.5643146365    1.2063388513
 C   -1.4161672340   -0.5341342716    0.0043110010
 C   -1.9783519505   -1.2681414584   -0.9528224890
 C   -3.3934681378   -1.6322788428   -0.5965992350
 C   -3.6795119313   -3.1337177783   -0.5490687831
 O   -3.5881383480   -1.0601491198    0.7034592463
 C   -2.4377461191   -0.3250965618    1.1004110580
 H    0.9946291896    1.9573753531    0.0694076609
 H   -0.5891470639    1.9965848182   -0.7263865398
 H   -0.4819449910    1.9245164576    1.0391147642
 H    0.4708191682   -0.2651498276   -0.8929975976
 H    0.3810743045   -0.2783608512    2.1772999583
 H    0.8220733515   -1.6570399153    1.1580021810
 H    1.8316115598   -0.1997660505    1.1719637137
 H   -1.5087831945   -1.5794322286   -1.8786689924
 H   -4.1075399767   -1.1648262088   -1.2975240229
 H   -2.9721221544   -3.6373998556    0.1163130383
 H   -4.6934422465   -3.3111554242   -0.1791630738
 H   -3.5964566308   -3.5739780902   -1.5486050062
 H   -2.0903799338   -0.6866086774    2.0804091042
 H   -2.6950928640    0.7395497432    1.2270315742