13

 O   -0.6765292691    1.2282795096    0.9053157672
 C    0.0938144323    0.9792448523    0.0202139205
 C    1.2464891851    1.9147297541   -0.3713596886
 O    2.2360184316    1.4561952683   -0.8895471865
 C    1.0888422060    3.4231989100   -0.1042648524
 O    0.0177385400    3.9349266923   -0.2922775294
 C    2.3730090692    4.1436962108    0.2935581415
 C    2.2450639096    5.5852984712    0.3847235801
 C    2.1336995369    6.7778826939    0.4602878009
 H    0.1136606227    0.0169376780   -0.5331614505
 H    2.7014290588    3.7122152771    1.2512366194
 H    3.1453715761    3.8429028504   -0.4266382920
 H    2.0356091105    7.8333801221    0.5250184200