19

 O   -0.1577243393    1.3720733375    0.1220722396
 C   -0.1196864527   -0.0212256578    0.0187259318
 C   -0.3854340663   -0.7823219242    1.2826749891
 C   -1.3993034161   -0.7996962620    0.1675023582
 C   -2.8202742403   -0.2109039750    0.2191253791
 C   -3.2834523979   -1.3676428048   -0.6962133200
 O   -3.1383484751   -1.0655059519   -2.1010636778
 C   -1.8808229442   -1.7783652713   -2.1763649885
 C   -1.8640900745   -2.0103813583   -0.6571230648
 H   -0.5286927334    1.7208650064   -0.6957208739
 H    0.6396508962   -0.4160849526   -0.6584723619
 H    0.1945301376   -1.6791793619    1.4760785069
 H   -0.6259310984   -0.1909214728    2.1604016616
 H   -3.2701854975   -0.2368857898    1.2166947279
 H   -2.9575653401    0.7865731554   -0.2071334552
 H   -4.2229156476   -1.8796649021   -0.4733699979
 H   -1.9803717873   -2.6945094834   -2.7735577309
 H   -1.0747972512   -1.1634876175   -2.5961656685
 H   -1.6388916720   -3.0078941641   -0.2804567650