19

 C   -0.0255660939    1.4793206537    0.0061789428
 C    1.3420667424    0.8117267724    0.0149181369
 C    2.3174731437    0.4237880904    1.0734975631
 C    2.2809245805   -0.8564844869    1.4646122407
 C    1.0844846068   -1.7274301562    1.0641733651
 C   -0.1420855348   -0.8302596391    1.2702929938
 C    0.0776541941   -0.0190363493   -0.0046051795
 C    0.1362316690   -1.1297229036   -1.0241326587
 O    1.0118089956   -2.0702800984   -0.3497999430
 H   -0.4296977479    1.9185886723    0.9130209098
 H   -0.2840655244    2.0217643453   -0.8981287309
 H    1.8158941294    0.8814761918   -0.9648082735
 H    3.0884350759    1.1115207758    1.4110971440
 H    3.0086811208   -1.2631582093    2.1609593000
 H    1.0830285069   -2.6723092616    1.6116994123
 H   -1.0863893733   -1.3846096986    1.2211291628
 H   -0.1060161574   -0.2578356636    2.1959464832
 H   -0.8332002235   -1.6085639964   -1.2256703125
 H    0.5964714099   -0.8423669287   -1.9744898865