17

 C    0.2150173150    1.4844338444    0.0762669765
 C   -0.0928545094    0.0073079351   -0.2005975297
 C    0.7092271611   -0.5374646250   -1.3376300391
 O    0.5064785380    0.0134847904   -2.6523704627
 C    1.2513527974   -1.1237949881   -3.1647517515
 C    1.0356993581   -1.8986585255   -1.8168589491
 C    2.1797536934   -0.9816791217   -1.2432067623
 C    2.6926261314   -0.8647134607   -2.6451940664
 O    3.7749730453   -0.8317786060   -3.1543523244
 H    1.2597569151    1.6206918738    0.3719421380
 H    0.0378342217    2.0883722499   -0.8177198750
 H   -0.4197848097    1.8674343568    0.8798971307
 H    0.1070566604   -0.6033050347    0.6876910901
 H   -1.1551002078   -0.1187109868   -0.4406926204
 H    1.0053905174   -1.4193634091   -4.1807606340
 H    0.7838339473   -2.9134544518   -1.5469573083
 H    2.7167053055   -1.0898622011   -0.3111336524