16

 O   -0.1418887579   -0.0158022584    0.0203578743
 C   -0.0966807856    1.1870528914    0.0272478131
 N   -1.0576706757    2.1681715928    0.0524544679
 C   -0.1336837200    3.3120504888    0.0412516857
 C    1.0058649655    2.2689255398    0.0126631807
 C    2.2797574171    2.3141957253    0.8837163118
 C    2.9186378961    1.2426288756   -0.0301442553
 C    2.2457761551    2.3255827127   -0.9053942172
 O    2.8087219241    3.3721944854   -0.0145350045
 H   -2.0646835630    2.1141054453    0.0714669689
 H   -0.2105985097    3.9438821608   -0.8484521482
 H   -0.1756639535    3.9332372811    0.9407125663
 H    2.3694958519    2.4692009288    1.9587718101
 H    4.0084144974    1.2548834987   -0.0507856927
 H    2.4777520147    0.2444128396   -0.0281050633
 H    2.2947444135    2.4942258523   -1.9810276976