18

 C    0.0238837717    1.5183852057    0.0331760983
 C   -0.1461932720    0.0268159075   -0.1947582674
 O    0.9464085410   -0.4362095447   -0.9763635317
 C    0.9463621888   -1.8112084888   -1.1794281898
 C    0.1683776246   -2.4687004471   -2.3710499641
 C    1.1352067773   -1.7826095324   -3.3638719471
 C    1.9582303165   -2.3812817397   -2.1978316515
 O    1.1159824842   -3.5981568709   -2.2554477806
 H    0.9620910787    1.7212489649    0.5571464562
 H    0.0413722685    2.0535422179   -0.9204603794
 H   -0.8026883356    1.9079637470    0.6347350355
 H   -0.1725411385   -0.5135926699    0.7650886211
 H   -1.0964296390   -0.1818405676   -0.7110448700
 H    0.8750595034   -2.3852919654   -0.2469854707
 H   -0.8884689900   -2.7135283455   -2.4795922765
 H    1.2520599748   -2.2941505267   -4.3198602087
 H    1.0944068584   -0.6960340509   -3.4467565899
 H    3.0352180972   -2.5164138234   -2.0984079839