14

 C    0.0613600544    1.4800464367    0.0025266512
 C   -0.0723722741   -0.0061510512    0.0109799663
 C   -1.2285803967   -0.6988666852   -0.1216972948
 C   -1.1055977841   -2.1180439206   -0.0826059922
 O   -2.2299708649   -2.8235994463   -0.2111916925
 N    0.0141761230   -2.7668111316    0.0680759689
 C    1.1825678267   -2.0739768053    0.2023856354
 O    2.2797875306   -2.5199280889    0.3469194911
 O    1.0949371761   -0.6348351818    0.1672689069
 H    0.7298159326    1.7905131109   -0.8069763940
 H   -0.9096048585    1.9600390239   -0.1269758008
 H    0.5114862855    1.8200925762    0.9407413822
 H   -2.1850456430   -0.2155130717   -0.2491397381
 H   -1.9725519576   -3.7579194851   -0.1634095395