18

 C    0.2304939262    1.4790623950   -0.3594905158
 C    0.0704411542    0.0144751853   -0.0194124134
 C    1.2854018521   -0.9041229256    0.0942223908
 C    0.4978776593   -0.5268361514    1.3031427301
 C    0.9239220401    0.1852218977    2.5827446566
 C    0.0513744430   -0.8947970772    3.2787982625
 O   -0.2973350942   -1.4922069294    2.0157377250
 C    0.7586087965   -1.8217808306    4.1667503895
 N    1.3225765179   -2.5379063760    4.8769219681
 H    1.1252365906    1.9009403550    0.1109407899
 H    0.3309635782    1.6228490845   -1.4404744844
 H   -0.6314477257    2.0657361006   -0.0228814943
 H   -0.8187644802   -0.4629690540   -0.4242857410
 H    1.1858476200   -1.9236334368   -0.2621590647
 H    2.2738472560   -0.4708192638   -0.0296934934
 H    1.9865036325    0.1415593374    2.8220575722
 H    0.5561853925    1.2048534677    2.7063634579
 H   -0.8329997691   -0.5110711786    3.7997647044