17

 C   -0.0690741247    1.4770609330    0.0635767044
 C    0.0155437291   -0.0143376708   -0.0058728920
 C   -0.0345992568   -0.7837372876   -1.0949200190
 C    0.0205506366   -2.2575621885   -0.7826018770
 C    0.4903090383   -2.2630182830    0.7055320660
 C    0.1182605764   -0.8531014898    1.2521730773
 C   -0.0489952915   -3.3661543647    1.4933758706
 N   -0.4840656905   -4.2374826552    2.1164608348
 H    0.8193795644    1.9033791940    0.5462345940
 H   -0.1641610175    1.9214762159   -0.9304855268
 H   -0.9309903401    1.7960187434    0.6634797996
 H   -0.1495768508   -0.4134305618   -2.1079135330
 H   -0.9652897806   -2.7284781524   -0.8898827199
 H    0.7078233676   -2.8209919229   -1.4216514897
 H    1.5817023876   -2.3534041088    0.7148322383
 H    0.8661800417   -0.4833227609    1.9617505146
 H   -0.8395145892   -0.8703937200    1.7890111578