18

 C    0.0838370352    1.2578879385    0.2061297616
 O   -0.0006206921   -0.0897142501   -0.2215261616
 C   -1.2736236067   -0.6455481345   -0.0588079082
 C   -1.4797482949   -2.0577196515   -0.5722302286
 C   -2.4116692008   -2.3842447607    0.5367547349
 N   -1.0861801225   -3.0490948788    0.4890737927
 C   -0.5990451030   -2.2128460286    1.6389944787
 C   -1.7035727519   -1.1927338987    1.3295549495
 O   -2.2165691568   -0.2830200002    2.2331958541
 H    1.1034381342    1.5952164383    0.0065087219
 H   -0.6186303183    1.8978771040   -0.3494931861
 H   -0.1294263548    1.3620290963    1.2777840786
 H   -2.0560856972    0.0245451261   -0.4467375729
 H   -1.4694675669   -2.4089348251   -1.5949544172
 H   -3.3675414742   -2.8888567027    0.5691870972
 H   -0.7730689268   -2.7716708465    2.5642366966
 H    0.4407755007   -1.8792441793    1.5738609014
 H   -2.3594917731   -0.7280485964    3.0758115372