23

 C   -0.0171664855    1.2054408131    1.0149570709
 C    0.2234115754   -0.1680428661    0.4279421769
 C    0.1910977584   -0.4146232021   -1.0462171813
 N    1.4432983048   -0.5236037295   -0.3124805110
 C    2.4823800969    0.4703330066   -0.5410676125
 C   -0.3743987128   -1.6735905479   -1.6524037318
 C   -1.8614635965   -1.6261106275   -1.9306782058
 C    0.5250616891   -2.4932908159   -2.5048130452
 N    0.1415973125   -2.9574112764   -1.1568763481
 H    0.2214708910    2.0101561772    0.3156625244
 H   -1.0722801181    1.3090447240    1.2888286521
 H    0.5747242315    1.3580049455    1.9244020903
 H   -0.1118242733   -0.9828290805    1.0693071495
 H    0.0593636315    0.4809794563   -1.6585745527
 H    2.1094658649    1.4763988900   -0.7827509016
 H    3.1170714478    0.5441614600    0.3478720510
 H    3.1091893612    0.1373084140   -1.3742760660
 H   -2.1043532093   -0.8330088346   -2.6475186071
 H   -2.2021618175   -2.5795918848   -2.3410879291
 H   -2.4249310493   -1.4331837458   -1.0108374861
 H    0.1155247970   -3.0727221887   -3.3283734108
 H    1.5442171347   -2.1447265171   -2.6516907333
 H    0.9216857055   -2.7515346499   -0.5308577229