16

 O   -0.0804675045    1.3481275134    0.0373179118
 C    0.0847779416   -0.0247575275    0.0022452974
 C    1.1192480332   -0.8023415484    0.8596555444
 C    0.8337069771   -1.9508542684   -0.1449536203
 O    1.6361704899   -3.0668011510   -0.3001027221
 C   -0.6807187013   -2.2284593270   -0.1015475370
 C   -1.2182642942   -0.8460453883    0.0039361152
 N   -1.0177752885   -1.4645023180   -1.3502563879
 C    0.4126903232   -0.9154468820   -1.2549212605
 H    0.7817471700    1.7666949907   -0.0544128397
 H    2.1319954353   -0.3982034198    0.7238584733
 H    0.9138676905   -0.9633624208    1.9216030526
 H    2.5496910389   -2.7801560934   -0.4018026339
 H   -1.1924300756   -3.1398324524    0.1825919875
 H   -2.1942462852   -0.5634431675    0.3791424266
 H    0.9695989394   -0.6308152596   -2.1458003475