13

 N   -0.1921831801    1.3870481740    0.0139785919
 C    0.1420877572    0.0427383390    0.0320299192
 O    1.2705111491   -0.3728621742    0.1247132331
 N   -0.9882394198   -0.7801380554   -0.0197267118
 C   -0.9938778519   -2.1554109517   -0.0024086368
 N    0.0501658332   -2.9451208810   -0.0958733929
 O   -0.5467185445   -4.2284464473   -0.0447852476
 C   -1.8524466867   -4.0359802000    0.0709225817
 N   -2.2153329825   -2.7940313151    0.1038855437
 H    0.6102091293    1.9840166738   -0.1169554030
 H   -1.0138011927    1.6772788446   -0.4942186783
 H   -1.9032743702   -0.3753933073    0.1042347003
 H   -2.4823962104   -4.9118216794    0.1272332307