19

 C    0.0373110861    1.3628961284    0.1879860877
 O    0.0234299758   -0.0193605832   -0.1612839920
 C   -1.2305875624   -0.5632163512   -0.1402159262
 C   -1.8852712442   -1.1109502534    1.1381767565
 C   -3.2527831966   -0.7452042757    1.6690488734
 C   -1.6222505015   -2.0267078653   -0.0337858323
 N   -2.5880280773   -1.8375921273   -1.1282402509
 C   -2.2767848690   -0.4499085001   -1.2229040519
 N   -2.6696089844    0.5103898459   -1.9414766417
 H    1.0753615124    1.6927907613    0.1137545032
 H   -0.5856822690    1.9476710572   -0.4976716908
 H   -0.3177289277    1.5139372708    1.2169748260
 H   -1.1181053225   -1.2238925338    1.9039238130
 H   -3.9835419427   -0.6215558736    0.8650861744
 H   -3.6274445856   -1.5176422817    2.3498772765
 H   -3.2164588264    0.1985244729    2.2222807376
 H   -0.9855902416   -2.9018164310   -0.0108717301
 H   -3.5542676656   -2.1238319430   -1.0019719822
 H   -3.4084329179    0.2190668930   -2.5853558902