18

 C   -0.0299495645    1.5602513095   -0.0300588349
 C   -0.0919761336    0.0356760758   -0.1040520563
 C   -1.5022270405   -0.5137234327   -0.1278819182
 O   -2.4837957601    0.1966229388   -0.2136943937
 C   -1.7018851907   -2.0271083376   -0.0605712782
 O   -3.0749573669   -2.3251145352    0.0371747483
 C   -1.1365661090   -2.7407034149   -1.3085116418
 O   -1.5020531647   -4.0986992206   -1.2920079216
 H    1.0083626198    1.9018223909   -0.0316536047
 H   -0.5466468899    2.0126229518   -0.8796174985
 H   -0.5130650444    1.9273089440    0.8791711163
 H    0.4194945307   -0.3330806756   -1.0047061707
 H    0.4411657635   -0.4318472000    0.7343550747
 H   -1.1830249723   -2.4213007263    0.8260166325
 H   -3.5275288451   -1.4762639843   -0.1048091741
 H   -1.5141757188   -2.2283321159   -2.2099569942
 H   -0.0426655446   -2.6965045528   -1.3224784298
 H   -2.4469867690   -4.1060124347   -1.0891477251