21

 O    0.0232167696    1.3892144043   -0.1832480326
 C    0.0475215347   -0.0033433249    0.0945308098
 C   -1.3778648250   -0.5103634027    0.0549141476
 C   -2.1133276964   -0.5436717538   -1.3131548175
 C   -2.6893241187   -1.9300376488   -0.9375111038
 C   -4.1838858306   -2.0734815601   -0.5743870034
 O   -4.3696754831   -3.1195171319   -1.5483562488
 C   -2.9875172436   -3.0446378047   -1.9532825587
 C   -1.6146886683   -2.0414122629    0.1720622575
 H    0.9283466795    1.7138057557   -0.1836428502
 H    0.6507866865   -0.5485428693   -0.6514651398
 H    0.4891230507   -0.2082152688    1.0843282659
 H   -1.9687961984    0.0367984870    0.7965054060
 H   -2.8270979277    0.2547879626   -1.5298843193
 H   -1.4055806963   -0.6121113409   -2.1469972298
 H   -4.3951995462   -2.4209227014    0.4462765700
 H   -4.8094254194   -1.1964059127   -0.7893834687
 H   -2.8820871862   -2.7601705632   -3.0093480250
 H   -2.4566154443   -3.9920247368   -1.7856344646
 H   -0.7445057378   -2.6130923025   -0.1711171675
 H   -1.9313588091   -2.4400967842    1.1399568830