23

 C   -0.1483703882    1.3827952161    0.0490879986
 C   -0.3133613526   -0.0802234213   -0.3232190774
 O   -1.3127460608   -0.6459390369    0.5135853785
 C   -1.5219402897   -2.0013825317    0.2800234081
 C   -2.8010728070   -2.5852755483    0.7895857906
 C   -2.5828357547   -2.4589322097   -0.7084473184
 C   -3.3871657702   -1.4114273422   -1.4525687408
 C   -2.2974703236   -3.7324425040   -1.4791682006
 O   -3.4481057256   -4.5372912255   -1.7054354101
 H    0.6249184093    1.8483107002   -0.5692493108
 H   -1.0856264313    1.9265293142   -0.1003490566
 H    0.1398613124    1.4807618113    1.0994877364
 H   -0.5991819570   -0.1857160334   -1.3810151192
 H    0.6357794875   -0.6242214916   -0.1880140373
 H   -0.6150507222   -2.6058714442    0.3528722469
 H   -2.7842941753   -3.5721904060    1.2388159131
 H   -3.4942449197   -1.8887671385    1.2490967054
 H   -3.4199641879   -0.4754594104   -0.8903886944
 H   -2.9503426212   -1.1988062079   -2.4363286297
 H   -4.4219781838   -1.7393240705   -1.6098053849
 H   -1.8007146556   -3.4824179533   -2.4317428415
 H   -1.6091616177   -4.3687290102   -0.9123559053
 H   -4.0565464452   -4.0336737463   -2.2547567206