16

 N    0.3578670153    0.6739194308   -0.5776752417
 C    0.0288744414   -0.2436508440    0.3694123970
 O    0.7569545437   -0.5268440202    1.3022610849
 C   -1.3308359978   -0.8898377154    0.2123926240
 C   -1.8979220394   -1.3244939235   -1.1223005281
 C   -1.4067316470   -2.3512082463   -0.1493000766
 O   -0.2320432497   -3.0254736806   -0.5307102409
 C    0.5741281077   -3.4613936429    0.4797320282
 O    1.5485326843   -4.1110243558    0.2594450582
 H    1.2461823979    1.1427989385   -0.5044931547
 H   -0.2722779731    0.9279676926   -1.3169469296
 H   -2.0313924613   -0.5612693037    0.9745600512
 H   -2.9636738403   -1.2370629602   -1.2990941171
 H   -1.2742158044   -1.1901100786   -1.9996156966
 H   -2.1271754148   -2.9788620493    0.3672741280
 H    0.2226397475   -3.1468059212    1.4751363138