15

 O   -0.2399660395   -0.0310657602    0.0901815733
 C   -0.1046968048    1.1570608854    0.0741557017
 C   -1.2190316990    2.2439741668    0.0316086619
 N   -0.6391767418    3.4475560445    0.6422732980
 C    0.6249546582    3.2744813307    0.6308422582
 N    1.6349216803    3.9510842044    1.2923779776
 C    2.6460827741    2.9902660083    1.5524815354
 C    2.4413858622    1.8300088177    0.9095604000
 C    1.1958378217    1.9933730434    0.0778019380
 H   -1.5056130726    2.4039379555   -1.0185845730
 H   -2.1180964371    1.9209852148    0.5652510919
 H    1.3881335418    4.6403208054    1.9882035181
 H    3.4739800547    3.2737687340    2.1873763447
 H    3.1163002272    0.9889963875    0.8815515530
 H    1.4499919546    2.0976423916   -0.9919760188