19

 O    0.2292344439    1.3618820124    0.3543455673
 C    0.1209415213   -0.0165377598    0.1024279135
 C    1.2116694438   -0.6634388142   -0.7130711833
 C    1.1614070446   -0.8610582791    0.7881412141
 C   -1.2789499641   -0.5570986959    0.0221490552
 C   -2.4186076185    0.0725763550    0.7428550515
 C   -2.4243873952    0.0824483128   -0.7828724788
 C   -2.2944817415    1.3687451688   -1.5018784335
 O   -2.7113666542    1.5630029478   -2.6193033508
 H    0.2933811651    1.8186837907   -0.4911314127
 H    0.9506854388   -1.4950241258   -1.3586856187
 H    1.9880764735   -0.0139385127   -1.1030714637
 H    1.8888020470   -0.3258201339    1.3865656570
 H    0.8719871471   -1.8315353427    1.1757096850
 H   -1.2969217546   -1.6416213608   -0.0423282208
 H   -3.1501583453   -0.5503315606    1.2442111757
 H   -2.2180410404    1.0254179525    1.2213725335
 H   -3.0760795212   -0.6188145085   -1.2937054025
 H   -1.7996414900    2.1827461340   -0.9280078081