21

 O   -0.2436164254    1.5966697136    0.0179552752
 C   -0.0408807271    0.1957454483   -0.0856052080
 C   -1.3932764015   -0.4868696021    0.0687465814
 C   -1.3067451884   -2.0103846597   -0.0799788929
 C   -2.6539073783   -2.7012165420    0.1161281279
 C   -2.7535681500   -4.2611183503    0.0698300350
 C   -3.6186166679   -4.2599685092    1.3662971933
 C   -3.2282185769   -2.7837621657    1.5449072837
 O   -3.2396270767   -2.0279899744    2.4742718707
 H    0.6122441050    2.0301418751   -0.0452764457
 H    0.4031821176   -0.0712443344   -1.0598097003
 H    0.6488166521   -0.1668568677    0.6944663903
 H   -1.8128295610   -0.2341283732    1.0475237714
 H   -2.0758687120   -0.0751383090   -0.6852936974
 H   -0.9152027123   -2.2700335884   -1.0729042635
 H   -0.5902099175   -2.4143380932    0.6483026757
 H   -3.4077092470   -2.2504426227   -0.5436675355
 H   -3.2157350330   -4.6876178412   -0.8211566495
 H   -1.7806801346   -4.7346689439    0.2244601264
 H   -4.6907974976   -4.3702377740    1.1729956387
 H   -3.3421922775   -4.9345878761    2.1800996227