10

 N    0.0637713511   -1.1174643817    0.0124391173
 C    0.0024604216    0.0366600920    0.0195166003
 C   -0.0278765711    1.4824210009    0.0330903118
 C    0.5329020944    2.1698310596    1.2550811543
 N    1.2594894951    2.2181335486   -0.0011572939
 C   -1.1164431656    2.0889740522   -0.7041779224
 N   -1.9968159161    2.5774186039   -1.2696017416
 H    0.0737801525    3.1047553894    1.5590513548
 H    0.8762324565    1.5226896724    2.0566524149
 H    2.0287376616    1.5517696328   -0.0171727755