17

 O    0.1706045832    1.4732701096   -0.2060765720
 C    0.0447143106    0.0706318672    0.0179356976
 C   -1.4078383001   -0.3482809753    0.2801503728
 C   -2.3787074360   -0.1109288904   -0.8428408843
 C   -2.2163257442   -0.3516635978   -2.1491376803
 C   -1.0679757233   -0.9703367649   -2.8543107227
 O   -1.2252544505   -1.3380605023   -4.0098826729
 C    0.2756346010   -1.1364620283   -2.2434740741
 C    0.7543179813   -0.6996970338   -1.0729512517
 H   -0.2429146284    1.6654106787   -1.0559589593
 H    0.5932864166   -0.0993022884    0.9506107169
 H   -1.4209751041   -1.4128919814    0.5556201605
 H   -1.7488791852    0.2011485544    1.1631801876
 H   -3.3460464705    0.2833111341   -0.5378283575
 H   -3.0424186701   -0.1577827069   -2.8278857247
 H    0.9541413669   -1.6336770379   -2.9320320938
 H    1.8150885427   -0.8551760367   -0.8873462720