20

 C   -0.5190757496    1.5449203162   -0.0768057146
 C    0.0190098474    0.1343552680   -0.0188713230
 C   -0.9630579213   -1.0187917772    0.2986053478
 O   -0.1379638777   -1.5089329780    1.3839258326
 C    0.8406986153   -0.4750410080    1.1638845836
 C    1.9271944520   -0.8880150325    0.1685553353
 C    3.3813768120   -0.9693443129    0.4306582808
 N    2.5934495938   -2.1824096089    0.1483105533
 C    1.1485005999   -0.2840740785   -1.0116023316
 H    0.2930165932    2.2797659737   -0.0901899703
 H   -1.1157848659    1.6989170065   -0.9841960084
 H   -1.1594356262    1.7650550949    0.7841486421
 H   -1.9455793778   -0.6965163308    0.6671653518
 H   -1.1036876543   -1.7675574610   -0.4907562544
 H    1.1263962927    0.0336294522    2.0903635544
 H    4.0906598131   -0.6962411679   -0.3468747511
 H    3.7276962827   -0.7851370367    1.4455209851
 H    2.3768300228   -2.6887198932    1.0046887923
 H    0.8609305944   -0.9925633081   -1.7931861347
 H    1.6485904535    0.5712668220   -1.4762061911