22

 C   -0.1483674337    1.5011816178   -0.0653018007
 N    0.1100560911    0.0756015255    0.0983197569
 C    1.3869987983   -0.5486381542   -0.1413342887
 C    2.5626489277    0.3107267905    0.3491687636
 C    1.9501175816    0.2536421455    1.7957596988
 C    2.8164832445   -0.5520800443    2.7607671815
 O    1.5497624212    1.4753105209    2.3986330211
 C    0.7465005608   -0.5501600789    1.2375052413
 C   -0.0161492963   -1.6011875798    1.9944134202
 H    0.6627309307    2.1652470950    0.2489111227
 H   -0.3762203476    1.6851984420   -1.1206872366
 H   -1.0341449971    1.7603176944    0.5222578800
 H    1.4507565715   -1.3522156660   -0.8686893028
 H    3.5306490532   -0.1918366535    0.2802534723
 H    2.6475775840    1.3058001220   -0.0958269078
 H    3.7469998476   -0.0113760143    2.9758935958
 H    2.2894925501   -0.7146808527    3.7057560714
 H    3.0909268802   -1.5248870781    2.3424666097
 H    2.3298425728    1.8901264075    2.7830190766
 H   -0.6500758217   -1.1427772527    2.7627999990
 H   -0.6664917310   -2.1504571205    1.3093910459
 H    0.6484760521   -2.3137070662    2.4932760599