14

 O    0.0307460584   -0.0639874782    0.1165509722
 C   -0.0308686581    1.1320249865    0.0693044673
 C   -1.1587506910    2.1925040263    0.0780059102
 C   -0.0051213954    3.2519250516   -0.0374895696
 N    0.9299732379    2.1150831204   -0.0097483355
 C    0.0244507280    4.0658829039   -1.2390374188
 C    0.0601960944    4.7614607291   -2.2290979569
 C    0.0973965815    5.5364800817   -3.3461956378
 C    0.1321278312    6.2251849452   -4.3372464714
 H   -1.8223641100    2.1476780594   -0.7854187419
 H   -1.7389921698    2.2410270840    1.0001696415
 H    0.0817747687    3.8917635950    0.8483827659
 H    1.9287509377    2.0756333174   -0.1531305480
 H    0.1612529763    6.8299212778   -5.2097703572