20

 C   -0.1861298578    1.5971557793   -0.0420075057
 C    0.0164323284    0.0765452943   -0.0487166045
 C    0.6621355914   -0.4492301687   -1.3815054008
 C    2.1010618085   -0.0127963254   -1.2794984066
 C    2.7382391792   -0.3872416796   -0.1671913116
 C    3.2127865047    0.5572790812    0.9141494117
 N    2.1539499713   -0.0530519806    1.8315358583
 C    0.8227503799   -0.4586727146    1.1544159888
 C    2.0484410780   -1.2264995826    0.8972487637
 H    0.7608085197    2.1293767483   -0.1707393929
 H   -0.8591728865    1.9058203066   -0.8490428133
 H   -0.6230969229    1.9266871434    0.9057917056
 H   -0.9744948175   -0.3871875874    0.0522210923
 H    0.5492931307   -1.5377020086   -1.4192127671
 H    0.1551465803   -0.0323980782   -2.2559164915
 H    2.4221038160    0.8751928907   -1.8188275082
 H    4.1726974408    0.3284317607    1.3875276000
 H    3.1352145404    1.6327885283    0.7257351350
 H    0.1956048091   -0.7931459623    1.9770814248
 H    2.2756070363   -2.2431859652    1.2017840119