22

 C   -0.0149067204    1.3265849426    0.1415554490
 O   -0.1523572930   -0.0456226735   -0.1490092999
 C    0.6374763937   -0.5354885216   -1.2076674363
 C    0.2345755931    0.0626714442   -2.5565186340
 C    2.2093890891   -0.5535125918   -1.0126413339
 C    2.1462360059   -2.0760813672   -1.1322598911
 N    1.3192820574   -2.5130806292    0.0188326588
 C    0.6574809284   -2.0790454657   -1.2364810075
 C   -0.3016625183   -2.9771395219   -1.9566931876
 H    1.0356653516    1.6113415466    0.2999517371
 H   -0.4326260250    1.9735092592   -0.6438478711
 H   -0.5667720922    1.5096315987    1.0670828046
 H    0.4816011938    1.1273171081   -2.6073510439
 H    0.7626055865   -0.4355029525   -3.3752053523
 H   -0.8424023561   -0.0480798920   -2.7181045666
 H    2.7452648024   -0.0481554272   -1.8191852381
 H    2.5670620245   -0.2024612696   -0.0424876688
 H    2.8708764597   -2.7409626733   -1.5871072996
 H    1.3028866752   -3.5337117539    0.0079752195
 H   -1.2611739413   -3.0293498290   -1.4295613189
 H   -0.4982966335   -2.6274776404   -2.9750240926
 H    0.0983089985   -3.9949045907   -2.0261884270