23

 C   -0.4928676089    1.4154290751    0.2216418231
 C   -0.0016834062   -0.0007997131    0.0191648930
 C    1.1781113364   -0.2537426256   -0.9491051618
 C    1.7866314292   -1.2714072472    0.0581763139
 C    0.7340399695   -0.8623635545    1.1356844824
 C    1.2637934644   -0.3130451708    2.4409404955
 C   -0.4631920027   -1.8412711956    1.1724645840
 O   -1.2042879736   -1.6618088528    2.3673666624
 C   -1.0889179158   -1.1176747369   -0.0575639297
 H    0.3340402246    2.1006296981    0.4405250980
 H   -0.9991655670    1.7874348743   -0.6785122947
 H   -1.2062630135    1.4736524317    1.0510199124
 H    0.9244667347   -0.6253237095   -1.9470505081
 H    1.8080892330    0.6332128603   -1.0673087345
 H    1.7243635981   -2.3193090141   -0.2523930669
 H    2.8210441966   -1.0684651553    0.3462324649
 H    1.9613881993    0.5133332521    2.2625363672
 H    0.4540299396    0.0471462414    3.0796776764
 H    1.8065244466   -1.0872002796    2.9974168289
 H   -0.2061929322   -2.9023974421    1.0316170411
 H   -2.0476295835   -2.1138502995    2.2616313799
 H   -2.1047053879   -0.7650643427    0.1436085287
 H   -1.0944049110   -1.6920028637   -0.9889930062