15

 N   -0.0020814570    1.2280095184    0.3631648539
 C    0.1297450270   -0.0322616729   -0.1353821333
 O    1.1444083543   -0.4784959131   -0.6286669888
 C   -1.1617450542   -0.8412073296   -0.0387585267
 C   -1.0972426065   -2.3550695543    0.1297799686
 C   -0.5371641140   -2.7262026555    1.4304056814
 N   -1.9782954452   -2.2992655744    1.3972996832
 C   -1.9315598603   -0.8590867219    1.2926176530
 O   -2.3927027284   -0.0164779731    2.0020920312
 H    0.8194026161    1.8099088751    0.4042085491
 H   -0.8004742482    1.4700001125    0.9314898420
 H   -1.8399558809   -0.5337399819   -0.8418235200
 H   -1.3247319703   -3.0764021848   -0.6434742437
 H   -0.4368822319   -3.7794600479    1.6680355644
 H    0.1862076398   -2.0796678367    1.9195581453