18

 O   -0.0004872219    1.4093326635   -0.0553659461
 C   -0.0015732746    0.0328614554    0.0286573455
 C    0.1828154664   -0.7014411690    1.3907192534
 N   -0.7167042940   -1.7916722930    0.8884827706
 C   -1.3233643542   -0.7879215564   -0.0473521791
 C    0.0788041602   -2.7607562906    0.1154143050
 C    1.0330109858   -2.1191636388   -0.9403052808
 C    0.9733093014   -0.5957009051   -0.9495019941
 O    1.6444906012    0.1019273628   -1.6777186969
 H    0.6524366199    1.6292441323   -0.7411745861
 H    1.1837017902   -1.0158401987    1.7025362898
 H   -0.2992299024   -0.1491997535    2.2026299458
 H   -2.1449355570   -0.2559123535    0.4409704141
 H   -1.6601318620   -1.1791920573   -1.0123867267
 H    0.6546648170   -3.3566644237    0.8296622467
 H   -0.6204634940   -3.4436893134   -0.3759863977
 H    2.0782549812   -2.4010480527   -0.7751360501
 H    0.7998707770   -2.4532409082   -1.9571533034