14

 N   -0.1055864020    1.2181543762   -0.6825797260
 C   -0.0557963844    0.0882299535   -0.1508251814
 O    0.9876623475   -0.6019209074    0.4471174030
 C    0.1610243124   -1.8024992087    0.6810795831
 C    0.1148207970   -2.2134995838    2.0650720480
 C    0.0508083299   -2.5706451963    3.2104509042
 C   -1.0361715381   -1.0201771054    0.1001426109
 C   -2.4483145897   -0.9948764808    0.4694782825
 O   -1.9922415889   -1.5217593277   -0.7882170936
 H    0.7982194277    1.6921976967   -0.6650449576
 H    0.4962523118   -2.6116008837    0.0251660620
 H    0.0043372790   -2.8850735174    4.2243118229
 H   -2.8198733626   -1.7316702396    1.1785870852
 H   -2.9919660596   -0.0550199255    0.4089866068