19

 C   -0.0351560157    1.5579179009    0.0731387816
 C    0.0335335956    0.0304621661    0.1920935258
 C   -1.3391170269   -0.6217660629    0.0672889499
 C   -2.0464337620   -0.7932829529   -1.3338298399
 C   -1.0656369475   -1.9793750240   -1.6263093222
 C   -1.4726466233   -2.1882693124   -0.1187668317
 O   -1.0429011047   -3.1671016235    0.7402412132
 C   -2.8826702038   -1.8588878098   -0.6121700060
 O   -4.0035668901   -2.2497026328   -0.4819990882
 H    0.9512581543    2.0078578190    0.2209096397
 H   -0.3982130783    1.8638111568   -0.9136738290
 H   -0.7116422413    1.9846843797    0.8216241092
 H    0.7405518018   -0.3600816865   -0.5452884783
 H    0.4409300169   -0.2428251783    1.1734429880
 H   -2.0018410078   -0.2157602482    0.8401422394
 H   -2.3658925403   -0.0147021857   -2.0180094234
 H   -1.3987089064   -2.7345089638   -2.3406424959
 H   -0.0276445038   -1.7019435599   -1.7967534945
 H   -1.8107243966   -3.6794036119    1.0200859024