19

 C   -0.1705819202    1.5190972947    0.0142061047
 C   -0.0473445579    0.0250857217   -0.0234793153
 C    0.1776439326   -0.7687636519   -1.1278328096
 C    0.3460528715   -0.4723816505   -2.5767101483
 O   -0.4798433244   -1.3001316010   -3.4051457587
 N    0.2649335118   -2.0829079353   -0.6857184583
 C    0.0820057962   -2.1310208773    0.6693350297
 N    0.0236525371   -3.3742549737    1.3229406172
 C   -0.0965320494   -0.8414308479    1.1163111675
 H    0.6955640755    1.9896654488    0.4960403132
 H   -0.2546775503    1.9478699572   -0.9885422710
 H   -1.0560047248    1.8296104862    0.5809901133
 H    0.1609605701    0.5954136062   -2.7574851116
 H    1.3665235341   -0.6835429807   -2.9214302564
 H   -1.3860143364   -1.1817792215   -3.0989028282
 H    0.2245008396   -2.8788415448   -1.3001837206
 H    0.8984050630   -3.8868196449    1.2640153974
 H   -0.2045964364   -3.2531915044    2.3014820006
 H   -0.2298767215   -0.5419301509    2.1456096846