21

 O    0.2700220781    1.3546458877    0.1701490226
 C    0.0300572463   -0.0258482345   -0.0104009648
 C   -1.0559372904   -0.3782521559   -1.0211911663
 C   -1.3338107055   -0.4332590401    0.4666415783
 C   -1.6813034857   -1.7086948892    1.2114932455
 C   -0.9128230251   -2.9770926858    0.8315852295
 C    0.5540782767   -3.0005541521    1.2841282802
 C    1.5001946076   -2.0463491967    0.6030707810
 C    1.2708211470   -0.8384297578    0.0858529564
 H    0.7840305706    1.6644567353   -0.5842038189
 H   -1.4892315134    0.4406670881   -1.5859209249
 H   -0.9438808877   -1.3080542053   -1.5676486709
 H   -1.8905753894    0.4276794053    0.8268472812
 H   -1.5545067501   -1.5308542973    2.2884379076
 H   -2.7534993689   -1.8922451604    1.0608706580
 H   -1.4221729967   -3.8306094345    1.2944992626
 H   -0.9649423473   -3.1463675624   -0.2508961370
 H    0.5921999528   -2.8277204833    2.3713737882
 H    0.9446666099   -4.0163760599    1.1454918078
 H    2.5266584722   -2.4043163099    0.5423001536
 H    2.1278404192   -0.3217256214   -0.3480699196