23

 C    0.3239620660    1.3935860264   -0.1904327016
 C   -0.0035660845   -0.0005570802    0.3171979154
 O   -1.0830752371   -0.5135406603   -0.4406068377
 C   -1.4562716399   -1.8191544397   -0.0857651638
 C   -2.2488159442   -2.0565887992    1.2323555725
 C   -3.1787268407   -3.0142109417    0.4344716828
 C   -2.6476492426   -2.3957833802   -0.8915962681
 C   -3.5663715058   -1.3348561316   -1.4781940904
 O   -4.7184361592   -2.0064502684   -1.9752348397
 H    1.1599667650    1.8191617934    0.3726948453
 H    0.5974936877    1.3612961098   -1.2489146568
 H   -0.5405025261    2.0547379175   -0.0808410456
 H    0.8722350228   -0.6646560038    0.2198186793
 H   -0.2659827724    0.0304336499    1.3869372804
 H   -0.5828905141   -2.4887757623   -0.1388417263
 H   -1.7075138247   -2.4649186097    2.0889198335
 H   -2.7652744365   -1.1439264310    1.5431776493
 H   -2.8928632995   -4.0625616453    0.5484913062
 H   -4.2536150395   -2.9272367450    0.6009687360
 H   -2.3883494383   -3.1043041997   -1.6829898839
 H   -3.8386387875   -0.5957602150   -0.7094383941
 H   -3.0398967659   -0.7918211359   -2.2759015245
 H   -5.3108553430   -1.3458119579   -2.3451997781