23

 C   -0.2240127591    1.4328835020   -0.2532599143
 C   -0.0750003023   -0.0211204318    0.1436329324
 C    1.2160597357   -0.7778180322   -0.0752891380
 C    0.7371776199   -0.5020655776    1.3289127572
 C    1.5056833104    0.3943598265    2.2810113484
 O    2.2855833743    1.2993815174    1.5257355127
 C    0.6017281714    0.9898021024    3.4101240051
 C    1.0584353178   -0.1660254265    4.3408874416
 C    2.2516893624   -0.4257623178    3.3831817542
 H    0.6953424437    1.9891526604   -0.0684393678
 H   -0.4741828193    1.5152211339   -1.3173115560
 H   -1.0303203222    1.9162022693    0.3110743839
 H   -0.9763485006   -0.6069288171   -0.0259303066
 H    1.1785126680   -1.7943293719   -0.4525681240
 H    2.0687589014   -0.1997171362   -0.4123822448
 H    0.3024881728   -1.3509537160    1.8508373134
 H    2.7413376692    1.8818302662    2.1410302792
 H    0.9881865135    1.9576686696    3.7486909593
 H   -0.4641644855    1.0959951566    3.1953949590
 H    1.2969590892    0.0914752335    5.3745724430
 H    0.3455987716   -0.9943454800    4.3508225312
 H    2.5207070397   -1.4583278880    3.1471309547
 H    3.1541245979    0.1028100170    3.7093676063