21

 C    0.3830572356    1.3358120209    0.2396523662
 C   -0.0649195069   -0.0912055743   -0.0395512506
 C   -1.5704313520   -0.2634811979    0.1258961915
 C    0.5331331754   -0.7661473880   -1.3028933570
 C    1.1347421070   -1.7820250461   -0.3135679868
 C    2.6583118736   -1.9412503062   -0.3138231579
 C    3.1432670455   -2.8056335840    0.7544350389
 C    3.5241656700   -3.5306345326    1.6337314065
 O    0.6504228326   -1.0342501323    0.8185841308
 H    1.4673585916    1.4312821638    0.1351502549
 H   -0.0963112016    2.0351029979   -0.4542033581
 H    0.1130231820    1.6264324234    1.2601127590
 H   -2.1160711580    0.3865130241   -0.5669731786
 H   -1.8676125559   -1.2986362541   -0.0655039574
 H   -1.8708414874   -0.0067374785    1.1466928608
 H   -0.1863776054   -1.1605227628   -2.0222870418
 H    1.2732709472   -0.1582019129   -1.8294768728
 H    0.6706941959   -2.7763929719   -0.3535043688
 H    2.9602164223   -2.3497196932   -1.2883327358
 H    3.1158756320   -0.9477714181   -0.2305390087
 H    3.8648567165   -4.1630300970    2.4153731657