18

 C   -0.3915255677    1.0304454713    1.1737222127
 C    0.1923773404    0.4673842599   -0.1378427136
 N    1.5689755014   -0.0258741229    0.0446354650
 C    1.7962597593   -1.0464271719    0.7312657295
 C    3.0495429680   -1.8054034274    1.1164652145
 C    2.0607058628   -2.7234885601    1.8636146550
 O    0.9445090516   -1.8930004004    1.4189709790
 C   -0.7001856559   -0.5261000634   -0.7440600047
 C   -1.4413667886   -1.3203325185   -1.2582010242
 H    0.2929110312    1.7774179448    1.5853538984
 H   -1.3586672254    1.5036845183    0.9840488165
 H   -0.5293463069    0.2312661620    1.9046864450
 H    0.2746861590    1.3001828900   -0.8466098239
 H    3.5848212852   -2.2557878792    0.2792000196
 H    3.7504365998   -1.2469036051    1.7388967350
 H    1.9626462884   -3.7425900100    1.4828305106
 H    2.1315282407   -2.7306130444    2.9537954592
 H   -2.0917464935   -2.0292496329   -1.7072831836