16

 N   -0.1203613015   -1.1998504013   -0.1895060358
 C   -0.0685787991   -0.0500461056   -0.0806992098
 C    0.0031463246    1.4074388050    0.0585114655
 C   -0.5552088006    1.8932876575    1.3847708713
 C    0.3742783486    2.4816201523    2.1334114125
 C    1.7310420634    2.5041893449    1.4804870303
 C    1.4564127865    1.9502554926    0.0799539518
 C    2.4876999305    1.5068189095   -0.8584287715
 O    1.8197848888    2.7642300318   -1.0303380984
 H   -0.5187271440    1.8500232616   -0.7991657299
 H   -1.5941494363    1.7448605770    1.6498812915
 H    0.1972780591    2.9019679153    3.1165947427
 H    2.1575117373    3.5105854584    1.4043541552
 H    2.4542621758    1.8898232442    2.0320371503
 H    3.5358519819    1.5705101942   -0.5698841355
 H    2.2533758651    0.7445607427   -1.5994768401