16

 C    0.0122706931    1.5006803226   -0.0013044702
 C   -0.0018558130    0.0460743319    0.0285174648
 C   -0.0194754886   -1.1562998931    0.0515783860
 C   -0.0271061704   -2.6147677723    0.0805554838
 N   -1.3687802868   -3.1895526489    0.0222243083
 N   -2.0850704067   -3.4145249453    1.1173237099
 C   -3.2445621015   -3.8713161070    0.6403722087
 C   -3.1729969753   -3.8965251593   -0.7590723458
 N   -1.9700726235   -3.4550458177   -1.1314113161
 H    0.8328713791    1.8756829613   -0.6223796134
 H   -0.9230595372    1.8923510931   -0.4153693584
 H    0.1339421513    1.9193706585    1.0033988041
 H    0.5228952935   -3.0251386812   -0.7707789738
 H    0.4303402733   -2.9895433862    1.0002990375
 H   -4.0438566239   -4.1580499057    1.3047368330
 H   -3.9009066135   -4.2084166408   -1.4907447586