18

 N   -0.0540423161    1.2734730122   -0.0543101402
 C   -0.0243003929    0.0142754089   -0.0229328142
 O    1.1143310301   -0.7548673584   -0.0310519253
 C    0.7227663388   -2.1440931692    0.0593277133
 C   -0.6361000906   -2.1674761508   -0.6497812041
 C   -1.2215221057   -0.9186188306    0.0297538950
 C   -1.5049346560   -1.2680169771    1.5056519370
 O   -0.3102139691   -1.5967909449    2.2018102089
 C    0.5401457579   -2.5148901775    1.5374783633
 H    0.8934450825    1.6560663578   -0.0640718248
 H    1.5068055777   -2.7437313105   -0.4071937472
 H   -0.5221803213   -2.0376647027   -1.7294092185
 H   -1.2061363399   -3.0797689704   -0.4575398047
 H   -2.1002075608   -0.4837518681   -0.4455517039
 H   -1.9248906422   -0.4086155454    2.0339069804
 H   -2.2295150471   -2.0979948234    1.5512659594
 H    0.1526846824   -3.5461789164    1.6008980123
 H    1.4951497525   -2.4727615736    2.0682935631