15

 N    0.2368706376    1.4301298772    0.1524833763
 C    0.0189719168    0.0775299024    0.0550265426
 C   -1.1159081532   -0.6844507891    0.0449554637
 C   -0.5926029778   -2.0031512961    0.0044875136
 N   -1.2677192418   -3.2121483056   -0.0184789630
 C   -2.6249743870   -3.4222661345   -0.0185863245
 N   -3.4908983483   -2.4882208393    0.0008899424
 N    0.7258287213   -2.0461503264   -0.0125071431
 O    1.1156956651   -0.6894747552    0.0202356992
 H    1.1363230840    1.7294141320   -0.1969007711
 H   -0.5235484933    2.0032610131   -0.1803561426
 H   -2.1482362683   -0.3925482026    0.0670179534
 H   -0.6696427168   -4.0230070732   -0.0396999290
 H   -2.8515214597   -4.4946854056   -0.0370920245
 H   -4.4276603987   -2.8835036970   -0.0019397035