21

 C    0.1485965046    1.5554042939   -0.2338685407
 C    0.0210332785    0.0380159739   -0.0989889453
 O    0.5005669729   -0.4078537728    1.1696199404
 C   -1.4302575431   -0.4384379755   -0.2000806796
 C   -1.5459887380   -1.9557242827   -0.2140142577
 C   -1.3513298056   -2.8470865712    1.0450033304
 C   -2.7234661471   -2.4029789792    1.6040790922
 C   -2.8631838576   -2.7246203338    0.0963911342
 O   -2.0490038906   -3.9409394372    0.3194087821
 H    1.1945766081    1.8689822268   -0.1372215710
 H   -0.2099721580    1.8963918897   -1.2105572671
 H   -0.4304141422    2.0588813719    0.5469169237
 H    0.6020581760   -0.4411107794   -0.9055235103
 H    1.4229532632   -0.1461735039    1.2503630373
 H   -1.9902958369    0.0068013646    0.6287322089
 H   -1.8630160859   -0.0408230736   -1.1264475348
 H   -1.0353668310   -2.3874345006   -1.0806882778
 H   -0.4335415145   -3.0955326477    1.5743424270
 H   -3.1997408152   -3.1271225262    2.2659088266
 H   -2.8493438774   -1.3746733435    1.9468462860
 H   -3.7640106503   -2.8298624534   -0.5107145845