21

 C    0.0563769499    1.5059073267   -0.5177084264
 C   -0.0370685510    0.0454001099   -0.1206836814
 C   -0.3311915479   -0.3127128615    1.3145204667
 C   -1.3694564597   -0.5567151391    0.2458220495
 C    1.4103041381    2.1083801525   -0.1960406703
 C    1.6921701429    3.5900481780    0.0065042369
 C    0.5811550955    4.2295698710    0.8325879691
 O    0.6701685101    3.1872085304    1.8421000795
 C    1.7922104596    2.6121974753    1.1601144817
 H   -0.1490653422    1.6202305913   -1.5903374450
 H   -0.7247217542    2.0602948401    0.0121379995
 H    0.6530218518   -0.6116700780   -0.6454198654
 H    0.1679631815   -1.1711526312    1.7506184672
 H   -0.4918375427    0.5105859071    2.0027658940
 H   -2.2404300858    0.0906668917    0.2256592446
 H   -1.5734437349   -1.5801383810   -0.0497702924
 H    2.2488131935    1.6203540408   -0.6925015186
 H    2.4612769653    4.1268582441   -0.5324656377
 H    0.8665790381    5.1967542268    1.2614439192
 H   -0.4205377098    4.3046815075    0.3929269417
 H    2.6208761518    2.2641058479    1.7664917076