17

 O   -0.0217874726    1.4113465145    0.0801184635
 C    0.0105534365    0.0134147420    0.0342952622
 C    0.6629926799   -0.6133165133    1.3110896539
 C   -0.0142683571   -1.9841304847    1.5260688224
 C   -1.3848061137   -1.8084720853    0.8979474585
 O   -2.0252610324   -0.5899956910    1.2962179317
 C   -1.3811557778   -0.6300490268    0.0227294064
 C    0.7731065711   -0.4371160298   -1.1995295196
 O    1.2478673748    0.3509928506   -1.9814225490
 H    0.4517977854    1.7154707417   -0.7104218055
 H    1.7513251044   -0.6776517077    1.2347568242
 H    0.4244792323    0.0703302428    2.1268235506
 H    0.5205917535   -2.7901819881    1.0092396507
 H   -0.0716981517   -2.2592826744    2.5836767795
 H   -2.0467595023   -2.6558761629    0.7397166874
 H   -2.0316337440   -0.5045899069   -0.8392383419
 H    0.8842684739   -1.5315770208   -1.3396299748