21

 C    0.0127614948    1.5749632297    0.0324238038
 C    0.0656846884    0.0451619305    0.0169251576
 C    0.7803943554   -0.5103845787   -1.2231127122
 O    2.1523923556   -0.0956712350   -1.1376900558
 C    0.6543086787   -2.0389940183   -1.2801989494
 C    0.9228783745   -2.6913152446    0.0507572750
 C    0.9329314033   -2.0206855796    1.2009397541
 C    0.7059993567   -0.5298677171    1.3032397026
 O    1.9193800410    0.1297049026    1.6606181373
 H    1.0174784226    1.9982268812    0.0700853810
 H   -0.4928090565    1.9547863849   -0.8619109026
 H   -0.5352213905    1.9352634105    0.9089013351
 H   -0.9613415573   -0.3428588901   -0.0260091613
 H    0.3317485325   -0.0770642952   -2.1300120921
 H    2.6454407163   -0.5231344275   -1.8444530937
 H   -0.3536379654   -2.3003925315   -1.6351864868
 H    1.3378817671   -2.4372591952   -2.0442257541
 H    1.1148913164   -3.7618837527    0.0424680484
 H    1.1629842274   -2.5309871041    2.1325720218
 H    0.0252774618   -0.3276049318    2.1398429061
 H    2.4941299072    0.0344196320    0.8885400252