15

 O   -0.3534958527    0.2720218730    0.4287384178
 C    0.2960460892    0.7537332825   -0.4672085589
 C    1.3690570711    1.7652591527   -0.2191899073
 N    2.3881249166    1.9082871232   -1.2803085496
 C    1.5131656361    3.0356094572   -1.0182938204
 C    0.5711592377    3.4731293218   -2.1006293702
 C    0.9264975424    3.3502660701   -3.5225455923
 O   -0.0231343423    2.4702540740   -2.9148574875
 H    0.1559464982    0.4771721882   -1.5279031703
 H    1.6792997967    1.8199028580    0.8220994507
 H    3.3083434381    2.0481991728   -0.8740644087
 H    1.9113696447    3.8754228095   -0.4480974826
 H   -0.1095645005    4.2716768931   -1.8020727192
 H    0.5148526155    4.0502645372   -4.2472347420
 H    1.8755438589    2.8866404167   -3.7811636795