20

 C   -0.1082243381    1.5254082659    0.0738539883
 N    0.1324228534    0.0929631669    0.0844397895
 C    1.3795341536   -0.5315765565   -0.3067643799
 C    2.6708226283    0.2685708819   -0.3811625825
 C    2.8753668410    0.9194388430    1.0133906920
 C    1.8858515499    0.2263971747    1.9866963928
 C    0.9066578037   -0.5840301199    1.1295357040
 C    0.2921518390   -1.7363104122    1.7352866933
 C   -0.1986383376   -2.6939564058    2.2724888451
 H    0.7270536548    2.1626980688    0.3930707881
 H   -0.3864538116    1.8192502594   -0.9434745676
 H   -0.9623105874    1.7370102613    0.7246391077
 H    1.2697374537   -1.3879346127   -0.9682614291
 H    3.4879886114   -0.4204671792   -0.6199425598
 H    2.6471421120    1.0143214243   -1.1836929614
 H    3.9071797001    0.8017193459    1.3551900030
 H    2.6904986241    1.9957641069    0.9709931364
 H    2.4044338345   -0.4683751115    2.6533973498
 H    1.3628572428    0.9440152138    2.6278632858
 H   -0.6442638674   -3.5402655052    2.7331422043