16

 O    0.9802708419    1.1791243748    1.5036321505
 C    0.4359783408    1.4870819511    0.4572538282
 N    1.0362620640    1.4647518844   -0.7540420303
 C    2.4336569087    1.0500441548   -0.9158415988
 C    3.4364849828    2.0601775974   -0.4489758090
 C    4.3976290536    2.7931396523   -1.1200026516
 C    5.0316541534    3.5526232700   -0.1141736348
 N    4.5082494123    3.3179993214    1.0870988632
 N    3.5506777972    2.4043075647    0.8594191185
 H   -0.6211373197    1.8073975625    0.4042835614
 H    0.5372628163    1.8301378979   -1.5490016925
 H    2.5582437037    0.1115142709   -0.3653088642
 H    2.5976723580    0.8394522933   -1.9740377776
 H    4.6101089635    2.7725369663   -2.1771433667
 H    5.8446243099    4.2565574009   -0.2154267156
 H    2.9512270137    2.0701801173    1.6022204793