23

 C    2.5963312902   -0.8169793563    0.2280048385
 C    1.4605318854   -1.7350195832    0.6231203977
 C    1.6775755088   -2.8645923270    1.6010838938
 C    0.8118975654   -1.6839097966    1.9913748049
 C    1.2596820197   -0.7356553919    3.0607780376
 C    0.5458029558    0.5856705199    3.3269553352
 C   -0.6364483861    1.0481738294    2.5030087762
 C    0.4180871126   -0.5464642091    4.3098432989
 O   -0.8361150430   -1.1639145213    4.3933146948
 H    3.2842068236   -0.6392784136    1.0597030302
 H    3.1795436343   -1.2493233071   -0.5927512469
 H    2.2241263239    0.1581939789   -0.1058537321
 H    0.7751354427   -1.9540786289   -0.1922830077
 H    1.2072596166   -3.8244953698    1.4154609437
 H    2.6573973219   -2.9356229697    2.0651148846
 H   -0.2557144634   -1.8762625794    1.9989885314
 H    2.3333353247   -0.7209056250    3.2277336584
 H    1.1987109405    1.3927924911    3.6500956652
 H   -1.3477436734    0.2398521903    2.3278339487
 H   -1.1741104744    1.8494839781    3.0211149037
 H   -0.3111033816    1.4376605585    1.5323350417
 H    0.9345399892   -0.4553780774    5.2656716913
 H   -0.6921706035   -2.1083658999    4.5154695004