20

 C   -0.3359258811    1.5943098857    0.5570658813
 C   -0.1175401537    0.0845237023    0.6169380102
 N   -1.2700422556   -0.5943711818    0.0128151944
 C   -1.2462827499   -0.8729497060   -1.3997257958
 C   -1.1767492051   -2.0051241208   -0.4115178026
 C    0.0844623753   -2.7912151270   -0.3192039364
 O    1.1880568903   -2.3608660638   -0.6046260332
 C   -0.0401142174   -4.2255110388    0.1759790467
 O    1.1951000577   -4.8701272303    0.1864478778
 H    0.4899556586    2.1159637917    1.0497647156
 H   -0.3828208098    1.9433262789   -0.4797044641
 H   -1.2706952002    1.8731870276    1.0513197283
 H    0.8298981569   -0.1869914171    0.1360432662
 H   -0.0614929078   -0.2443392060    1.6610030030
 H   -2.1731440597   -0.7130758582   -1.9445392960
 H   -0.3283336058   -0.6741503552   -1.9509503320
 H   -2.0780323736   -2.5766249009   -0.1998110613
 H   -0.4942537803   -4.1974234611    1.1821341975
 H   -0.7648261375   -4.7513358914   -0.4691661179
 H    1.8302753687   -4.1970426880   -0.1085268617