21

 O    0.1639306774    1.4289882173    0.1472951465
 C    0.0815174700    0.0316315126    0.0726055273
 C   -1.3914510087   -0.4216770998    0.2031116024
 C   -1.5979867292   -1.8572321952    0.6967442978
 C   -1.1155631738   -2.9672345718   -0.2456647067
 C    0.3936569517   -2.9582464183   -0.5392772715
 C    0.8510495003   -1.9162886303   -1.5680925669
 C    0.7173331387   -0.4382119748   -1.2366054728
 O    1.1204311407    0.4018987770   -2.0163975606
 H    0.5841170142    1.7001712653   -0.6865833348
 H    0.6543626308   -0.4222544222    0.9011049623
 H   -1.8417344222    0.2738004880    0.9178783989
 H   -1.9095571120   -0.2597718994   -0.7512463081
 H   -1.0953783722   -1.9733017185    1.6673596489
 H   -2.6668514741   -2.0027321510    0.8918114793
 H   -1.3781970701   -3.9330178268    0.2013614515
 H   -1.6669933999   -2.9129746880   -1.1949518815
 H    0.9522323051   -2.8380653746    0.3980736079
 H    0.6809981214   -3.9401156037   -0.9316597074
 H    1.9090761431   -2.0653548609   -1.8154824936
 H    0.3144533783   -2.0656398048   -2.5145844091