15

 O   -0.7116677904    0.9269886529    0.1063188772
 C   -0.3480470440   -0.4384802880   -0.0479465324
 C    0.5442127350   -0.6414145770   -1.1897594843
 C    1.3106702865   -0.7893347374   -2.1122779769
 C    2.1721546709   -0.9557888205   -3.1585704634
 N    2.9061341849   -1.0956147661   -4.0478601048
 C    0.2619528261   -1.0345339238    1.2259830731
 C    1.1303642800   -0.2157730927    2.1013432995
 N   -0.2371563445   -0.5787829665    2.5210160298
 H    0.0725773120    1.4699728151   -0.0309897786
 H   -1.2924613934   -0.9619996222   -0.2474571659
 H    0.4377962155   -2.1053706286    1.1533696676
 H    1.9298336431   -0.6882153209    2.6633843033
 H    1.3235677655    0.8168448937    1.8227346593
 H   -0.8446482372    0.2247334021    2.3653039066