20

 C    0.8762352463   -0.5100266283   -1.3560134764
 C    0.0503127398    0.1018005732   -0.2314332185
 O   -0.1033534852    1.4830634211   -0.5263900026
 C   -1.3361909713   -0.5438940538   -0.0875871148
 C   -1.4081713367   -2.0097060857    0.2866772983
 C   -2.2378640094   -2.1942278937    1.3136878655
 C   -2.7446506194   -0.8814778700    1.8082366833
 C   -1.6854725699    0.0222279850    2.3397739949
 N   -2.1469416418    0.1634330494    0.9462085907
 H    1.7984553995    0.0631046823   -1.4830353008
 H    1.1435421020   -1.5474977797   -1.1355952261
 H    0.3252021799   -0.4785155845   -2.3014335186
 H    0.5969993654   -0.0231351058    0.7183222497
 H   -0.8342986730    1.8044251526    0.0152347764
 H   -1.8451507677   -0.3771823913   -1.0493699809
 H   -0.8633118605   -2.7857662665   -0.2367852435
 H   -2.5066857444   -3.1421080015    1.7633394409
 H   -3.7829752007   -0.7634038466    2.1062324880
 H   -1.9483247595    0.8663566420    2.9715415716
 H   -0.7171054134   -0.4260959981    2.5438789930