21

 C   -0.1346357518    1.5727961971   -0.0698722739
 C    0.0348431054    0.0526149864   -0.0078754399
 C    0.8549598944   -0.5234520540   -1.1710416832
 C    1.4711612184   -1.6190398183   -0.7489539581
 C    2.7677157269   -2.3839537563   -0.6869097916
 O    2.7144034866   -2.2784109292    0.7703500390
 C    1.3017843788   -1.8643673450    0.7122986196
 C    0.8019346854   -0.5073434940    1.2621374156
 C    1.9573301076    0.3798899726    1.7332837841
 H    0.8272988628    2.0889933606   -0.1429051783
 H   -0.7301663062    1.8554469613   -0.9443633826
 H   -0.6533269568    1.9487932846    0.8181748054
 H   -0.9740560005   -0.3864578020   -0.0068322170
 H    0.9645727908   -0.0173550093   -2.1235654209
 H    2.7287387142   -3.4345074721   -1.0041690369
 H    3.6544131441   -1.9043426512   -1.1155446137
 H    0.6697638624   -2.7072320137    1.0233688109
 H    0.1010184402   -0.6473372916    2.0929663937
 H    2.6682142897    0.5762320445    0.9254897090
 H    1.5914398326    1.3389527055    2.1101375313
 H    2.5080263050   -0.1143513757    2.5379800875