20

 C   -0.0809015066    1.5541243524    0.0319156631
 C   -0.0616032167    0.0332211620    0.1444946206
 N   -1.3571969508   -0.5277742224   -0.1953030198
 C   -1.5328734507   -1.8994973439   -0.0913181791
 C   -0.5919076536   -2.9067876806   -0.0959008628
 N   -1.3240214353   -4.0863564496   -0.0226021382
 C   -0.7868111591   -5.4275945243   -0.0012251916
 C   -2.6298978201   -3.7294742804    0.0316666354
 N   -2.8001273234   -2.4241089592   -0.0054707112
 H    0.9043546040    1.9708241931    0.2590033584
 H   -0.3668271594    1.8644873168   -0.9772759553
 H   -0.7969622844    1.9916885288    0.7371407079
 H    0.6797057564   -0.3746852128   -0.5553941206
 H    0.2674545740   -0.2679378079    1.1552545426
 H   -2.1432770268   -0.0284516257    0.1994755097
 H    0.4827331429   -2.9110585308   -0.1464590743
 H   -0.1220797069   -5.5711114127    0.8573980363
 H   -1.6111551204   -6.1395488504    0.0751172748
 H   -0.2251001483   -5.6419912929   -0.9167107087
 H   -3.4183130550   -4.4651990496    0.0997304629