21

 C   -0.2144317056    1.3674791713    0.2171997385
 C   -0.1057621253   -0.0798734877    0.1000024286
 C   -0.0271119390   -1.2781339872   -0.0041333086
 C    0.1123871605   -2.7338950379   -0.1370657025
 O    0.7626291265   -3.0664433558   -1.3628206068
 C    0.8137258767   -3.3382994298    1.1064093149
 C   -0.2889787690   -3.4072904381    2.1776270456
 C   -1.6275757177   -3.5581953125    1.3891549711
 C   -1.2561412769   -3.4489313870   -0.1049789611
 H    0.5778251829    1.7805985236    0.8512128726
 H   -0.1414026150    1.8503219509   -0.7635529930
 H   -1.1755885248    1.6573918028    0.6559605957
 H    1.5055476631   -2.4635467394   -1.4703103722
 H    1.1502182595   -4.3400863827    0.8174871812
 H    1.6895900966   -2.7633340193    1.4185374364
 H   -0.1222780240   -4.2287496700    2.8792465440
 H   -0.3010952655   -2.4852175708    2.7655758287
 H   -2.1234195477   -4.5088171796    1.6023126864
 H   -2.3278121354   -2.7684707038    1.6742498804
 H   -2.0053644722   -2.9312413486   -0.7068197284
 H   -1.0971956377   -4.4376201883   -0.5481468913