21

 C    0.0959227004    1.6608202394   -0.2392996131
 C   -0.0058080917    0.1361162414   -0.0251304928
 C    0.5352339613   -0.2829077641    1.3455035155
 C   -1.4736393067   -0.2524546459   -0.1707567931
 O   -2.0978472176   -0.9018306631    0.6308352660
 C    0.8044048892   -0.5645587979   -1.1336503799
 C    0.6622757466   -2.0904815474   -1.3419947639
 C    0.2705970467   -1.7102829730   -2.7832584388
 O    0.2983070824   -0.2999398479   -2.4648135643
 H    1.1385479256    1.9840474289   -0.1533733128
 H   -0.2633752482    1.9413734577   -1.2332638350
 H   -0.4879146442    2.2044597209    0.5103217766
 H   -0.0121947712    0.2219537084    2.1457149665
 H    0.4241290703   -1.3582648663    1.5054069141
 H    1.5946489614   -0.0225645667    1.4374941815
 H   -1.9507862678    0.1181437733   -1.1033861957
 H    1.8503520488   -0.2333055561   -1.0472817238
 H    1.5744805374   -2.6762547860   -1.2255573716
 H   -0.1382383133   -2.5513652405   -0.7604273480
 H    1.0134451826   -1.9648029666   -3.5490830274
 H   -0.7192000920   -2.0308625986   -3.1266647100