15

 C   -0.2796690158    1.4936743583    0.0743833172
 C    0.1070083543    0.0382165706   -0.0204262499
 O    1.3577341410   -0.1610110878   -0.7782931219
 C    2.0008590915   -0.7271005327    0.2805318500
 O    3.1253524116   -1.0987095145    0.3583546226
 C    0.7632258507   -0.6275830730    1.2272323832
 O    0.9252671388    0.2798328825    2.2916639008
 C    0.2130086302   -1.9073988536    1.6407664474
 C   -0.2149156256   -2.9731562822    1.9950741077
 H    0.5145792763    2.0805421347    0.5380930581
 H   -0.4822155620    1.8874786917   -0.9255099896
 H   -1.1854297144    1.5977956655    0.6789556208
 H   -0.6770307348   -0.5753346937   -0.4681806187
 H    1.4529314680   -0.1548860112    2.9716479770
 H   -0.5946890099   -3.9154659344    2.3066522254