18

 C   -0.2710566223    1.5345906781   -0.0842291549
 N   -0.1926521352    0.0940258674    0.0296456716
 C   -1.3607150321   -0.6406864570    0.5667004317
 C   -0.3873326238   -1.5048531148    1.3643812010
 C   -0.5383839337   -2.4199643722    2.4874827190
 O   -0.2349513703   -2.8944517128    1.1632003030
 C    0.7243650486   -0.4874729105    1.0286728157
 C    2.0047456637   -1.0821090558    0.4758745076
 O    2.9894308217   -1.2770098234    1.1393201342
 H    0.6920432177    1.9334956201   -0.4180362425
 H   -1.0222204903    1.8042227106   -0.8333753044
 H   -0.5391449176    2.0333438600    0.8660728167
 H   -2.0147800883   -0.0296760540    1.2091617527
 H   -1.9673497681   -1.1551324416   -0.1858111497
 H    0.2676895255   -2.5201355165    3.2125556625
 H   -1.5338927584   -2.6688716801    2.8523045933
 H    0.9619421708    0.1640931128    1.8839239496
 H    1.9437825520   -1.3486898704   -0.6015577673