15

 O    0.3229395573    1.0214933103    0.7902131561
 C    0.0529453764    0.0261267508   -0.1859682433
 C   -1.3746335374   -0.4439861631   -0.1575917648
 C   -2.1968946264   -0.4441882809    0.9567553414
 N   -3.4076734537   -0.9545103787    0.5995913540
 C   -3.3907991176   -1.2891672880   -0.7388676657
 C   -2.1323776860   -0.9756208618   -1.2284583877
 C   -4.5203043009   -1.8354824668   -1.3834202420
 N   -5.4561361429   -2.2840180179   -1.9010832149
 H   -0.2529792543    1.7706095863    0.6029227136
 H    0.3106155749    0.3683533956   -1.2001671680
 H    0.7380447820   -0.7967522825    0.0498659593
 H   -1.9968638139   -0.1175924472    1.9640214826
 H   -4.2059303485   -1.0590366318    1.2028348180
 H   -1.8091351089   -1.1191513842   -2.2479413686