15

 O    0.1552094145   -0.1876082991   -0.2044230041
 C    0.0580442907    0.9885696850    0.0270084453
 C    1.2154543712    1.9561049145    0.0033466127
 C    0.9223126415    3.2252445272   -0.8662401907
 C    0.7514012897    4.0380198365    0.4231018113
 O    0.2946470999    5.1059029021    0.6829086295
 C    1.3124917908    2.8713193031    1.2942390696
 C    0.6264594880    2.5036153126    2.5104671692
 C    0.0281018326    2.2018833053    3.5082893989
 H   -0.9269797354    1.4520528500    0.2629744816
 H    2.1289847101    1.4134989332   -0.2354649319
 H    1.7807058848    3.5495589597   -1.4611998475
 H    0.0426322825    3.1960706249   -1.5153205963
 H    2.3708944284    3.0822486176    1.4948838192
 H   -0.4943592994    1.9357480373    4.3940259231