17

 O   -0.8476674720    0.7881553096    0.8422236366
 C   -0.2999484601    1.2394061786   -0.1278367208
 C    1.1677312765    1.6442513183   -0.1633912449
 N    1.3511126999    2.7309825819   -1.1125931294
 C    1.4470461895    4.0963449238   -0.6058949329
 C    2.6281038478    3.4239030847   -1.2183478171
 C    3.8328625624    3.0680755412   -0.3536874139
 C    4.5269001080    1.8704188566   -0.8315459893
 N    5.0595422782    0.9212407693   -1.2192423750
 H   -0.8256581943    1.3859369541   -1.0965226315
 H    1.4895234602    1.8528318155    0.8675927559
 H    1.7322501744    0.7704504162   -0.5192404056
 H    0.8927192397    4.8534929580   -1.1530438937
 H    1.4640547167    4.2371024112    0.4750256864
 H    2.8980934184    3.6717187034   -2.2428898095
 H    4.5393433838    3.9061678189   -0.3629557410
 H    3.5449188909    2.9135335686    0.6902557455