21

 O   -0.2397550494    1.4884288918    0.2682508449
 C    0.0044476819    0.0899958042    0.0914173722
 C   -1.3659556885   -0.5534332348   -0.0904747478
 O   -2.1877962713   -0.2168599155    1.0262422554
 C   -2.0766671037   -0.1969655401   -1.4107757062
 C   -3.2173328318   -1.2338767341   -1.5075811734
 C   -2.7386389597   -2.4589598399   -0.6729898672
 C   -1.3416739043   -2.0896229899   -0.1337959409
 O   -0.2953593484   -2.4589382129   -1.0312993579
 H    0.5697878957    1.9030421555    0.5777249293
 H    0.6417229044   -0.1008699830   -0.7788978874
 H    0.4889380874   -0.3365317983    0.9813452887
 H   -2.0343757628    0.7249584329    1.1753769017
 H   -2.4256444810    0.8380794090   -1.4174118993
 H   -1.3717810320   -0.3230339664   -2.2383379259
 H   -4.1365271970   -0.8290070353   -1.0781500723
 H   -3.4370348833   -1.4981032785   -2.5450794264
 H   -3.4180891703   -2.6508776340    0.1611288274
 H   -2.6851313766   -3.3792516734   -1.2647540926
 H   -1.1568759702   -2.4987023883    0.8683393279
 H   -0.3516629490   -3.4083193490   -1.1739153002