18

 C   -0.5572580143    0.4560018804   -0.0723398936
 O    0.1343116019    0.2291434737   -1.2866274243
 C    1.3139437806   -0.5366585930   -1.1299404335
 C    1.0232301930   -2.0011908633   -0.9638444092
 N    0.9199204102   -2.6356160858    0.1403286340
 C    0.5361979902   -3.9843746113   -0.1983028500
 C   -0.7920267617   -4.1371248689   -0.9153473327
 C    0.4668070915   -4.0114457157   -1.7186268175
 O    0.8254598778   -2.7003666651   -2.1207275758
 H   -0.8615125921   -0.4797758129    0.4138307854
 H    0.0607537321    1.0266120821    0.6377356720
 H   -1.4457519885    1.0405358074   -0.3217315384
 H    1.9003213699   -0.3884654011   -2.0408210880
 H    1.8969979163   -0.2032222295   -0.2612123227
 H    0.9168601958   -4.7784519331    0.4319841822
 H   -1.2442926580   -5.1225210359   -0.8946150970
 H   -1.4875542886   -3.3046276386   -0.8950028398
 H    0.8286673039   -4.7777118693   -2.3912205812