18

 C   -0.1563914481    1.4492854989    0.1354925055
 N   -0.0744309079    0.0012637163    0.0618997742
 C    0.6790703939   -0.6184048977    0.8590830857
 O    1.4480109112   -0.0699225786    1.8441067833
 C    2.3446645720   -1.0559177790    2.4291132215
 C    2.4984802236   -0.7424081869    3.9045298012
 C    1.7298786401   -2.4194791792    2.0921907267
 C    0.8455063704   -2.1249446042    0.8859451253
 O    0.3651941165   -2.9086821806    0.1152607390
 H    0.6776744039    1.9196603332    0.6686667338
 H   -0.2134802967    1.8500190755   -0.8811555424
 H   -1.0896549287    1.7296912812    0.6400942345
 H    3.3116450753   -0.9463860478    1.9212433730
 H    1.5370844640   -0.8338393115    4.4191750612
 H    3.2081177792   -1.4367930857    4.3648766485
 H    2.8710070837    0.2759033828    4.0441696695
 H    2.4601270890   -3.2014890569    1.8790064662
 H    1.0849797185   -2.7715960499    2.9072995933