16

 C    0.0592764857    1.4497030620   -0.3181755305
 C   -0.1067566673   -0.0443981486    0.0466351384
 N    0.6339428158   -0.4117561450    1.2343659112
 C    1.9791023869   -0.5892988332    1.2218552892
 O    2.6875478542   -0.4133815588    0.2517059955
 C   -1.5664135713   -0.3782271224    0.2787218641
 O   -2.0243021049   -0.6769930693    1.3591858423
 C   -2.5202748256   -0.3479411358   -0.9226585737
 O   -2.1661959379   -0.1483664918   -2.0535049300
 H    1.1235955601    1.6422475583   -0.4630609555
 H   -0.4719236924    1.6834359585   -1.2427516327
 H   -0.3122176303    2.0881893750    0.4887313400
 H    0.2529814008   -0.6330457646   -0.8062436867
 H    0.0923481820   -0.6254635269    2.0595692856
 H    2.3659041079   -0.9130448481    2.2076845867
 H   -3.5704381839   -0.5589413194   -0.6328586238