15

 N    0.0546687089    1.4155139811    0.0205147560
 C    0.0108732626    0.1490420412    0.0376261513
 O   -1.1218340117   -0.5593704579   -0.0237219823
 C   -2.3383287620    0.2043878604   -0.1229861236
 C   -3.4866819285   -0.7947820140   -0.1898269676
 C   -4.8319182441   -0.1088339216   -0.0538546345
 O   -5.7460183668   -0.2418476901   -0.8228089997
 C    1.1684184660   -0.7244402657    0.1276828226
 N    2.1302362298   -1.3605516834    0.2024899278
 H    1.0098860769    1.7606852077    0.0762761159
 H   -2.4159210741    0.8637677737    0.7486186566
 H   -2.2899115963    0.8393229973   -1.0127743807
 H   -3.4679959127   -1.3700136796   -1.1179756787
 H   -3.3855104281   -1.4918781083    0.6536715951
 H   -4.9280849598    0.5414551093    0.8468510918