18

 C    0.0742795501    1.5613056951   -0.2390353450
 N    1.4358063937    1.5804786689    0.4019995990
 C    1.4209067743    0.0974242708    0.5399713412
 C    0.7971945048   -0.3859292325    1.8697873082
 O   -0.5435491411   -0.3632193408    1.2872263788
 C    0.0028892222    0.0276276070    0.0041422629
 C    0.0255677802   -0.9753092923   -1.1018581570
 C    1.2751264767   -1.4279551927   -1.2722976110
 C    2.3005329227   -0.8187847572   -0.3179716706
 H   -0.6655557105    2.1522775188    0.3081898786
 H    0.0599227095    1.8471258217   -1.2967492836
 H    2.1653611805    1.9156467234   -0.2171102169
 H    1.0752095786   -1.3996557363    2.1843634552
 H    0.8906467525    0.3116241460    2.7076486597
 H   -0.8361692007   -1.2843760925   -1.6826578301
 H    1.5645067431   -2.1605298237   -2.0203485237
 H    3.0759375714   -0.2618588390   -0.8609572453
 H    2.8263325320   -1.5895201448    0.2599121297