19

 C    0.2191418764    1.5235050056   -0.2345198164
 C   -0.1295887709    0.0635263379    0.1037716335
 C    0.6391722304   -0.4840338086    1.2700212421
 C    0.1265580003   -0.7928225328    2.5095279102
 N   -1.1648525140   -0.7377115307    3.0857234219
 N    1.1771728580   -1.2526630614    3.2959442753
 C    2.3265649460   -1.2353917755    2.5692809075
 O    3.4671904739   -1.6590361435    3.1759263872
 C    2.0482344564   -0.7663485963    1.3087849830
 H    1.2827600767    1.6281173020   -0.4710533618
 H   -0.3551904171    1.8788502259   -1.0967874471
 H    0.0063705784    2.1825829686    0.6134167568
 H   -1.2026911866   -0.0100504267    0.3189770239
 H    0.0455419353   -0.5571913896   -0.7850763443
 H   -1.5557716687    0.1976853255    3.0646540306
 H   -1.8225681844   -1.3529560037    2.6182966902
 H    1.0864146759   -1.5508293957    4.2517550054
 H    4.1865979446   -1.5833144484    2.5421712322
 H    2.7574906394   -0.6423589627    0.5037163098