21

 C   -0.9880146452    1.0778198276   -0.0114930086
 C   -0.0067407233   -0.0838188178   -0.0254035253
 C    1.2594940611    0.0268106629   -0.9243516319
 C    2.1345701323   -0.5361041858    0.2392758427
 O    2.4683881226   -1.9018224429    0.1051861863
 C    3.2876230811    0.3681136834    0.7279399256
 C    2.6080670362    1.2590740392    1.7415770428
 C    1.3515322731    0.8874288793    1.9980689838
 C    0.9296145097   -0.3204920111    1.2084564694
 H   -0.4818244458    2.0201626934    0.2240739436
 H   -1.4719300820    1.1931674031   -0.9879058669
 H   -1.7776323239    0.9269160385    0.7335871671
 H   -0.5380186791   -1.0145558935   -0.2478984326
 H    1.2615273306   -0.5723079720   -1.8391020594
 H    1.5095690869    1.0617961071   -1.1768593374
 H    3.0775099728   -1.9869555978   -0.6363745418
 H    4.0790370029   -0.2376302826    1.1903701586
 H    3.7525785560    0.9336304428   -0.0907040956
 H    3.1175218737    2.0913518060    2.2162986888
 H    0.6966750298    1.3812444469    2.7084847227
 H    0.6555814405   -1.1694342663    1.8429157482