15

 O   -0.0636982861    0.1251016439   -0.6829597018
 C    0.0602254624    1.0289266020    0.1027937736
 C    1.2449228515    1.9151511111    0.1896768463
 C    1.6077846695    2.9599120284    1.2548273280
 C    2.2135591795    3.8658210367    0.1090338527
 C    3.6014448870    4.2703947862    0.1917653415
 C    4.7538033186    4.6043417819    0.2627505317
 C    1.8549854759    2.7422292289   -0.8936379021
 O    2.4557778808    1.5419051150   -0.4711734398
 H   -0.7394897602    1.2892171296    0.8323121071
 H    0.7427914106    3.4249161978    1.7320580944
 H    2.3144016618    2.6133041843    2.0094591481
 H    1.5677639925    4.7340772998   -0.0561823622
 H    5.7740104280    4.8930289756    0.3219703666
 H    1.5800019482    2.8319239689   -1.9386411742