19

 C   -0.5879120662    1.1876418272    0.1027097676
 C    0.1639388868   -0.1342241718    0.0982872324
 C    1.0199653258   -0.5751255061   -1.1438392129
 C    2.1744123661   -1.0157636951   -0.1920806737
 C    1.4575048107   -0.2416526167    0.9207277891
 O    1.8054315954    0.2284831307    1.9654347225
 C    0.4090380064   -1.6153803035   -2.0438956932
 C    1.1757609701   -2.7199115837   -2.6319130954
 O    0.3077463479   -2.9409839181   -1.5153438237
 H    0.0661492414    2.0135570773   -0.1957173556
 H   -1.4415679510    1.1649014621   -0.5823075783
 H   -0.9639426485    1.4088215475    1.1059351028
 H   -0.4965733072   -0.9639689317    0.3844094827
 H    1.3036275988    0.2998013504   -1.7387779551
 H    2.1362383865   -2.0938441268   -0.0012826627
 H    3.1990292506   -0.7179326196   -0.4231784730
 H   -0.4869372203   -1.2894668998   -2.5764324648
 H    0.8510443057   -3.1676843554   -3.5697168382
 H    2.2396585413   -2.8089525370   -2.4173408104