21

 C    0.2807116172    0.9856099023   -0.3171998295
 O   -0.3803377511   -0.0924170424    0.3259511555
 C    0.4289326989   -0.7126165185    1.2940336678
 C    0.0512643994   -2.0345438182    1.8615542441
 C   -0.5969280956   -2.9132912436    0.7907185809
 C    0.6892402791   -2.7592545566   -0.0864575188
 O    0.5684773082   -2.2510514520   -1.3930564644
 C    1.3387053682   -1.8683155975    0.9916511178
 C    2.7962418980   -1.9038170231    1.3555391080
 H    1.1601081127    0.6406913472   -0.8786494197
 H   -0.4357050492    1.4365906707   -1.0079647758
 H    0.6016165737    1.7467379795    0.4084061063
 H    0.8361532718   -0.0039632197    2.0184610393
 H   -0.0324334974   -2.1859388610    2.9316974990
 H   -0.7659876027   -3.9423397059    1.1148444874
 H   -1.5179543583   -2.5237766460    0.3487231396
 H    1.2237662320   -3.7090522158   -0.1783394434
 H   -0.0010003801   -1.4760266398   -1.3166958192
 H    3.4139124000   -1.5278490036    0.5310074201
 H    3.0077422099   -1.2878544519    2.2361672575
 H    3.1291566053   -2.9246127340    1.5768591475