18

 C    0.0229351164    1.3209560048   -0.0424153213
 C    1.4048175979    0.7209402048   -0.0410975025
 C    1.7648394940    0.2105450555    1.3642856739
 C    0.4887110783   -0.7074601888    1.3543672751
 C    0.1725042521   -0.1783810863   -0.0470271141
 N   -0.1950870052   -0.9614199435   -1.1707496883
 C    0.4993280593   -0.7412697529   -2.2137311458
 O    1.5225538853    0.1261482201   -2.4104632931
 C    2.2462551070    0.6918641877   -1.2780373745
 H   -0.3462191418    1.8314788779    0.8440042139
 H   -0.3093810473    1.7493441275   -0.9820599766
 H    2.6896992356   -0.3712626632    1.3804615091
 H    1.8208857564    0.9722598528    2.1482090848
 H    0.7457106789   -1.7683351851    1.3499919718
 H   -0.2675057839   -0.5297907503    2.1253088405
 H    0.2880260539   -1.2701491672   -3.1409626917
 H    2.5821026380    1.6707838179   -1.6353438083
 H    3.1323199252    0.0668251984   -1.1122935530