21

 C    0.0987537885    1.5824519534   -0.0434862694
 C   -0.0031708177    0.0567851357    0.0623215735
 O    0.6256732733   -0.2783202326    1.3077498569
 C   -1.4628891975   -0.4346368184    0.0508551861
 C   -2.3385212979    0.1156506989    1.1725840475
 O   -3.5559990961   -0.6173779478    1.1450778381
 C    0.7655530028   -0.6174544495   -1.1017810207
 C    2.2351513791   -0.2541356186   -1.1483638454
 O    2.8265403203    0.0556520906   -2.1519291550
 H    1.1455036472    1.8987327340   -0.0617562822
 H   -0.3821017272    1.9390825748   -0.9587926658
 H   -0.3770489849    2.0629298920    0.8141600550
 H    0.5080126971   -1.2236800679    1.4554648540
 H   -1.9240364487   -0.2043514977   -0.9161634741
 H   -1.4664655389   -1.5299628759    0.1382033647
 H   -1.8173577825   -0.0000273378    2.1338074459
 H   -2.5233855263    1.1899666275    1.0241833371
 H   -4.1278240685   -0.2732125196    1.8373316689
 H    0.7049932332   -1.7084596637   -0.9671642693
 H    0.3159798203   -0.3820310238   -2.0708104863
 H    2.7512589644   -0.3050638734   -0.1661428593