16

 N    0.1197407665   -1.0815070437   -0.0235112101
 C    0.0371359151    0.0734061250   -0.0254871835
 C   -0.0616083929    1.4997908116   -0.0136622224
 C   -1.2243887145    2.1962427019    0.7124124727
 C   -1.3754753282    3.5501448957   -0.0336890040
 C   -0.0415313831    3.6942738854   -0.7513881720
 O    1.0239330985    3.6453443491    0.2668494651
 C    1.2623157499    2.2946594357   -0.0804828103
 C    0.3582236120    2.2910658902   -1.2576467562
 H   -2.1309643064    1.5900093763    0.6589402254
 H   -0.9828029137    2.3454633806    1.7673637624
 H   -2.1898993023    3.5151799280   -0.7658822218
 H   -1.5601346744    4.3862207170    0.6454994981
 H    0.0840570135    4.5495904941   -1.4155805979
 H    2.2318082235    1.8562324516    0.1210913912
 H    0.4432213665    1.9050491816   -2.2627762266