19

 C   -1.1091726656    0.8742915330    0.1880258346
 O    0.1567729057    0.2879582937   -0.0413002984
 C    0.7041218169   -0.4401100543    1.0436559611
 C    0.1111359763   -1.8596471075    1.1605822609
 C   -1.2873536310   -1.9186125906    1.7349049904
 O   -2.1965139812   -2.5591100331    1.2745712021
 C    2.2188656567   -0.4938479483    0.7936603293
 C    2.8629017528    0.8779875616    0.8080664631
 O    3.8823793420    1.1365823330    1.3953732759
 H   -1.1029504095    1.5099227052    1.0860948762
 H   -1.3315521540    1.4956948394   -0.6823874781
 H   -1.9057815060    0.1258912909    0.2914779346
 H    0.5122141836    0.1023176205    1.9867318843
 H    0.1294488480   -2.3640070453    0.1904817774
 H    0.7437645903   -2.4295061246    1.8568756946
 H   -1.4201633085   -1.3260821625    2.6718716229
 H    2.7261555487   -1.1234631168    1.5287928819
 H    2.3753660591   -0.9295005594   -0.2029484323
 H    2.3187821756    1.6483326151    0.2223444995