21

 O   -0.6838234950    0.7750807604    0.7913538264
 C    0.0338668477    0.9669336591   -0.1554642966
 C    1.2976818668    1.7958896366   -0.1364944097
 C    1.2552044131    2.9297342587   -1.1759463958
 C    2.5689995753    3.7150404695   -1.2537200163
 C    2.5270942823    4.8524420998   -2.2800601332
 C    3.8443527128    5.6451149272   -2.3473018824
 C    3.8184254582    6.6884353443   -3.4407066614
 O    4.0068326098    7.8661596501   -3.2800212366
 H   -0.2074793521    0.5284784267   -1.1536013940
 H    1.4476128933    2.1820547141    0.8760336867
 H    2.1361173611    1.1239825696   -0.3730971562
 H    1.0212181929    2.5104050328   -2.1639277189
 H    0.4329600706    3.6135688746   -0.9301385770
 H    2.8072294265    4.1258399615   -0.2639539872
 H    3.3893084121    3.0285648054   -1.5042075706
 H    2.2978805451    4.4408374881   -3.2723947898
 H    1.7059837727    5.5378442593   -2.0348459553
 H    4.0666431182    6.1396186212   -1.3971150443
 H    4.6685627135    4.9520166391   -2.5724168078
 H    3.5953970951    6.2785981919   -4.4551369001