21

 C    0.1740058221    1.6451371197    0.0047753016
 C    0.0391040796    0.1168448964   -0.0282152316
 C    0.7273500955   -0.5483811513   -1.2052242863
 C    1.5076483591   -1.5688419356   -0.8520484559
 C    1.5241757797   -1.8042776724    0.6387164689
 C    1.1809782371   -3.2242571433    1.0656025479
 C    2.7086001499   -1.1074192815    1.3576934524
 O    1.9045974636    0.0543245857    1.6423401087
 C    0.6990641734   -0.5941969728    1.1717210078
 H    1.2235856133    1.9340285332    0.0899171364
 H   -0.2405629384    2.0880441373   -0.9064607370
 H   -0.3644096950    2.0691098669    0.8584649752
 H   -1.0333264127   -0.1306445362   -0.0449933291
 H    0.5774035708   -0.2057292539   -2.2245513677
 H    2.0843829922   -2.1839067272   -1.5361477465
 H    1.9302126244   -3.9356863224    0.6991183818
 H    1.1436221678   -3.3126429310    2.1563780071
 H    0.2100057655   -3.5329619984    0.6644074987
 H    3.0335238976   -1.6107312144    2.2795055297
 H    3.5872535665   -0.8638922686    0.7489887452
 H    0.0074857281   -0.7819231002    2.0021090927