20

 C   -0.2089530509    1.5321967913   -0.0645931291
 C    0.0437235183    0.0362647521   -0.0171488138
 C    0.6864239800   -0.7029895784   -1.2508019971
 C    1.7559053691   -1.1745344831   -0.2744229366
 C    2.4254112545   -0.0265654812    0.3583818780
 N    1.1256269709   -0.4579170577    0.9097238140
 C   -0.2058723245   -1.7777320885   -1.8327128277
 C   -1.2540258452   -1.3076392209   -2.8267232213
 O   -0.0995297904   -2.9408260863   -1.5140734827
 H    0.6677100460    2.0943596255   -0.3987477614
 H   -1.0315521816    1.7604930493   -0.7510242547
 H   -0.4882398247    1.8956219854    0.9297267124
 H   -0.8734586713   -0.4772352269    0.2875120008
 H    1.0353385420   -0.0390894786   -2.0507073148
 H    2.0960464819   -2.2000091824   -0.1995709438
 H    3.2442789937   -0.2328848827    1.0405399640
 H    2.5134719976    0.9182304524   -0.1726561956
 H   -0.7639435569   -0.9598662479   -3.7437713944
 H   -1.9311299054   -2.1275324533   -3.0686376754
 H   -1.8210903331   -0.4585183081   -2.4293476708