18

 C    0.1836592602    1.3460020065   -0.0381080407
 O    0.2901897644   -0.0581225841   -0.0208407920
 C    0.5295732274   -0.5705559286    1.2727386158
 C    0.6058051118   -2.0714744983    1.1626168012
 C    1.8485961908   -2.8295225273    0.8632553740
 O    3.0051157991   -2.1636205036    1.4344346361
 C    2.4953326168   -2.3825852777    2.7177474490
 N    3.0148374857   -2.1804403230    3.8388992500
 C    1.2171778906   -2.9860424310    2.2328572240
 H    1.1082247181    1.8303666943    0.3132358326
 H   -0.0016111671    1.6464901843   -1.0720441402
 H   -0.6487693155    1.7008404061    0.5904110737
 H    1.4634953997   -0.1645105719    1.6875707415
 H   -0.2866144852   -0.2878879678    1.9588050199
 H   -0.2793414846   -2.5205260780    0.7164442580
 H    2.0300313344   -3.5311065498    0.0611706674
 H    3.9497578626   -1.7795743731    3.7466740724
 H    0.6781130705   -3.7994871571    2.6951297473