23

 C   -0.1255882224    1.6313548513   -0.0939759349
 C   -0.1149005672    0.0992933684   -0.1128585465
 C    0.7629657632   -0.5070094826   -1.2148032287
 O    0.3319690508   -0.1053760028   -2.5032404849
 C    2.2995815562   -0.4081449237   -0.9396731894
 C    2.2733160640   -1.8691267903   -0.4525997219
 C    0.8813307932   -2.0490250725   -1.1261953958
 O    3.3479598059   -2.6374298476   -0.9246232325
 C    3.2826455162   -3.9872080804   -0.5247621398
 H    0.8828248366    2.0430657304    0.0245413520
 H   -0.5533491270    2.0410569587   -1.0158982038
 H   -0.7344152212    2.0078165030    0.7330647374
 H    0.2277463031   -0.2763754126    0.8594510935
 H   -1.1369840637   -0.2738278442   -0.2522663068
 H    0.4128631314    0.8523278502   -2.5644499614
 H    2.8480032033   -0.3447823910   -1.8822627367
 H    2.6620526085    0.3551035671   -0.2468945834
 H    2.2061088372   -1.9470068359    0.6440257095
 H    0.0978446106   -2.5829493755   -0.5828886514
 H    0.9938836836   -2.4689887655   -2.1285993608
 H    3.2866621634   -4.0877858463    0.5725550402
 H    2.3827685695   -4.4886953567   -0.9116183712
 H    4.1652186947   -4.4898391013   -0.9277629227