17

 C   -0.1672340703    1.5939669064   -0.1258332043
 C    0.0293606077    0.0948179200   -0.0883421108
 O   -1.0922793926   -0.5455654569    0.4616251378
 C    0.7083267998   -0.7134963563   -1.1515461216
 C    1.9424093681   -0.0089456791   -1.7159774549
 C    2.5548820858   -0.0654010079   -0.2897236263
 O    3.6887666467   -0.0355064725    0.1104334554
 C    1.3153026488   -0.5970092987    0.3332937778
 O    1.2483604050   -1.3897611803    1.4506704291
 H    0.6831019290    2.1173180698   -0.5675212685
 H   -1.0631284198    1.8307773200   -0.7084320230
 H   -0.3142976604    1.9717767192    0.8898522042
 H   -0.7911463971   -1.0930675802    1.1980341085
 H    0.2196580550   -1.5768949488   -1.5829776441
 H    2.5314533342   -0.6289879646   -2.3974158157
 H    1.7980444542    0.9762227188   -2.1651390496
 H    2.0116420057   -1.9794569789    1.4624501561