27

 C    2.2345851234    2.3100271420   -0.6568762641
 C    1.0759754313    1.3309934505   -0.4253670184
 C    1.1335641708    0.1381842617   -1.3609824330
 C    1.8978059447   -1.1383441093   -1.0482966577
 C    2.6629787793   -1.3589751572    0.2406349171
 C    0.3808514160   -1.1637124506   -1.1440282053
 C   -0.4657367933   -1.3514460673    0.1039741748
 C   -0.2076036664   -1.8160512655   -2.3920972256
 C   -0.3026264459   -3.3459882391   -2.3284153414
 H    3.2010288264    1.8268296049   -0.4796845093
 H    2.2367580183    2.6819511680   -1.6875338524
 H    2.1630035728    3.1757606002    0.0093421380
 H    1.0820130584    1.0128198985    0.6217897873
 H    0.1232723998    1.8576453115   -0.5718570338
 H    1.1880656568    0.4471930251   -2.4045986638
 H    2.4023406883   -1.5791311455   -1.9066582572
 H    2.1831644735   -0.8969588238    1.1064082770
 H    2.7621568656   -2.4288058274    0.4573416288
 H    3.6750848423   -0.9444355916    0.1692232988
 H   -0.0711719114   -0.8197930750    0.9713342109
 H   -1.4850874088   -0.9842849995   -0.0666836586
 H   -0.5412213361   -2.4087892833    0.3801408016
 H   -1.2062771805   -1.3970976936   -2.5808123225
 H    0.4060798995   -1.5360028882   -3.2571658641
 H   -0.6744665471   -3.7531624050   -3.2740580812
 H    0.6784393471   -3.7930765810   -2.1340730064
 H   -0.9825008846   -3.6805179395   -1.5388618992