19

 C    0.8023222489    1.5320032414   -0.3047300963
 N    0.1633284178    0.2404748905   -0.0610812905
 C    1.0299025502   -0.9070659845    0.1903917550
 C    0.1936655075   -0.3262951623    1.2817506460
 C    0.7861867077    0.3865675685    2.4867949602
 C    0.8054833683   -0.4160182884    3.8099558105
 O    2.2547130404   -0.2508612189    3.8988849880
 C    2.2910705557    0.4382300505    2.7092667111
 N    3.2637247983    0.9228653781    2.0819537051
 H    1.7449317926    1.6848661446    0.2388765638
 H    1.0050576188    1.6149456175   -1.3769943160
 H    0.1025746760    2.3315128584   -0.0377305967
 H    0.7394340862   -1.8382175359   -0.2899090477
 H    2.1014965007   -0.7290813823    0.2478215724
 H   -0.7343751390   -0.8371660169    1.5417167051
 H    0.3303408066    1.3750401244    2.6056883187
 H    0.3063358865    0.0361861511    4.6695486907
 H    0.5402491818   -1.4728243309    3.7229669378
 H    4.1460916750    0.7550309651    2.5680083829