24

 C    0.3707772841    1.5870809045    0.4420912343
 C    0.1044113365    0.0924313016    0.1697942168
 C    0.7749318372   -0.7591131265    1.2601387233
 C   -1.4133639613   -0.1870273995    0.0871976478
 C   -2.2501347009    0.1703667406    1.3110947582
 O   -3.5934219209   -0.1882947886    1.0101697093
 N    0.6383913296   -0.4194438540   -1.1144427736
 C    0.6987913561    0.4048120167   -2.3096414291
 C    1.9456571731   -0.0318509120   -1.6148476957
 H    1.4363483603    1.8285574639    0.3840619613
 H   -0.1685329130    2.2341202113   -0.2563853900
 H    0.0427109090    1.8532318248    1.4507439660
 H    0.4095548879   -0.4995248528    2.2575900767
 H    0.5857536580   -1.8211513523    1.0818338214
 H    1.8587572947   -0.6031376301    1.2518794027
 H   -1.8232897177    0.3598851693   -0.7705248201
 H   -1.5535855430   -1.2510791595   -0.1280811905
 H   -1.8902812020   -0.3734811538    2.1982822016
 H   -2.1759125618    1.2458364602    1.5342191706
 H   -4.1374232910    0.0250373411    1.7737760824
 H    0.3754453436   -0.0749599063   -3.2299990792
 H    0.4511605379    1.4621180306   -2.2436255903
 H    2.5131038927    0.7406405610   -1.0992772997
 H    2.5532918109   -0.8401098002   -2.0142891542