15

 C    0.0036383413    1.5476678852    0.0765840568
 C   -0.0145272187    0.0048196304   -0.0203457049
 C    0.7356369619   -0.5670725259    1.1897813961
 O    1.8424989908   -1.0262017583    1.1276535269
 C   -1.4030301866   -0.5391449571   -0.0702376790
 C   -2.0375613341   -1.4014573411   -0.9128356326
 N   -3.3209404786   -1.5488676178   -0.4453363682
 N   -3.5071108831   -0.8658017496    0.5880758161
 O   -2.2658890318   -0.1771510126    0.8797531605
 H    1.0348356154    1.9091582452    0.0745140949
 H   -0.5235554175    1.9868247583   -0.7741384336
 H   -0.4873893615    1.8870306582    0.9924355785
 H    0.5239086813   -0.3231573730   -0.9131169670
 H    0.1792075602   -0.4923105719    2.1495131018
 H   -1.6834740590   -1.9102913000   -1.7925770165