17

 C    0.0907850127    1.3431121427    0.0398187177
 C    1.4086520375    0.6266822893   -0.0242252150
 C    0.0907288937   -0.1572189370   -0.0163304273
 C    0.4039588476   -0.6837574949   -1.4421905896
 C    0.6962772752    0.2990535381   -2.5505427118
 C    1.7091987539    0.0925960163   -1.4500081210
 O    2.7193637454   -0.8495401164   -1.6525082086
 C    2.1421180536   -2.1196608328   -1.3489880103
 O    0.7478640913   -2.0221828629   -1.6407017945
 H   -0.1419521963    1.7442864384    1.0218824088
 H   -0.2797339369    1.9578535086   -0.7732360431
 H    2.1766054628    0.7394038349    0.7303261364
 H   -0.3681838544   -0.7742384965    0.7455700145
 H    0.9727375757   -0.1751488715   -3.4847780068
 H    0.1445547152    1.2255054375   -2.6626482311
 H    2.5909773451   -2.8807866300   -1.9929251095
 H    2.2977564580   -2.3706491336   -0.2884046990