23

 C    0.0367112309    1.5473202307   -0.0472368605
 C    0.0101676045    0.0121420963   -0.0195725723
 C    0.6237392467   -0.5613660716   -1.3038324381
 C    0.7261890146   -0.5715766022    1.2118153168
 C    0.0750493597   -0.2352201808    2.5405860694
 O   -1.2720697942   -0.6914269111    2.5714676460
 C   -1.5477113274   -1.1570832836    3.8888789071
 C   -0.2120468707   -0.9710669360    4.6373184241
 O    0.7394017363   -0.9039367022    3.5891145714
 H    1.0672499502    1.9230478614   -0.0597227545
 H   -0.4636475108    1.9265461140   -0.9444535027
 H   -0.4692602665    1.9845768494    0.8185140808
 H   -1.0370284763   -0.3102116299    0.0319308149
 H    1.6780928238   -0.2738929947   -1.3990127561
 H    0.5755029786   -1.6552933040   -1.3160552214
 H    0.0987885265   -0.1911568536   -2.1906531065
 H    0.7560465487   -1.6646709161    1.1423134315
 H    1.7651559074   -0.2193609426    1.2462537958
 H    0.0859823549    0.8527989300    2.7394502792
 H   -2.3616789281   -0.5778855108    4.3412163074
 H   -1.8518415963   -2.2091174975    3.8384218582
 H   -0.2140596496   -0.0410531376    5.2261432073
 H    0.0481267771   -1.8045804573    5.2930839119