18

 C   -0.4999467934    1.3603304126    0.1306879428
 C    0.0348222245   -0.0631470675    0.0361256571
 C    1.2904231052   -0.2301982172   -0.8898320843
 C    2.1034158995   -0.5725803368    0.3377837332
 N    3.3265237193   -0.7252006628    0.6279537420
 O    4.1391396553   -0.5768813928   -0.5090844165
 C    0.8943001509   -0.5905162295    1.2500556086
 C    0.9826385392    0.1842183548    2.5489899418
 O    0.0593469204    0.7624048342    3.0621179607
 H    0.3010221642    2.0749741586    0.3501445181
 H   -0.9529019075    1.6514862738   -0.8230334275
 H   -1.2480637971    1.4539287530    0.9202676312
 H   -0.7771641690   -0.7480960768   -0.2175254768
 H    1.2266083821   -1.0500209596   -1.6118940474
 H    1.6131887669    0.6694962179   -1.4225481054
 H    5.0224757319   -0.7067265561   -0.1471978687
 H    0.6172222228   -1.6165823140    1.5317562350
 H    1.9904403946    0.1633493383    3.0186873763