20

 C    0.0633586433    2.1336596677   -0.0077877348
 C   -0.1065769896    0.6317122811    0.0591483750
 C    0.9922411955   -0.3117322009   -0.3639907566
 C    0.5829495330   -0.2436064212    1.0911617215
 C    1.4643864457    0.2393838565    2.2136016806
 C    0.7999881731    0.5527352409    3.5294865535
 N    1.6228688699   -0.6391990366    3.4098315043
 C    2.7457504165    0.9790635377    1.9859686253
 O    3.1195606536    1.4826885622    0.9555833129
 H    1.0991820216    2.4272463296    0.1691120059
 H   -0.2244788306    2.5040869106   -0.9978908924
 H   -0.5718269799    2.6392580114    0.7289631509
 H   -1.1156229465    0.2982822720   -0.1733869197
 H    0.7362528323   -1.2072036058   -0.9201982751
 H    1.9421399024    0.1339400118   -0.6282166803
 H   -0.0352801122   -1.0741440562    1.4284358799
 H    1.1971972483    1.3273855673    4.1807531819
 H   -0.2832906643    0.4626087849    3.5366116439
 H    1.0467848575   -1.4682470661    3.2889919964
 H    3.3602112004    1.0268561530    2.9112063369