15

 C    0.0163664268    1.3686261243   -0.0344424796
 N    0.0278677968   -0.0770958014    0.0352382567
 N    0.1190840214   -0.8025532608   -1.0946267625
 C    0.1113867013   -2.0808815952   -0.7034042070
 N    0.2678158985   -3.1045606124   -1.6284596498
 C    0.0029554383   -2.1904257097    0.6978203628
 C   -0.0508982929   -0.8748092663    1.1372949338
 C   -0.1613792035   -0.3546586215    2.4480046760
 N   -0.2530514742    0.0830135627    3.5169811167
 H    0.9436943310    1.7279780266   -0.4881841354
 H   -0.8293294952    1.7068163918   -0.6389180191
 H   -0.0742519475    1.7693265163    0.9756447211
 H    0.0865448217   -2.7972752203   -2.5747053268
 H   -0.2530178795   -3.9414739120   -1.4085564273
 H   -0.0217980730   -3.0770743221    1.3087033404