19

 N    0.0659879542   -1.1972796019   -0.1278828880
 C    0.0078101171   -0.0489238654   -0.0122296037
 C   -0.0365006437    1.4054422622    0.1318939508
 C    1.3591424186    2.0389593191    0.0812013659
 C    2.1240783593    2.0601586335   -1.2752596984
 C    2.5404740748    3.5346866390   -0.9976657110
 C    1.4752502018    3.5742624263    0.1016606835
 C    0.3749838400    4.5503118309    0.2750782893
 N    1.4875273517    4.4731078263    1.2453235653
 H   -0.6657609296    1.8178568832   -0.6648946580
 H   -0.5324074590    1.6405013486    1.0820205619
 H    1.9838228366    1.6005149271    0.8675552320
 H    2.9228652709    1.3277168845   -1.3963932392
 H    1.4410437423    1.9768850742   -2.1252181972
 H    3.5493006463    3.6191456511   -0.5843177230
 H    2.4352932795    4.2464452106   -1.8192562080
 H    0.3557394200    5.4559934533   -0.3258126676
 H   -0.6068629944    4.1909719973    0.5750646421
 H    1.1866202136    3.9877504802    2.0881264434