15

 N   -0.0064144658    1.2762869599    0.0711087476
 C   -0.0842825055   -0.0810338342    0.0094398182
 N   -1.1993328005   -0.7102703038    0.0717078364
 C   -1.1750948593   -2.1215530813   -0.1007494148
 C   -0.7500988699   -2.7085525520   -1.4399853939
 C    0.1477315100   -2.8268474306   -0.2459457298
 O    1.3365125179   -2.0607949367   -0.1634917884
 C    1.2864270957   -0.7238824929   -0.0911426153
 O    2.3007187812   -0.0743316548   -0.0449191728
 H    0.9035602649    1.6704233789    0.2456982459
 H   -0.8273186804    1.7779685775    0.3666237120
 H   -1.9701709267   -2.6328439139    0.4324028096
 H   -1.2355020303   -3.6097999091   -1.7977224471
 H   -0.4738066789   -1.9934434781   -2.2078667033
 H    0.3234546176   -3.7973351492    0.2020042954