16

 O    0.1251157592    1.3170298970    0.1071176255
 C    0.0919752883   -0.0448708362   -0.0315258535
 C    0.6250700430   -0.9461089897   -1.1622475897
 C    0.0664694686   -1.9201074753   -0.1040710211
 C    0.5338403637   -1.0237638080    1.0979181541
 C   -0.8592161209   -1.0403901728    1.7579542770
 C   -1.1625741365   -1.0046461606    0.2441784628
 C   -2.4209161880   -0.9647463559   -0.4427324802
 N   -3.4288538400   -0.9051004634   -1.0094732669
 H   -0.3111534639    1.7221810142   -0.6514847495
 H    0.0999825433   -0.9095341589   -2.1215186519
 H    1.7095035258   -0.9518279975   -1.3046526365
 H    0.0366748644   -3.0065287227   -0.1185670493
 H    1.5191000321   -1.0488881507    1.5606816994
 H   -1.1468677150   -1.9547397602    2.2831640824
 H   -1.1447062041   -0.1522429593    2.3257260074