20

 C   -0.0526869299    1.4898618892   -0.1520983570
 C    0.0693378639   -0.0116466438    0.0397549794
 O    1.1336199244   -0.5462025471    0.2494868072
 C   -1.2301964403   -0.8059034720   -0.0440297820
 C   -1.0108081559   -2.3247584535   -0.0826665299
 C   -2.3003426303   -3.0983339690   -0.0127065677
 C   -3.1129184690   -3.0994716550    1.2558308593
 N   -2.6398905380   -3.7296918503   -1.0717907390
 O   -3.8624302249   -4.4047110890   -0.9012423573
 H    0.9014411146    1.9714809458    0.0647813453
 H   -0.3402139106    1.7070383265   -1.1875863010
 H   -0.8380349050    1.9054021808    0.4884039203
 H   -1.8405060057   -0.5150017378    0.8235224747
 H   -1.8001997094   -0.4712860355   -0.9201532581
 H   -0.4840727764   -2.5954320823   -1.0005165562
 H   -0.3616154581   -2.6038808977    0.7549597723
 H   -4.0772401707   -2.6032555603    1.1014630294
 H   -3.3403539864   -4.1270321766    1.5547879929
 H   -2.5853361298   -2.5984426923    2.0702339081
 H   -3.9659437024   -4.8482474503   -1.7494459608