20

 C   -0.5013494680    1.2276562276    0.3016341927
 N   -0.1742005820   -0.1678950829    0.1057115550
 C    0.6746272270   -0.7414946463    0.8418875770
 C    1.4829857435   -0.1889076473    1.9937170011
 O    0.9940148806   -2.0581602967    0.6432715114
 C    0.3165903180   -2.7340099575   -0.3983844958
 C    0.6270484929   -4.2036252674   -0.4892026289
 C   -0.7083596269   -3.7351059815    0.0569946218
 O   -0.9873002689   -3.8520777975    1.4170414477
 H    0.0460824251    1.7310236907    1.1101779127
 H   -0.3131843963    1.7778045549   -0.6278565385
 H   -1.5737346981    1.3215487039    0.5096494735
 H    0.8269814441    0.1641300451    2.7948081604
 H    2.1429996512   -0.9594696366    2.3918396217
 H    2.0916117336    0.6597394527    1.6688130390
 H    0.1546738547   -2.1286748760   -1.2802378114
 H    0.6788018556   -4.6572853907   -1.4730666215
 H    1.3291655889   -4.5981497746    0.2379747272
 H   -1.6002300792   -3.8771230697   -0.5447401392
 H   -0.3501603857   -3.2960238403    1.8820177541