18

 C    0.1620151914    1.4815592855    0.1570886445
 C   -0.0403776271   -0.0236609462   -0.0343666677
 C    0.7846704437   -0.6160618297   -1.2224803571
 N    1.9679671692   -1.2572629252   -0.6196286806
 C    1.7223213725   -1.3087502967    0.6386934680
 N    0.5194315278   -0.8138938066    1.0725056698
 C    2.6701551566   -1.8734456580    1.6626873317
 N    3.7514556577   -2.4700324616    1.1140655612
 O    2.4426040456   -1.7684643628    2.8558345905
 H    1.2271599335    1.7225892972    0.2376121520
 H   -0.2510636788    2.0326127350   -0.6943802744
 H   -0.3405976114    1.8383195969    1.0624141007
 H   -1.1074774546   -0.2388255598   -0.1472053501
 H    0.2080531850   -1.3722495188   -1.7703461401
 H    1.0840472846    0.1513028615   -1.9438645676
 H    0.4554506925   -0.5128324863    2.0344868119
 H    3.8600813998   -2.4481661807    0.1122252061
 H    4.4776797219   -2.8277800338    1.7104350911