19

 C    0.0286182919    1.5404495366    0.0917571498
 N    0.0654199872    0.1000013443    0.1819984254
 C   -1.1897611065   -0.6655673426    0.3183938246
 C   -0.4692553908   -1.6228191155    1.2881462571
 C    0.5434433898   -2.6060441025    0.6299390699
 C    1.7227175635   -1.6302735664    0.9812145312
 C    2.6924508903   -1.3008126269   -0.0482503416
 N    3.4659883335   -1.0340955091   -0.8653488483
 C    0.6614092986   -0.5505666182    1.3568876208
 H    1.0489573845    1.9349803388    0.0633533254
 H   -0.4673833214    1.8365121135   -0.8383672059
 H   -0.5082363757    2.0202866157    0.9320141917
 H   -1.9914150718   -0.1001788009    0.8216723855
 H   -1.5831270725   -1.0788780390   -0.6183512311
 H   -1.0104564010   -1.9854790447    2.1592609267
 H    0.6276324377   -3.5876859182    1.0984882369
 H    0.3924395726   -2.7366800617   -0.4428046290
 H    2.2519120113   -1.9738932016    1.8757192361
 H    0.8659469989    0.0936411484    2.2183764449