24

 C   -0.8363238490    0.5385841080    3.3929265972
 C   -0.7936542887   -0.8121236370    2.6738871606
 C   -1.8154473325   -0.9190888115    1.5323526743
 C   -1.7349295466   -2.2403687068    0.7926781662
 C   -2.4924927673   -3.4855218267    1.2195455364
 C   -3.4139858594   -3.5282224061    2.4210747978
 C   -2.8572618716   -2.7804214057   -0.0727482562
 C   -4.1688989465   -2.0491742930   -0.2743749765
 H   -0.0957934283    0.5885438629    4.1974748614
 H   -0.6311481266    1.3626676565    2.7002165893
 H   -1.8217862579    0.7204800455    3.8366632383
 H    0.2137004005   -0.9822273989    2.2711972698
 H   -0.9707701718   -1.6209947036    3.3938366559
 H   -2.8199258773   -0.7542198984    1.9372680271
 H   -1.6438266430   -0.0978637808    0.8217924743
 H   -0.7351061328   -2.4324084822    0.4064705590
 H   -1.9436506790   -4.4151526269    1.0857504222
 H   -3.9523887813   -2.5907621766    2.5785487673
 H   -4.1649484865   -4.3185975740    2.3080458847
 H   -2.8518459310   -3.7390015353    3.3379190988
 H   -2.5249185223   -3.2905797428   -0.9743327320
 H   -4.5138289455   -1.5359238117    0.6261438553
 H   -4.0767488510   -1.2942008690   -1.0634451780
 H   -4.9599957147   -2.7448766957   -0.5764863134