12

 O   -0.0974193219    0.0401876015    0.0032963090
 C   -0.0451894870    1.2370853916    0.0088368304
 C    1.3399657599    1.9275291597   -0.0020762250
 O    2.3777808710    1.3279142625   -0.0159419816
 N    1.3137273092    3.3429729090    0.0055864108
 C    2.3817860914    4.1949997870   -0.0011225948
 C    1.8177002285    5.4358604392    0.0113879482
 N    0.4473268428    5.3028783160    0.0249262884
 N    0.1379442900    4.0557766750    0.0215944634
 H   -0.9270791580    1.8966268255    0.0213795228
 H    3.3934190050    3.8294847850   -0.0136318072
 H    2.2861847089    6.4059797279    0.0116447356