16

 N    0.0334263381   -1.1518266680   -0.1543825572
 C    0.0567966745   -0.0002134744   -0.0481808499
 C    0.0601098569    1.4154721942    0.1480013705
 O    0.2373676637    2.2608140926   -0.9964326959
 C    1.1563635665    2.4174468277    0.0836395915
 C    0.4880919358    3.2794350247    1.1795778943
 C   -0.5261774336    4.3588493218    0.6983617150
 C   -1.6798750690    3.3063257655    0.7649437167
 C   -0.6688267970    2.2295968905    1.2524088542
 H    2.2074058713    2.2853158399   -0.1483251624
 H    1.1190643208    3.4875682532    2.0426712475
 H   -0.6402869720    5.1794383132    1.4093761203
 H   -0.3266314034    4.7714819795   -0.2916778312
 H   -2.4433775760    3.5360843001    1.5107591127
 H   -2.1676545204    3.0860677248   -0.1855912190
 H   -0.8758122461    1.6683475846    2.1620709528