17

 C   -0.0923539472    1.5277762848   -0.0708932141
 C    0.0571767357    0.0234493365   -0.0362029616
 C    1.4121465039   -0.6291437894   -0.1473332395
 O    2.5676762190    0.1546458690   -0.1462417509
 C    0.6829202533   -0.6522721038    1.1653163371
 C    1.1373897843   -0.1161000198    2.5122429652
 O    0.6407847218   -1.3490422667    3.1403416238
 C    0.2118310316   -1.8519559116    1.9300809445
 O   -0.3287955949   -2.8896769818    1.7147442505
 H    0.8059963016    2.0201093400    0.3095929381
 H   -0.2583160973    1.8747725738   -1.0964260917
 H   -0.9458344689    1.8550192207    0.5309413877
 H   -0.7602153987   -0.5418815419   -0.4776850064
 H    1.4859989080   -1.5743964919   -0.6841289211
 H    2.6995054893    0.5001695385   -1.0358899595
 H    2.2146875314   -0.0114925180    2.6500654169
 H    0.6056176873    0.7545017915    2.9022289511