18

 O    0.1090550784   -0.0316501302   -0.0947991315
 C    0.0714213764    1.1606154808   -0.1490972477
 O    1.0810807396    1.9442669975    0.2682759914
 C    0.9433713399    3.3655791061    0.1626278083
 C    1.0520109472    4.0492239935    1.5471354871
 C    1.7323426594    5.3802905244    1.2579330651
 N    3.1929263133    5.2488185475    1.0875328079
 C    2.3301072330    5.3366934905   -0.1072370625
 C    2.0496454276    3.9764832355   -0.7312184250
 H   -0.7867156834    1.7413648030   -0.5433719944
 H   -0.0388345196    3.5881578088   -0.2745439664
 H    0.0691665351    4.1746131525    2.0093942981
 H    1.6674760282    3.4355839968    2.2104584882
 H    1.3336451103    6.2968038804    1.6796348252
 H    3.6342244308    6.1511924410    1.2519709507
 H    2.3906977674    6.2197289011   -0.7344250679
 H    2.9398745391    3.3427891751   -0.6954177245
 H    1.7251254474    4.0538660157   -1.7724151919