17

 C   -0.1343071954    1.4659112816    0.0657929535
 C    0.0390065233   -0.0464219884    0.0000685221
 C    0.8785182674   -0.5316902488   -1.1862633480
 C    2.1647761179   -0.4561950873   -0.3809233189
 C    1.2113090260   -0.5972945269    0.8627574287
 O    1.1264035717   -2.0373453317    0.6798789298
 C    1.5848833999   -1.8128037900   -0.6607176509
 C    2.0259382691   -2.8852648216   -1.4757227554
 C    2.4013727545   -3.7896465672   -2.1744004793
 H    0.8213774445    1.9828966365   -0.0740708480
 H   -0.8202269556    1.8183243785   -0.7110993604
 H   -0.5463089381    1.7682247464    1.0347295727
 H   -0.9112195446   -0.5637710544    0.1722835820
 H    0.7367331550   -0.3615863533   -2.2459098150
 H    3.1429874216   -0.0353975757   -0.5643411814
 H    1.3874625280   -0.2967829321    1.8935423467
 H    2.7323614449   -4.5912288556   -2.7870791981