19

 C   -0.1588511301    1.4489908373   -0.0278992047
 N    0.0434499666    0.0070363913    0.0605507461
 C    1.3673890021   -0.5095051186   -0.2244709657
 C    0.8197064360   -0.5517658983    1.1783757776
 C    1.4321496468    0.3636647551    2.1214340863
 N    1.8937994431    1.0842732842    2.9002970352
 C    0.2933100156   -1.8323204126    1.7662011871
 C    1.0166400617   -2.5489597470    2.8788102715
 C   -0.3090722988   -1.8838042205    3.1478346239
 H    0.7122690790    2.0418889054    0.2875870253
 H   -0.3924638458    1.6969608043   -1.0672465088
 H   -1.0127632295    1.7300160430    0.5946051473
 H    1.4129041407   -1.4354556463   -0.7920168616
 H    2.1702572939    0.1988065193   -0.4232691477
 H   -0.1787144063   -2.4469877982    1.0073048773
 H    1.0612794267   -3.6312555500    2.8367878935
 H    1.9023347053   -2.0795936988    3.2932134120
 H   -0.2992700782   -0.9755455721    3.7405403937
 H   -1.1862408989   -2.5041772075    3.2912671716