14

 C    0.0234939752    1.4426493359    0.0107668796
 N    0.0055720033   -0.0030614627    0.0661884286
 N   -0.0353079450   -0.7204785962   -1.0814674618
 N   -0.0430405811   -1.9792119020   -0.7547915272
 C   -0.0075279418   -2.0822475117    0.6006571772
 C    0.0243204536   -0.8204007996    1.1518972955
 C    0.0694877430   -0.3330454454    2.5599792868
 H    0.9331994255    1.8403893951    0.4708139898
 H   -0.0029963670    1.7238605936   -1.0417753659
 H   -0.8472482368    1.8643207614    0.5220278315
 H   -0.0067410578   -3.0384523669    1.0995512677
 H    0.9686174004    0.2617741083    2.7587113738
 H   -0.7973003232    0.2917380589    2.8049456818
 H    0.0730946419   -1.1818619789    3.2467672727