17

 C   -0.0274089473    1.5790491894   -0.0661832883
 C   -0.0293038870    0.0756572141    0.0517207118
 O    1.2041401160   -0.6350677408   -0.1491092527
 C    0.6411066547   -0.6745635664    1.1673272013
 C    1.4182277889    0.0427497219    2.2557816168
 C    0.1124138023   -1.9570074551    1.5889895348
 C   -0.2977218505   -3.0082574025    2.0029621313
 C   -1.1946383772   -0.6111125404   -0.6172037660
 O   -2.1902608962   -0.0328460360   -0.9698209708
 H    0.8113586830    2.0348555208    0.4580058949
 H    0.0287127255    1.8628350697   -1.1213823964
 H   -0.9644511986    1.9787655358    0.3292287738
 H    1.9006776633    0.9409842464    1.8713036708
 H    0.7557980157    0.3116770865    3.0835202861
 H    2.1922176510   -0.6248579978    2.6448308957
 H   -0.6694505271   -3.9406925959    2.3511759702
 H   -1.0444539865   -1.6974313199   -0.7762568033