18

 C   -0.1772211318    1.5335269567    0.0457150721
 C   -0.0092845091    0.0503077853    0.0066331433
 C    0.7526826280   -0.8070615255   -1.0676038407
 C   -0.3780152492   -1.8146490623   -0.7927661307
 C   -0.3808930831   -1.8545101545    0.7042624806
 C    0.7486422183   -0.8631159403    1.0366238170
 C    1.8592297112   -1.1008378236   -0.0204467515
 O    2.5734959206   -2.3046036533   -0.0511752425
 N   -1.2487080224   -0.8699301798   -0.0202577917
 H    0.7944208768    2.0392272792    0.0565137632
 H   -0.7355600215    1.8810776280   -0.8302082673
 H   -0.7314681193    1.8353700559    0.9409597233
 H    0.9605463158   -0.4915726618   -2.0878436392
 H   -0.8000489968   -2.5776887961   -1.4354445886
 H   -0.8053126491   -2.6506105089    1.3038197288
 H    0.9525777916   -0.6023300627    2.0729795813
 H    2.5996190611   -0.2946028539    0.0024629574
 H    1.9288896890   -3.0214731424   -0.0714009449