23

 C   -0.0720833953    1.6239975356    0.1104279301
 C    0.0070454706    0.1003428217    0.0888392136
 C    1.0233194463   -0.5527186197   -0.9028823289
 C    2.1120901448   -0.2884974799    0.1870746863
 C    0.9209588902   -0.5871817984    1.1541517292
 C    0.7310929500   -2.0916362629    0.8763710847
 C   -0.7001258982   -2.6977050519    0.7879825984
 C   -0.6225847508   -2.6716071332   -0.7701489487
 C    0.8093275562   -2.0652978293   -0.6957453798
 H    0.9040150000    2.1127178050    0.1673525951
 H   -0.5715975382    1.9935905604   -0.7922700019
 H   -0.6596087618    1.9640319385    0.9707570358
 H   -1.0160448035   -0.2815962045    0.0315275367
 H    1.1282815884   -0.1884543527   -1.9269367782
 H    2.9684407068   -0.9695677904    0.2182784323
 H    2.4651497956    0.7416284057    0.2218985120
 H    0.9231607816   -0.2575180448    2.1951655272
 H    1.4609599797   -2.7022187919    1.4130261839
 H   -0.7708038303   -3.7049907362    1.2058102296
 H   -1.4952462284   -2.0940533693    1.2351141193
 H   -0.6497625045   -3.6642531157   -1.2263451207
 H   -1.3704025538   -2.0520367785   -1.2735763394
 H    1.5898724446   -2.6588174876   -1.1774087368