21

 C   -0.3452775896    1.4565560463    1.1617033255
 O   -0.2342208252    0.0816514139    0.8872934263
 C    0.3151956086   -0.6493330614    1.9683049040
 C    0.3830944413   -2.1012405231    1.5504785630
 C    1.5486759165   -2.5533158523    0.6278338752
 O    2.4890339689   -2.3495454331    1.7575300551
 C    1.3212200949   -3.0627202705    2.3282277426
 C    1.3781084670   -4.0256527982    1.1048107101
 C    0.2346376085   -4.9309291223    0.6778301101
 H    0.6343194190    1.9121470773    1.3772798567
 H   -0.7700829405    1.9355356728    0.2758410927
 H   -1.0071038195    1.6506980159    2.0214519804
 H    1.3182293357   -0.2814068214    2.2232167897
 H   -0.3233759734   -0.5418056084    2.8631670805
 H   -0.6095418904   -2.4787475543    1.2968899135
 H    1.8445511638   -2.1645698256   -0.3469020721
 H    1.3490163789   -3.2928889415    3.3950274765
 H    2.3374112723   -4.5492294349    1.0797465413
 H   -0.7405032904   -4.4384951115    0.6890883043
 H    0.4067018910   -5.3019978224   -0.3381889309
 H    0.1751248725   -5.8035360054    1.3372362053