22

 C   -0.2423212819    1.5216503958   -0.9464632320
 C   -0.0803681977    0.2300092115   -0.1354363294
 C   -1.4007308982   -0.4661999748    0.1698432340
 C   -2.3922217950    0.2839263421    1.0521270422
 C   -1.8779056289    0.5906802740    2.4634203517
 C   -1.9688159955   -1.3637318423   -0.8915591219
 C   -1.3827873212   -1.9857811804    0.3705569726
 C   -0.1607741596   -2.7344514555    0.3004680400
 N    0.8265282719   -3.3368264092    0.2505002586
 H    0.7361440984    1.9451279229   -1.1911326908
 H   -0.7714003432    1.3346689826   -1.8869235181
 H   -0.8012324397    2.2849957688   -0.3961361062
 H    0.5671097201   -0.4617601463   -0.6841446365
 H    0.4451639691    0.4457209729    0.8022123484
 H   -2.6771445649    1.2175113803    0.5519246535
 H   -3.3134559397   -0.3072139812    1.1246731049
 H   -2.6550848947    1.0787093531    3.0589328430
 H   -1.5807969458   -0.3253572394    2.9848429535
 H   -1.0111379603    1.2579013272    2.4447000752
 H   -3.0448935927   -1.4310037592   -1.0098100472
 H   -1.4040138878   -1.4955095947   -1.8078065200
 H   -2.0920455628   -2.3826007781    1.0900652845