21

 C   -0.1858197189    1.5092333397    0.0329233366
 C   -0.0443496055   -0.0042964783    0.0065737198
 C    1.1465934577   -0.5290050123   -0.8344777904
 O    1.8695865484   -0.9647760443    0.3330798311
 C    0.7148178322   -0.7080682285    1.1883274196
 C    1.1251490808    0.0292752539    2.4467178918
 C   -0.0994215614   -1.9573469715    1.4239544003
 C   -1.2047788934   -1.9918571351    0.6806579426
 C   -1.3710762073   -0.7666356059   -0.1876128828
 H    0.7777352340    2.0021065484    0.1962655086
 H   -0.5855034763    1.8749976651   -0.9201977350
 H   -0.8705326338    1.8336322454    0.8241495827
 H    0.8998144097   -1.3649167842   -1.5029825683
 H    1.7082984590    0.2258213869   -1.3981344041
 H    1.6634773298    0.9499817639    2.2074083366
 H    0.2515803663    0.2762541924    3.0586831950
 H    1.7904229381   -0.6026988087    3.0450786530
 H    0.2183378951   -2.7261389146    2.1203541699
 H   -1.9301911910   -2.7991781508    0.6836829552
 H   -2.2349857833   -0.1661904430    0.1305957914
 H   -1.5516292003   -1.0221221785   -1.2402234238