15

 O   -0.0537114926    0.1748812938   -0.6444486830
 C    0.0144302347    1.2273733189   -0.0658869263
 C    1.3550525490    1.9627458697    0.1305713014
 O    2.4509325971    1.0971584997    0.1116917634
 C    2.9358645299    1.0167430036   -1.2351732964
 C    2.1307023254    2.0897623921   -1.9966885748
 O    1.5053705582    2.8538228393   -0.9571966382
 C    1.4314679997    2.7850389302    1.4213821836
 O    0.5868270451    2.7655901045    2.2735688131
 H   -0.8806503511    1.7753750284    0.2872715534
 H    4.0100466511    1.2236424085   -1.2215976849
 H    2.7603203549    0.0138999575   -1.6327158030
 H    2.7506283287    2.7736641181   -2.5792251645
 H    1.3741963800    1.6376849618   -2.6470591689
 H    2.3585738297    3.3909646440    1.4905798351