15

 C   -0.0026811730    1.5018302978   -0.0084908305
 C   -0.0385632840    0.0026666953    0.0784445698
 C   -1.2714730936   -0.7810625294   -0.3393946404
 O   -1.0946483328   -2.1004576009    0.1603553467
 C   -0.1936983734   -2.0785959203    1.2628829629
 C    0.6373314459   -0.8299145433    1.0799628393
 O    1.1681048144   -0.7089834585   -0.2453729084
 H    0.9412043524    1.8845667035    0.3864002795
 H   -0.0929866694    1.8317372678   -1.0491910562
 H   -0.8280302794    1.9459491393    0.5575274582
 H   -2.1709793734   -0.3031962414    0.0834123726
 H   -1.3918873024   -0.8477410837   -1.4261793104
 H   -0.7262938629   -2.0306877928    2.2275564810
 H    0.3915034289   -3.0036173049    1.2337635449
 H    1.2450543927   -0.4316162284    1.8884402011