15

 N   -0.0524733919    0.9801434609   -0.9765804048
 C    0.0927082273    0.1250633261   -0.0527057534
 N   -1.0684142561   -0.4283117604    0.5017534749
 C   -1.4905136158   -1.5628936807    1.1975702990
 O   -2.6656742732   -1.7506068593    1.3670769186
 O   -0.5980089034   -2.4260733064    1.7188472992
 C    0.8026112677   -2.3810965635    1.4635337464
 C    1.4113497883   -1.0038938974    1.6183263316
 O    1.3035914348   -0.2373984292    0.4221311608
 H    0.8506279776    1.3689662552   -1.2391523623
 H   -1.8786166212    0.0524240373    0.1335811424
 H    1.2318497729   -3.0644020995    2.2003161343
 H    1.0215699852   -2.7690051082    0.4609633340
 H    0.9624469299   -0.4740751612    2.4674581766
 H    2.4862222778   -1.0925525238    1.7913704127