21

 C    0.0412260461    1.5236378751    0.5254455458
 C   -0.0568760973    0.0305463750    0.3056164893
 C    1.0984426183   -0.7267341576   -0.3407097095
 C    0.8021147888   -0.9055809532    1.1087952464
 O    1.6838068803   -0.4415457268    2.1315745301
 C    1.2455543699   -1.4906004169    3.0423052863
 C    0.5375979825   -0.9457531955    4.2663802535
 C    0.3654226872   -2.1213955207    1.9193044536
 O   -1.0048428279   -2.3257392751    2.1392793754
 H    1.0353123251    1.7941335291    0.8918289398
 H   -0.1482217114    2.0760593346   -0.4009161411
 H   -0.6851711510    1.8636048713    1.2721360041
 H   -1.0491096062   -0.3458401995    0.0638530460
 H    0.8793644527   -1.5401828278   -1.0252974725
 H    1.9878291788   -0.1530256051   -0.5837579392
 H    2.1004559430   -2.1106944535    3.3373565505
 H   -0.3108793828   -0.3104829479    3.9925637401
 H    0.1686066556   -1.7649259107    4.8916369160
 H    1.2285347984   -0.3396420537    4.8595547831
 H    0.7549598496   -3.0736016293    1.5518441099
 H   -1.4110596199   -1.4691376117    2.3101472825