20

 C    0.2675820190    1.5644804419    0.0651298431
 C    0.1038354630    0.0358982758    0.0792970184
 C    0.6958452589   -0.5467098316    1.3836631130
 C   -1.4030067483   -0.3393710962   -0.0681587611
 C   -2.2210521597    0.0293464986    1.1480386508
 O   -2.8094668468    1.0745062531    1.2807755905
 C    0.8364589363   -0.6907158175   -1.0766078884
 N    1.7324207339    0.0372927274   -1.7979897734
 O    0.6460896703   -1.8731892469   -1.2964100566
 H    1.3033714938    1.8598960324    0.2666307159
 H   -0.0454834774    1.9973655582   -0.8911131889
 H   -0.3562184109    2.0203586361    0.8383033424
 H    0.2337410054   -0.0907225902    2.2645458156
 H    0.5486822810   -1.6285607122    1.4235286740
 H    1.7714128396   -0.3492666999    1.4359753548
 H   -1.8226277986    0.1867343040   -0.9318912933
 H   -1.4609227640   -1.4173276589   -0.2426771438
 H   -2.2483041348   -0.7378098886    1.9544445270
 H    1.8668404801    1.0235605988   -1.6744006183
 H    2.2185453391   -0.4312697445   -2.5451204920