21

 C   -0.4056231254    1.4969770276    0.0115493188
 C   -0.0640777944    0.0258751467    0.0951531656
 C    1.2865575318   -0.5123210812   -0.3025033584
 O    2.3167761794    0.4416870544   -0.3931313632
 C    2.8628345771    0.6476349004    0.9074195753
 C    1.7932457258    0.2260389580    1.9446309692
 O    1.0959015279    1.3094207367    2.5486384587
 C    0.8395374350   -0.6472436636    1.1313086981
 C    0.4002862480   -1.9587996008    1.7416514256
 H    0.4831452425    2.1215480392    0.0976894868
 H   -0.8756030925    1.7089587046   -0.9555459311
 H   -1.1008331554    1.7904947843    0.8024047887
 H   -0.8900986714   -0.6270243635   -0.1831604982
 H    1.4014161348   -1.3558635965   -0.9785343166
 H    3.7713782846    0.0375329276    1.0299302378
 H    3.1356612934    1.7039002314    1.0083904395
 H    2.2621293672   -0.3876083832    2.7281715836
 H    1.7138088978    1.7853712864    3.1125136643
 H   -0.2373454833   -1.7906568627    2.6171159033
 H   -0.1729254521   -2.5565882187    1.0262884673
 H    1.2589335592   -2.5603470972    2.0636084348