16

 C    0.1105306339    1.5131814443    0.0354982601
 C   -0.0204918694    0.0228663819   -0.0572461238
 C    0.0273063352   -0.6473994729   -1.2119780207
 C   -0.1005228241   -2.0947748332   -1.2953917870
 N   -0.0532660165   -2.7173292699   -2.3965911287
 O   -0.2807630492   -2.8049828397   -0.1116036408
 C   -0.3457300908   -2.2305175747    1.1294749209
 O   -0.5031905964   -2.9377808412    2.0806878045
 C   -0.2138972242   -0.7221318712    1.2303923872
 H    0.9626014197    1.7912220667    0.6685035319
 H    0.2478506499    1.9672202370   -0.9480753230
 H   -0.7797181896    1.9548018961    0.5007467303
 H    0.1652697585   -0.1517052484   -2.1650979049
 H   -0.1621473366   -3.7214977957   -2.2444001922
 H    0.6144613018   -0.5244406958    1.9237892045
 H   -1.1072431222   -0.3629271833    1.7585708917