15

 C    0.0071811039    1.5469334819   -0.0113269379
 C   -0.0028728064    0.0528198645    0.0431418314
 C    0.0146660806   -0.8116825543   -1.0244566342
 O    0.0028154847   -2.1489081904   -0.6254530310
 C   -0.0381957642   -2.0720594284    0.7019377706
 C   -0.0461867366   -0.8202884345    1.1736572324
 O    0.1003633734   -0.8495495231    2.5552611915
 C   -0.1498797124   -2.2343684038    2.8430884039
 O    0.1163494431   -3.0304152105    1.6506734280
 H    0.8817871091    1.9585060592    0.5042225368
 H    0.0302256993    1.8995090171   -1.0456791523
 H   -0.8802155481    1.9699020236    0.4719430938
 H   -0.0382045617   -0.6568690561   -2.0880729442
 H    0.5113881265   -2.5695417240    3.6424489176
 H   -1.2114000313   -2.3656563212    3.1016267036