17

 C   -0.1331984476   -1.2058639678   -0.3561219697
 C   -0.0840261864   -0.0266860349   -0.1300467353
 C   -0.0432820004    1.4108696849    0.1161405549
 O   -0.4310020201    1.7390869404    1.4588789317
 C    0.6653311341    2.4070581737    2.0561041783
 O    1.3813209357    3.0165892009    1.0108387211
 C    1.3510101285    2.0562901225   -0.0157928746
 C    2.6079584958    1.3088507343   -0.3598940188
 C    2.0397465540    2.3673727539   -1.2943072179
 H   -0.1820760267   -2.2495246649   -0.5479568831
 H   -0.7517715971    1.9099624909   -0.5584297914
 H    0.2918470655    3.1797737826    2.7330791107
 H    1.3018550930    1.6879534597    2.5995036175
 H    3.4954210681    1.5716622388    0.2045380138
 H    2.5278682547    0.2679599928   -0.6505124533
 H    1.5731609799    2.0412220447   -2.2180442130
 H    2.5541468590    3.3198992276   -1.3535247910