19

 C   -0.0240475545    1.4128749266    0.0025918194
 N   -0.0367385260   -0.0281815875    0.0694072799
 C   -1.1987036836   -0.8149545525   -0.3073997043
 C   -0.8131207154   -2.2558207192    0.1008078539
 C    0.7058365819   -2.2224040538    0.1226324181
 C    1.5845521052   -3.2975024915    0.6277181090
 N    1.5534308089   -2.9960989103   -0.8135959644
 C    1.1007476989   -0.7675475801    0.2713491552
 O    2.2048570541   -0.3316926250    0.5211511852
 H    0.9728304190    1.7471591909    0.2955762261
 H   -0.2371429311    1.7688051377   -1.0142625020
 H   -0.7686743058    1.8454711058    0.6814909295
 H   -2.0939503764   -0.4608441347    0.2162423515
 H   -1.3962839054   -0.7336662608   -1.3869932287
 H   -1.2029597280   -2.4741740032    1.1002615957
 H   -1.2197459565   -3.0028875219   -0.5857734768
 H    2.5089242924   -3.0150170172    1.1227612580
 H    1.1163354296   -4.2113399587    0.9856607880
 H    0.9688113626   -3.6811724147   -1.2894297334