21

 C    0.1610611918    1.4867477825    0.3771219768
 C    0.0235957068    0.0354938429   -0.1051455340
 C   -1.3964919446   -0.4585327236   -0.0973818893
 C   -2.0928836260   -1.0247399545    1.1324329864
 C   -1.9930492772   -1.8482058312   -0.1117184613
 O   -3.0203614289   -1.4944535442   -1.0450286986
 C   -2.4481392763   -0.1542856978   -1.1735199774
 C   -3.5122414907    0.9141171063   -0.9963231397
 O   -4.5711076119    0.7080758250   -1.9137371090
 H    1.2069683090    1.8081206861    0.3659801177
 H   -0.4036879776    2.1733127491   -0.2627739839
 H   -0.2175294382    1.5979289209    1.3982151514
 H    0.4343659961   -0.0556131063   -1.1193301910
 H    0.6324724847   -0.6193625820    0.5303699106
 H   -1.4084136668   -1.3035408127    1.9288363901
 H   -3.0631535316   -0.6728461187    1.4688418788
 H   -1.5561514391   -2.8370440707   -0.1929358711
 H   -1.9908867265   -0.0633742455   -2.1677778911
 H   -3.8755191838    0.9229137989    0.0419019632
 H   -3.0896301498    1.9022309457   -1.2105803950
 H   -4.8458795795   -0.2098556004   -1.7985019737