17

 N    0.3350391811    0.8211529034    0.8548777416
 C   -0.0071176363    0.0675438087   -0.2106292845
 O    0.6286429715    0.0041996698   -1.2497510460
 C   -1.3248375159   -0.7516931736   -0.0018518732
 N   -2.2831896014    0.1061166345    0.7244977851
 C   -1.8351720274   -1.1728381293   -1.4056669929
 O   -2.0964082695   -0.0313193501   -2.1960822897
 C   -1.0240658336   -1.9412936339    0.7899633271
 C   -0.8013544421   -2.9480698971    1.4073633495
 H    1.1285295249    1.4358451898    0.7785604260
 H   -0.3549287905    0.9598064047    1.5772618561
 H   -2.6918134568    0.7379551451    0.0365954310
 H   -3.0384223230   -0.4706332031    1.0839167699
 H   -1.1045840828   -1.8395340399   -1.8753647814
 H   -2.7792646251   -1.7127240181   -1.2849856746
 H   -1.2261270514    0.3054852295   -2.4485932242
 H   -0.5919066617   -3.8312535005    1.9592356802