16

 C    0.0638519227    1.5042440549   -0.0942383147
 C   -0.0997788503   -0.0095547996    0.1178674478
 C    0.6895188925   -0.5082280759    1.2972373900
 N    2.0382228462   -0.4966675964    1.1983537239
 C    2.7054638301   -0.9252431928    2.2462281994
 C    2.0068120269   -1.3597314969    3.3862243901
 O    2.6803649470   -1.7994364146    4.4601553184
 N    0.6868602251   -1.3481281852    3.4310756020
 N    0.0095285329   -0.9148901518    2.3671150997
 H    1.1176050765    1.7622959253   -0.2325002544
 H   -0.4887085857    1.8297461531   -0.9801947203
 H   -0.3153042007    2.0635016401    0.7668155694
 H   -1.1496694718   -0.2640584346    0.2802036756
 H    0.2443085742   -0.5395096547   -0.7774363637
 H    3.7921242077   -0.9385168849    2.2140572865
 H    2.0157223767   -2.0461578060    5.1211410902