20

 C    0.0301959899    1.5024153607    0.0794628403
 C    0.0016964428   -0.0098879863    0.0320015801
 C    0.2697222410   -0.7195745680   -1.3216195171
 N   -0.9276632418   -1.6158134777   -1.1559876516
 C   -0.8777202501   -2.1739632875    0.2274723145
 C    0.4480331818   -2.2110469535    0.9730613137
 C    0.8208855591   -0.7107563518    1.1279640923
 O    2.1944903069   -0.4136890550    0.9456383443
 C   -1.3426597379   -0.7844119538    0.0286881070
 H    1.0586111264    1.8648627174   -0.0126720012
 H   -0.5625354279    1.9390502361   -0.7307259518
 H   -0.3709081314    1.8752240591    1.0295470628
 H    0.0910629016   -0.0711138479   -2.1827895378
 H    1.2293479285   -1.2297153334   -1.4489215433
 H   -1.5925846637   -2.9789137066    0.3604393082
 H    0.3360956818   -2.7136148215    1.9389887237
 H    1.2275451047   -2.7417733324    0.4151347170
 H    0.4758101896   -0.3458144873    2.1099240550
 H    2.6952800392   -0.8461644277    1.6435715153
 H   -2.3473187307   -0.3974862130    0.1577840285