20

 C   -0.2009279000    1.5274960460   -0.0643945393
 C    0.0386201549    0.0173549503    0.0061294454
 C    0.8173586564   -0.4524322019    1.2557475871
 C    2.2106036917    0.1723962897    1.3420217708
 O    0.1423810276   -0.0396509161    2.4435637862
 C    0.9133180975   -2.0056710357    1.2118856190
 C    1.5505921103   -2.6055557544    2.3762500736
 C    2.0772662932   -3.1089945695    3.3321744678
 H    0.7290437962    2.0800168484   -0.2276909962
 H   -0.8779654742    1.7727974651   -0.8881220120
 H   -0.6460558749    1.8875469072    0.8670058809
 H   -0.9312685283   -0.5010801652    0.0021701089
 H    0.5660397706   -0.3243425596   -0.8934850052
 H    2.1344780764    1.2537509932    1.4737307476
 H    2.7519389952   -0.2387725685    2.1968033014
 H    2.7841652443   -0.0305401442    0.4324488619
 H   -0.7161356890   -0.4764148620    2.4705017357
 H   -0.1027149916   -2.4119267454    1.1052729061
 H    1.4507551515   -2.3028601608    0.3023105508
 H    2.5403068123   -3.5498979967    4.1797339894