16

 O    0.0473534728    1.4073240975   -0.2050592158
 C    0.0816454096    0.0006151085   -0.1227537045
 C   -1.3112830067   -0.5537535497    0.1935671142
 O   -2.2219534631   -0.1117304747   -0.8214117979
 C   -2.8209180684   -1.2181154649   -1.4904731170
 C   -2.2605665825   -2.4339530573   -0.8192795120
 C   -1.4146980051   -2.0652816262    0.1463160693
 C   -0.6894264153   -2.9161889351    1.0192538444
 N   -0.0826083026   -3.5804054055    1.7487804920
 H   -0.6482633543    1.6229976814   -0.8379050267
 H    0.4438520233   -0.4595301545   -1.0564115818
 H    0.7799086201   -0.2623808033    0.6786765593
 H   -1.6386343566   -0.1496209883    1.1621199130
 H   -3.9164247556   -1.1639436684   -1.3979520288
 H   -2.5846537268   -1.1919288971   -2.5652566640
 H   -2.5215175689   -3.4481712123   -1.0908066336