19

 C   -0.8204642976    1.2436435788    0.0391911961
 C    0.0346565110   -0.0173975639    0.0076657697
 C    0.8603385670   -0.2360997118   -1.2879758449
 O    1.2523899161    1.0288062423   -1.8190584690
 C    2.0577432810   -1.0826165632   -0.7993966986
 C    2.2040898887   -0.7204254827    0.6716521230
 C    2.1747919052    0.7196398266    1.0376841400
 N    0.9577101998   -0.1054517639    1.1624840973
 H   -0.2075126631    2.1400208139   -0.0734145463
 H   -1.5527856567    1.2346387067   -0.7737240982
 H   -1.3575791075    1.3018897737    0.9896239951
 H   -0.6245086735   -0.8900763663    0.1061970927
 H    0.2650943025   -0.7775793255   -2.0361720710
 H    1.7907419295    0.8670583853   -2.5998830703
 H    1.8280278325   -2.1500827933   -0.8960703678
 H    2.9595428456   -0.8887713058   -1.3906301353
 H    2.6836207670   -1.4392625077    1.3307621011
 H    2.5913589630    1.0377388943    1.9894577631
 H    2.2337022393    1.4481107626    0.2363154633