14

 C   -0.0537081274    1.5508304903   -0.0114447244
 C    1.4537777665    1.8821369358   -0.0243539297
 O    2.1811692348    1.4333568956    1.1179299529
 C    2.2622764539    0.6370320085   -0.0823769387
 C    1.2386151927   -0.4304041644   -0.0806762817
 C   -0.0309824204    0.0438041772   -0.0027006842
 C   -0.8018040339   -1.1404942809    0.0761713987
 N   -0.0456673721   -2.2191095495    0.0221938770
 O    1.2831360619   -1.7588283293   -0.0692594771
 H   -0.5373190451    1.9878143804    0.8687020966
 H   -0.5453167708    1.9678950965   -0.8976991545
 H    1.7981941458    2.8196501837   -0.4524571177
 H    3.2407825712    0.5467165184   -0.5395424052
 H   -1.8716786771   -1.2757447020    0.1530614280