19

 C    0.1570527004    1.7991459135    0.2054636728
 C    0.7000169451    0.3820742088    0.1495271667
 O    0.2280288684   -0.3143422714    1.2993977719
 C    0.4806353749   -1.6961366663    1.3358957695
 C    1.8842063107   -2.0883595898    1.8503321548
 C    2.9460231056   -1.9837881004    0.8594398317
 C    3.8182525174   -1.9173487513    0.0344197603
 C   -0.6079158676   -2.2912934133    2.2307196797
 O   -0.5018846235   -3.3221091711    2.8403280279
 H    0.5052968949    2.3085343352    1.1084480945
 H    0.4966595915    2.3681904381   -0.6649741112
 H   -0.9366226241    1.7943689135    0.2143844857
 H    0.3533908108   -0.1343155044   -0.7600834993
 H    1.7966158754    0.3831553272    0.1262266236
 H    0.3314202900   -2.1434240108    0.3358995165
 H    2.1085882150   -1.4600075980    2.7205015320
 H    1.8116783057   -3.1194061390    2.2161358167
 H    4.5939756004   -1.8594095279   -0.6883884046
 H   -1.5303161610   -1.6726889027    2.2538246807