11

 O   -0.0749164078    1.2947790653    0.0097217961
 C    1.2298205489    1.8010959351    0.0000180604
 C    2.1633435225    0.8141428018   -0.0143414383
 C    1.4167111124   -0.4194791939   -0.0139853173
 C    0.1108876581   -0.0220066338    0.0007332449
 O   -0.7724787200   -1.0005187759    0.0038399151
 N    0.0092323498   -2.2046605529   -0.0101400872
 C    1.2729131067   -1.8327785264   -0.0204128828
 H    1.2874724298    2.8759350879    0.0053581419
 H    3.2311329654    0.9632266962   -0.0237630036
 H    2.0196945644   -2.6144924533   -0.0318778294