20

 C    0.0207038409    1.5571089168    0.0498255155
 C   -0.0152475251    0.0231036063   -0.0065975280
 C    0.6381745939   -0.4878657453   -1.3045649270
 C    0.2590662224   -1.9196482421   -1.7114964324
 O    0.0889432038   -2.8472518099   -0.6462078143
 C    0.9804901769   -2.7724543659    0.4302054888
 O    0.5305334168   -1.9324590727    1.4571828631
 C    0.6946236628   -0.5437567800    1.2365154476
 H    1.0514094614    1.9306633034    0.0176105867
 H   -0.5142119559    1.9932739190   -0.7993159132
 H   -0.4415038190    1.9353837990    0.9673266144
 H   -1.0605338123   -0.3093070862    0.0270643170
 H    0.3633424013    0.1636874861   -2.1433078129
 H    1.7274984070   -0.3946853308   -1.2048053707
 H   -0.7089653002   -1.9138772592   -2.2235753630
 H    1.0024267859   -2.3025346197   -2.4281130489
 H    1.0191416261   -3.7736830482    0.8671179085
 H    1.9897337096   -2.4744680400    0.0949513268
 H    1.7693523053   -0.2946186841    1.1741891185
 H    0.2995042585   -0.0662188764    2.1386109935