17

 O    0.3495370609    1.0548847256   -0.8278127491
 C    0.0591708578   -0.1389649207   -0.1571426922
 C    0.1664789300   -0.2014911171    1.3956584861
 N   -1.2109006260   -0.7869217131    1.5132858562
 C   -2.2449150440    0.2606586003    1.7881978357
 C   -2.5043326555    0.4872829114    0.2837500260
 O   -2.2404981823    1.8277122021   -0.1205519880
 C   -1.4179194313   -0.5937947020    0.0156970454
 H   -0.2901112669    1.7081599881   -0.5114967086
 H    0.6576307283   -0.9162501036   -0.6403136835
 H    0.9401244347   -0.8643212603    1.7942196048
 H    0.2726340543    0.7832370227    1.8660603537
 H   -3.0988107554   -0.1372076039    2.3440266193
 H   -1.8669804884    1.1479508677    2.3067558366
 H   -3.5043613441    0.1871336892   -0.0499961829
 H   -2.4800561481    1.9142385029   -1.0500096369
 H   -1.7444219038   -1.4597982493   -0.5674661624