16

 C   -0.1936442022    1.5199270214    0.0473792476
 C    0.0421708792    0.0021317414    0.0188350858
 C    0.7943137352   -0.4833847152    1.2161467319
 N    1.9783363168   -0.0534000432    1.6275350292
 C    2.2090602142   -0.8044848902    2.7439367190
 N    3.3354764143   -0.6192722242    3.5220466549
 N    1.2562994140   -1.6748568005    3.0521148599
 N    0.3527088494   -1.4398637655    2.0521025030
 H    0.7591164498    2.0473442830    0.1327066824
 H   -0.6965228344    1.8486108943   -0.8666179708
 H   -0.8139816400    1.8053814103    0.9022391448
 H   -0.9122363055   -0.5327023874   -0.0488066417
 H    0.6120646450   -0.2601170357   -0.8805984637
 H    4.1212727484   -0.2666788210    2.9957079948
 H    3.5708374384   -1.4209663116    4.0887673042
 H   -0.5032196326   -1.9672332359    2.0200751687