16

 C   -0.6888692668    1.3369943436    0.0307874850
 C    0.1827087424    0.0968494986    0.0133027992
 O    0.8572886269   -0.2389446804    0.9594896215
 C    0.1405555199   -0.7524570015   -1.2622979059
 O   -0.1423571234    0.0078049299   -2.4174469374
 C    1.2375789132   -1.8372041664   -1.3743760990
 O    0.2765509531   -2.8977963564   -1.1953714243
 C   -0.8160521829   -1.9691528047   -1.1521443641
 H   -0.7122297372    1.7486830719    1.0401029892
 H   -0.2941346114    2.0877399790   -0.6618544518
 H   -1.7012278468    1.1068518131   -0.3161394006
 H    0.6178279645    0.5668037921   -2.6132966500
 H    1.7143214178   -1.8706412598   -2.3616719944
 H    1.9846422730   -1.8216086825   -0.5763918709
 H   -1.3993750826   -2.0557493509   -0.2281190706
 H   -1.4767618796   -2.0437563856   -2.0242688659