21

 O    0.0544378625    1.4370130808    0.2993445220
 C   -0.0119413133    0.0602928337    0.1059344182
 C   -0.5454710772   -0.8797292132    1.1605669372
 C   -1.3114295120   -0.6674882702   -0.1365841173
 C   -2.6415223754    0.0573746609   -0.1386711639
 C   -3.8516634096   -0.8014324669    0.2572295676
 C   -4.8110793339    0.2354682868    0.8573692383
 C   -3.8412650196    1.1865142735    1.5657081681
 O   -2.6267101597    1.1456110765    0.8096022885
 H   -0.8006478198    1.7162761709    0.6570007218
 H    0.8506890193   -0.2730541823   -0.4633140222
 H   -0.0529325360   -1.8305643720    1.3348662006
 H   -0.9599900754   -0.4116049875    2.0473775457
 H   -1.2841339218   -1.4758813225   -0.8639596006
 H   -2.8076883595    0.4907448846   -1.1375727566
 H   -4.2725253605   -1.3424834965   -0.5933936886
 H   -3.5509037110   -1.5338237538    1.0142648507
 H   -5.3519025711    0.7624060381    0.0642999980
 H   -5.5475306184   -0.1955394901    1.5395402839
 H   -4.1959517731    2.2216416909    1.6013190241
 H   -3.6395666545    0.8574257081    2.5947309646