18

 C    0.0359707520    1.5413249433    0.0622060032
 O    1.1761384865    0.6587788100   -0.0307815636
 C   -0.1180614490    0.0921874291    0.0203745372
 C   -0.5390288175   -0.9786969209    1.0315607790
 C   -2.0527545030   -0.9701205242    0.7265374673
 N   -1.9906689821   -1.4070543228   -0.7107265253
 C   -1.3801661528   -2.7821371320   -0.5116321707
 C   -0.1127848322   -2.0642879173   -0.0633330543
 C   -0.5461826987   -0.9155703457   -1.0279638929
 H   -0.0589883739    2.0715281161    1.0090104362
 H   -0.1590270817    2.1385137604   -0.8271597461
 H   -0.1772649821   -0.9892430807    2.0577112595
 H   -2.6486185420   -1.6753609794    1.3102700116
 H   -2.4991424710    0.0241592341    0.8123307689
 H   -1.9320185308   -3.4373063032    0.1698925894
 H   -1.2579955613   -3.2764023659   -1.4795177837
 H    0.8905615089   -2.4837417098   -0.0091232914
 H   -0.3203168893   -0.8500024311   -2.0898137043