15

 O    0.0550535373    1.4120390522    0.0354143680
 C   -0.0099335645    0.0426769182    0.0758771880
 C    0.3093139499   -0.8331855465    1.3316705206
 C   -0.3553140221   -1.9151987076    0.4382270039
 C   -1.3344482841   -0.8095808383   -0.0549419898
 N    0.6455361381   -2.0014968443   -0.6604032852
 C    0.8221250838   -0.6749805386   -0.9958870151
 O    1.4265984077   -0.1517758925   -1.9036252433
 H    0.5957098920    1.6298377056   -0.7409448279
 H    1.3544583271   -0.9833803081    1.6090896657
 H   -0.3003104926   -0.5567724920    2.1939844556
 H   -0.6750675675   -2.8811992759    0.8179851472
 H   -2.0867406813   -0.5227188611    0.6828214667
 H   -1.7790510507   -0.9290758300   -1.0463983999
 H    0.6092540669   -2.7179787709   -1.3704916045