18

 C   -0.1387121627    1.4768635847   -0.0198778619
 C    0.0530379090    0.0011882139    0.0552662826
 C    1.2076863631   -0.8396041154   -0.3675801426
 C    0.6698242110   -0.9552976484    1.0645017735
 C    1.4474500004   -0.8664417030    2.3489903819
 O    1.8238258362   -2.1573300084    2.7931611325
 C   -0.6432407135   -1.6494691535    0.9781855046
 N   -1.1543632988   -2.5903264044    1.6354400158
 O   -1.1585630629   -0.8316300912   -0.0156539164
 H    0.8121275687    1.9897760253    0.1489804150
 H   -0.5075975797    1.7650145865   -1.0101547361
 H   -0.8602688018    1.8178661473    0.7280945162
 H    1.0662002417   -1.6437253899   -1.0832736333
 H    2.1652271087   -0.3289681484   -0.4281162937
 H    2.3708446752   -0.2947609853    2.2106800936
 H    0.8441831214   -0.3445777306    3.1088026296
 H    1.0115783396   -2.6795705075    2.8463739342
 H   -2.1171154756   -2.7810567518    1.3551585644