19

 N   -0.4168149907   -1.0876722979    0.5564904336
 C   -0.2905539409    0.0436296733    0.3488895508
 C   -0.1250886580    1.4580762051    0.0870295700
 C   -1.2738662981    2.1436095112   -0.6394222806
 C   -1.4705820091    1.6323479288   -2.0502575449
 C   -2.3417556281    0.4300312906   -2.3218284372
 C   -2.7987182001    1.8045601055   -2.7415347734
 C    0.7390944289    2.2018362605    1.0569262556
 N    1.2311741655    1.9163967907   -0.2927185427
 H   -2.1943876851    2.0139022725   -0.0573841183
 H   -1.0489036575    3.2159839532   -0.6559813303
 H   -0.5875850426    1.7361327795   -2.6744417660
 H   -2.0271760659   -0.2679868965   -3.0890898121
 H   -2.8409428463   -0.0372450210   -1.4797999142
 H   -3.6070207876    2.2628973239   -2.1804705193
 H   -2.7989028982    2.0512136631   -3.7973233321
 H    0.5086222353    3.2453555512    1.2515520635
 H    1.1515851771    1.6532487646    1.8981865598
 H    1.8877588515    1.1399025116   -0.2744280324