16

 N    0.1293493228   -1.1529456921    0.0908401154
 C    0.0610334772   -0.0001506673    0.0400162368
 C   -0.0737967362    1.4417469120   -0.0350661862
 C   -1.1248161129    2.1638709629    0.8509793716
 C   -1.3136975627    3.2218324992   -0.2693206773
 C   -0.1160351217    4.2069642306   -0.3761312577
 C    0.7259191551    3.0850303008   -1.0235990753
 O    1.1927307444    2.1330931788   -0.0314805217
 C   -0.5671093503    2.2605697351   -1.2726048428
 H   -2.0196218592    1.5450118708    0.9624799947
 H   -0.7745678546    2.4912669957    1.8324400677
 H   -2.3172396939    3.6117327868   -0.4282538205
 H   -0.3269564846    4.9952863472   -1.1059271084
 H    0.2752569067    4.6539656943    0.5412114614
 H    1.5039716732    3.3237935039   -1.7491297067
 H   -0.9312684532    1.8523063312   -2.2102254409