22

 C    0.0275224146    1.5027167112    0.0138889784
 C   -0.0369251582   -0.0101223975    0.0211514448
 C   -0.8756119050   -0.7155157632    1.0610611743
 C    0.6308948361   -0.7803440674    1.1419504568
 C    1.4024476574   -2.0253538965    0.7040971894
 C    2.2433671530   -1.6874757825   -0.5242372294
 C    1.9863228734   -2.3069111171   -1.8511828786
 N    1.5769878100   -0.9257491052   -1.5938954018
 C    0.1428368941   -0.6878840207   -1.3352320992
 H    0.9552732239    1.8498889273   -0.4543935362
 H   -0.8107401952    1.9345028968   -0.5461857650
 H   -0.0088472267    1.9067882287    1.0307894879
 H   -1.3976541066   -0.1042215550    1.7904833982
 H   -1.4130551613   -1.6151775493    0.7741141041
 H    1.1010627785   -0.1878319437    1.9216447050
 H    2.0466682639   -2.3867493351    1.5106477842
 H    0.7079657978   -2.8413165893    0.4790834794
 H    3.2493001321   -1.3309859486   -0.3080443361
 H    2.7877632155   -2.4365872101   -2.5742234579
 H    1.2059259568   -3.0664528262   -1.9041957413
 H   -0.4358750124   -1.6225705507   -1.3704908583
 H   -0.2400368616   -0.0488026960   -2.1378381787