19

 C    0.0535927585    0.8239393327   -0.2254683900
 C   -0.4340027125   -0.0974613312    0.9075917511
 C    0.6103959490   -0.4180241895    1.8758863531
 C    1.4900532029   -0.6512369280    2.6672019366
 C    2.5619533408   -0.9949449090    3.6097539517
 N    3.0170287450   -2.3912076890    3.5673899218
 C    1.9468297485   -3.3405626531    3.8677423753
 C    2.4310824570   -4.7192011267    3.7712010321
 N    2.8015661313   -5.8088234917    3.6737366996
 H    0.8700472423    0.3566530755   -0.7825154689
 H   -0.7630917260    1.0348151265   -0.9219459441
 H    0.4185688814    1.7732236773    0.1756278235
 H   -1.2778847370    0.3735328764    1.4277050450
 H   -0.8277613422   -1.0282124677    0.4796765107
 H    3.4373487192   -0.3619629046    3.4264846445
 H    2.2390864313   -0.7791519820    4.6366545911
 H    3.3857017974   -2.5922516234    2.6426421100
 H    1.6029617402   -3.1657587036    4.8951069310
 H    1.0625618532   -3.2380231386    3.2162745060