14

 C   -0.0068260244    1.5513251533    0.0049388824
 C    0.0628169952    0.0429850668   -0.0671738105
 C    0.6550737378   -0.7501113170   -1.2231013086
 C    1.9427597724   -0.0921404235   -1.7064038211
 O    2.4677076527   -0.0248713960   -0.3527572410
 C    1.3258826570   -0.7381310970    0.1353464809
 H    0.9623402538    1.9961294322   -0.2330254909
 H   -0.7545965984    1.9532205263   -0.6869602054
 H   -0.2768099708    1.8753547413    1.0156133310
 H   -0.8011978255   -0.4758945622    0.3455068266
 H    0.1181701913   -1.5351368353   -1.7384263017
 H    2.5634968774   -0.7539046878   -2.3208524266
 H    1.8759750906    0.8944818037   -2.1800806399
 H    1.4966067011   -1.5021345948    0.8857622748