20

 C    0.2917812931    1.4494270339   -0.1207947537
 C   -0.0680578062   -0.0443378757    0.0118677866
 C   -1.5878057344   -0.2038749632    0.1597077828
 C    0.5000966911   -0.8813977729   -1.1748593477
 C    1.8440742056   -1.4800564099   -0.6933013688
 C    1.7305491443   -1.4140625282    0.8048139242
 C    0.7003159774   -0.6517022390    1.1921356324
 C    0.3594949044   -0.3563064117    2.5406299519
 N    0.0454666631   -0.0907608380    3.6242736153
 H    1.3657547550    1.5878035098   -0.2812384008
 H   -0.2405026622    1.8961172994   -0.9673281862
 H    0.0133290314    2.0026014732    0.7819511878
 H   -2.0991924244    0.1752569071   -0.7314914317
 H   -1.8650498878   -1.2547976106    0.2888601550
 H   -1.9628170859    0.3529566272    1.0243341598
 H   -0.1946159354   -1.6952914043   -1.4045394408
 H    0.6055202493   -0.2797481801   -2.0813291516
 H    2.0089397110   -2.4998415113   -1.0575747402
 H    2.7104544394   -0.8942876573   -1.0313282686
 H    2.4260832513   -1.8982667583    1.4805182443