18

 C    0.1360502279    1.5347477741    0.0025067229
 C    0.0431571763    0.0383341605    0.0015638182
 C   -0.9463815193   -0.7487476401    0.8246615532
 C    0.5212661110   -0.9784102895    1.0352923003
 O    1.0459454045   -1.8661784053    0.0390770120
 C    0.6979898308   -0.9101772076   -1.0049272218
 C    1.2462895972   -0.7552890453    2.3128254596
 N    2.3826716298   -1.4910237032    2.4258757059
 O    0.8419696809    0.0348693188    3.1497115803
 H    1.1226736630    1.8721551304   -0.3331388216
 H   -0.6165243224    1.9828263732   -0.6566533564
 H   -0.0235985133    1.9202780709    1.0134854031
 H   -1.4258753485   -0.1849558205    1.6172813653
 H   -1.5315780919   -1.5524294047    0.3856940783
 H    0.0617644785   -1.3597252568   -1.7759308509
 H    1.6040289005   -0.4971481787   -1.4630974721
 H    2.6732522869   -2.0881963251    1.6699782616
 H    2.9552633381   -1.3861010611    3.2461019222