23

 C   -0.1544098823    1.4136582503   -0.1475547333
 C    1.2651611255    0.9839445589    0.1254355412
 C    0.1719311560   -0.0466255204    0.0448793173
 C   -0.2895614460   -0.7604870576    1.2889190514
 C   -1.7063800777   -1.3374165377    1.1552480648
 C   -2.0888317464   -2.1462515966    2.4023176021
 C   -1.0007595685   -3.1831107837    2.7119609942
 C    0.3677150661   -2.5011145806    2.7594670306
 O    0.6513390174   -1.7965009566    1.5630419051
 H   -0.6905718754    1.9238943023    0.6464737668
 H   -0.4122771983    1.7556011004   -1.1435997113
 H    1.9849361361    1.0327197055   -0.6838246984
 H    1.6823410405    1.1977085198    1.1037162274
 H    0.1586249790   -0.6697988265   -0.8453418589
 H   -0.2817562187   -0.0432943715    2.1323309675
 H   -2.4171338162   -0.5219693741    0.9816981330
 H   -1.7323316774   -1.9853859313    0.2694983711
 H   -2.1936517473   -1.4651988476    3.2584943537
 H   -3.0623110349   -2.6294190218    2.2663989204
 H   -1.1960897393   -3.6899735101    3.6641178349
 H   -0.9853448781   -3.9519000126    1.9294407955
 H    0.4077694877   -1.8105288408    3.6212605996
 H    1.1741012781   -3.2309071276    2.8806458854