20

 C   -0.0324335764    1.5094505804    0.1117057518
 C    0.0052205884    0.0226564654   -0.0280702009
 C   -0.0071681869   -0.7959709379   -1.1412885768
 C   -0.0649037576   -0.3780819543   -2.5801833161
 C    0.0460718739   -2.1497905600   -0.6725157835
 C    0.0537715462   -3.3803997531   -1.5214929333
 O    0.1131149443   -4.5224827908   -0.6778772296
 C    0.0887805385   -2.1131996653    0.6980277207
 N    0.0636512615   -0.7939785520    1.0789953692
 H    0.8571188857    1.9002882676    0.6226765710
 H   -0.0770832021    1.9853310077   -0.8701356133
 H   -0.9084700863    1.8503019506    0.6787423207
 H    0.8081907469   -0.7309935604   -3.1442276211
 H   -0.9509230441   -0.7806007416   -3.0880579039
 H   -0.0990023837    0.7097117940   -2.6873363257
 H   -0.8492526232   -3.4089269938   -2.1569437882
 H    0.9145312962   -3.3589589451   -2.2133725976
 H    0.1172642812   -5.3036728519   -1.2374828907
 H    0.1344086714   -2.9135973006    1.4163921320
 H    0.0847230162   -0.4682661589    2.0291752152