18

 C   -0.1041829321    1.5802260892   -0.0729448748
 C   -0.0396410242    0.0623809829    0.0547425697
 N   -1.3736322868   -0.5196777808   -0.0570438101
 C   -1.4828192240   -1.8990416380    0.0154600755
 C   -0.5266803816   -2.9000327069   -0.0024791044
 C   -1.2919630090   -4.0906808611    0.0189153374
 O   -0.7736347151   -5.3373938001    0.0229632844
 N   -2.5936546602   -3.8839882642    0.0527249594
 N   -2.6943761027   -2.5110510947    0.0775997819
 H    0.8984898884    2.0116391469   -0.0110031195
 H   -0.5510336302    1.8725192354   -1.0274768658
 H   -0.7031328659    2.0202381030    0.7331091105
 H    0.5709471653   -0.3552150959   -0.7534229163
 H    0.4510546557   -0.2190265430    1.0008245301
 H   -2.0551831128   -0.0371139383    0.5152669855
 H    0.5442663891   -2.8019688516    0.0008534019
 H   -1.5215765764   -5.9475371257    0.0510272674
 H   -3.5896434376   -2.0928804071   -0.1039523227