17

 N   -0.0205732743    1.4727489228    0.2719140416
 C   -0.0431058785    0.0508448986   -0.0158441439
 C   -1.4443089062   -0.5519628241   -0.1587211035
 C   -1.1988369228   -1.8320845502   -0.9726305127
 N   -0.0501518503   -1.4859745387   -1.8243617921
 C    0.2623237258   -2.2247511729   -2.9614048808
 O    1.1947848513   -2.0396952197   -3.6943816330
 C    0.6540169791   -0.3716557280   -1.3254748335
 O    1.6074388020    0.1631666473   -1.8236727920
 H    0.9464896980    1.7890392895    0.2563789325
 H   -0.4768027116    1.9755235695   -0.4863720578
 H    0.4924773765   -0.4664006353    0.7943131333
 H   -1.9322939181   -0.7488108060    0.7965646884
 H   -2.0791714714    0.1367548532   -0.7283428653
 H   -0.9499810713   -2.6761647581   -0.3171162002
 H   -2.0567250474   -2.1215940485   -1.5847273087
 H   -0.4833776308   -3.0319035193   -3.1177482923