16

 C   -0.0769214433    1.5448800741    0.0473022293
 C    0.0895068794    0.0442269936    0.0203277730
 C    1.3984556945   -0.6723932376   -0.2477897156
 N    2.6212977560    0.0584696289   -0.0530054584
 C    2.6363660842    0.4007176008    1.1716295609
 O    1.6227519421    0.0029652510    1.9824903989
 C    0.7295007700   -0.7411090210    1.1467879464
 C    0.1222233340   -1.8671060051    1.7722937311
 C   -0.4086807427   -2.8228925608    2.2732329742
 H    0.8248205151    2.0561488606    0.3888886678
 H   -0.3058941081    1.9143844743   -0.9571284073
 H   -0.8992604106    1.8297484679    0.7107723990
 H   -0.7567426768   -0.4956493369   -0.3957583553
 H    1.4296717119   -1.5049465983   -0.9398115044
 H    3.3997984519    0.9928458786    1.6614059389
 H   -0.8709379576   -3.6679985700    2.7203718715