17

 N    0.3460666317   -1.2632762331   -0.1461474232
 C    0.1928132673   -0.1199095540   -0.0696908708
 C   -0.0238414611    1.3206381151   -0.0051585097
 C   -0.2711015775    1.8532239105    1.4445266087
 N    1.1475919464    2.2641493954    1.5199761212
 C    1.3082375430    2.1459736514    0.0560136553
 C   -1.0051968965    1.7313649134   -1.0891333985
 C   -2.4392752050    1.8935288566   -0.8355525128
 O   -1.5720464884    3.0292098882   -0.9633640815
 H   -0.9894360947    2.6810308993    1.4265967754
 H   -0.5695135448    1.1129072058    2.1914969724
 H    1.3008199104    3.1947286755    1.8908503179
 H    2.2189021252    1.6318354033   -0.2630909596
 H    1.1997572376    3.0842914166   -0.5026704091
 H   -0.6847670223    1.4724437619   -2.0989060283
 H   -3.1487388310    1.7549181864   -1.6483158796
 H   -2.8327479403    1.7203377676    0.1643335619