20

 C    0.9920792861   -0.2922698515    0.0569207084
 C   -0.3395356803   -0.0416490832   -0.6198712032
 O   -1.1331744151    0.7814497096   -0.2298858522
 C   -0.6349164037   -0.8358111149   -1.9021352491
 O    0.0052402218   -2.0888804860   -1.9908443345
 C   -0.6456083149   -3.1222232527   -1.2713124904
 C    0.1222090108   -4.4120989913   -1.4533747263
 C    0.8012388600   -4.7226157100   -2.7318191005
 N    1.5887777819   -4.3979077378   -1.5228798614
 H    1.8110961996   -0.1845597511   -0.6626849229
 H    1.1195097287    0.4118010060    0.8797837143
 H    1.0469103019   -1.3173862141    0.4371318374
 H   -1.7243733217   -0.9167832829   -2.0143325437
 H   -0.2585644063   -0.2342620869   -2.7400747681
 H   -0.7042023595   -2.8704112007   -0.1991868586
 H   -1.6799784654   -3.2431064899   -1.6321248086
 H   -0.2862172060   -5.2322406816   -0.8657419833
 H    0.8800737630   -5.7523422331   -3.0680971815
 H    0.7491165418   -3.9782943385   -3.5198986665
 H    1.8905184272   -3.4284797993   -1.5989231194