19

 N   -0.1966402193   -1.2304541182    0.0571140679
 C   -0.1079021581   -0.0772810399    0.0580356812
 C    0.0462151530    1.3857369947    0.0559339754
 C   -0.2050852146    2.0285800202    1.4552601627
 C    1.3346748260    2.0670959482    1.6010362679
 N    1.4442036130    1.8683986146    0.1393653051
 C    2.5217077259    1.1165204464   -0.4166585633
 C    2.8697920755    1.3552260607   -1.8634664567
 C    3.7774185138    1.8690161862   -0.7749741871
 H   -0.5177954993    1.7910871280   -0.7904042325
 H   -0.6545069549    3.0174219894    1.3625959081
 H   -0.7631758503    1.4285511267    2.1717278461
 H    1.7920345252    2.9907897678    1.9669677997
 H    1.7198647971    1.2197656058    2.1878116666
 H    2.6485803302    0.0967557116   -0.0445459045
 H    3.1909085002    0.5052119781   -2.4540627367
 H    2.2731673406    2.0850144425   -2.3982066203
 H    3.7789244930    2.9370250099   -0.5911059540
 H    4.7286160828    1.3753306074   -0.6124663554