18

 C    0.0960756982    1.5755736020   -0.1177952164
 C    0.0024504380    0.0874753391    0.0488951164
 C   -1.3265132852   -0.6852974245    0.1831706080
 N   -0.7008409236   -1.5342476922    1.2126842285
 C   -0.9356376218   -2.8569156498    1.4303138296
 O   -1.9367327107   -3.4481427545    1.0899679114
 C    0.5788029531   -0.8508926845    1.1332819772
 C    1.1008536460   -0.8764726592   -0.2863361919
 O    0.8494250480   -1.9298860727   -1.1609531302
 H    1.1256521591    1.9261616901    0.0028362977
 H   -0.2409076213    1.8773548400   -1.1164715123
 H   -0.5257248213    2.0981027419    0.6170126407
 H   -2.1395412976   -0.0761831813    0.5889677789
 H   -1.6685618687   -1.2376068967   -0.6946386783
 H   -0.1124320621   -3.3266943892    2.0107677235
 H    1.1753493384   -0.6456829657    2.0153789855
 H    2.0765372939   -0.3987140614   -0.3978194732
 H    1.3689655675   -2.6928298712   -0.8849781751