18

 O    0.0413097046    0.4709388162   -1.1688533103
 C   -0.0377172252    1.2437314152   -0.2456271708
 C   -1.3705028451    1.9003119536    0.1337830603
 N   -1.2198709020    2.7330186508    1.3222691658
 C   -0.2423421080    3.7874857745    1.1133658428
 C    0.4422864871    4.3005012701    2.3946662870
 O    1.6766218782    3.6280024641    2.0610295600
 C    1.1476280491    3.1824339201    0.7939814131
 C    1.1437638720    1.6612926693    0.6170255884
 H   -1.7285286814    2.4401016558   -0.7630357576
 H   -2.0937798102    1.1021102002    0.3301751033
 H   -2.1138067323    3.1120496395    1.6137325681
 H   -0.5727133083    4.5710023431    0.4138295518
 H    0.5735351034    5.3880596308    2.4518324663
 H    0.0081442183    3.9290643504    3.3294482421
 H    1.6688076861    3.6689759526   -0.0396545469
 H    1.0038091709    1.2164778589    1.6089105105
 H    2.0684954531    1.2768582149    0.1836732060