16

 C    0.2304298077    1.5533841729   -0.0027460090
 C    0.0038192362    0.0843323434    0.0495539344
 C   -1.1123773741   -0.6874564612   -0.0388719539
 C   -0.6013055803   -2.0100994249    0.0908304053
 N   -1.2712266748   -3.2217476676    0.0773200036
 C   -2.6208513382   -3.4351649069   -0.0665261696
 N   -3.4757123493   -2.5024832754   -0.2142096522
 N    0.7071682694   -2.0306025826    0.2437722242
 O    1.0914041093   -0.6906216708    0.2170428453
 H    0.8967759021    1.8177298628   -0.8304009697
 H   -0.7187213431    2.0743226598   -0.1396865998
 H    0.6954959708    1.9112268010    0.9216644030
 H   -2.1385521413   -0.4014932945   -0.1730249084
 H   -0.6789596689   -4.0295042273    0.1886379102
 H   -2.8506985937   -4.5064199596   -0.0362921108
 H   -4.4091430918   -2.8961751691   -0.3007251427