15

 N   -0.2067427304    1.4882046703    0.1432804050
 C   -0.0372717994    0.1162639667   -0.0048860502
 C   -1.0449871020   -1.0215572321   -0.0478471187
 C   -0.4382304600   -1.6376186448   -1.3025429832
 C    0.8806142139   -0.9395955327   -0.8753346170
 O    1.2517722782   -1.6116964482    0.3524925179
 C    0.1233726773   -0.9997731689    0.9685190794
 C    1.9596925175   -0.6578578718   -1.7786229514
 N    2.7961051112   -0.3651139297   -2.5223782651
 H    0.6444679333    1.9748375932    0.4005229127
 H   -0.6249747404    1.9368390416   -0.6635729011
 H   -2.0808236229   -0.9917913423    0.2624888524
 H   -0.3762685317   -2.7260575212   -1.3842123999
 H   -0.8517602223   -1.2000879324   -2.2135097459
 H    0.0185905976   -1.0500813779    2.0430884552