13

 O    0.0019525252    1.4150646979   -0.2774158517
 C    0.0327396938    0.0364343249   -0.0687353483
 C    0.0145557155   -0.4720445403    1.4044588320
 O   -1.2460106750   -1.1427913336    1.1982240810
 C   -1.3932738548   -0.6187831723   -0.1284527515
 C   -2.5012869713    0.3284814048   -0.2599158548
 N   -3.3970270112    1.0492105772   -0.3675781157
 C    1.0216223334   -0.6275864344   -0.9237413275
 N    1.8271980393   -1.1257686350   -1.5855781315
 H    0.9017203542    1.7545539244   -0.3464587748
 H    0.8060562288   -1.1655782466    1.6997265473
 H   -0.0656484695    0.3571492531    2.1153727797
 H   -1.5040984884   -1.4136764500   -0.8729238641