17

 C   -0.1114621998    1.4075276723   -0.0658753433
 N   -0.2007502741   -0.0364644280   -0.2361298274
 C    0.5913320799   -0.6245859960   -0.9938934947
 O    1.6407060109   -0.1697141265   -1.7739553193
 C    1.9359679573   -1.5101429993   -2.2547191821
 C    0.7941035085   -2.0973620696   -1.3700941556
 C    1.2222476046   -2.9959701573   -0.2032747435
 C   -0.3082499317   -2.6834845794   -2.1248628062
 N   -1.1667343166   -3.1624013758   -2.7323430377
 H    0.7021661473    1.8753410844   -0.6314284167
 H   -1.0610653565    1.8576843530   -0.3730885625
 H    0.0206483978    1.6307531531    0.9977932744
 H    1.7905987224   -1.5872651397   -3.3334729051
 H    2.9437684177   -1.8224273242   -1.9712277377
 H    2.0646915078   -2.5423446753    0.3254787617
 H    0.3945910750   -3.1115460888    0.4998013238
 H    1.5186657393   -3.9845096228   -0.5637733282