21

 C   -0.3322009521    1.3529245905   -0.1185575053
 C   -0.0011471446   -0.1233566664    0.0404383252
 C    1.2887760612   -0.6446720057   -0.6634617749
 O    1.8719924437   -1.0560831435    0.5669775933
 C    0.7021540786   -0.6429735719    1.3411816643
 C    1.1014877935    0.3883557002    2.3858868402
 C    0.0289861146   -1.8592514932    1.9647236617
 C    1.0369511594   -1.7599912743   -1.6523362738
 O    1.1176083751   -2.9352773711   -1.4108864663
 H    0.5386687196    1.9905643076    0.0582483684
 H   -0.6912680660    1.5568580812   -1.1329865517
 H   -1.1217205823    1.6573914946    0.5765100389
 H   -0.8829152884   -0.7249765569   -0.1996642036
 H    1.8699454765    0.1458012487   -1.1643393147
 H    1.6220485369    1.2371339186    1.9367229568
 H    0.2258791950    0.7610228426    2.9277499091
 H    1.7780110598   -0.0740470876    3.1114759523
 H    0.6680474596   -2.2932145314    2.7402278536
 H   -0.9263767275   -1.5801203261    2.4232354155
 H   -0.1496178074   -2.6245750435    1.2054631271
 H    0.7195636747   -1.3891777022   -2.6573897060