18

 C   -0.2675400081    1.3427057421    0.1696905714
 N   -0.0364424646   -0.0788292149   -0.0301644003
 C   -0.0745415113   -0.9645493168    1.1183675402
 C   -1.4367568185   -1.0537947153    1.7764829517
 C   -1.5403429765   -1.4436463834    3.2033263060
 N   -1.8596243310   -0.0684939732    2.7855687807
 C    0.2538362659   -0.5483214730   -1.2792407300
 O    0.3248979754    0.1208643268   -2.2875769006
 H    0.4601624271    1.7546957339    0.8810602940
 H   -0.1472032404    1.8350805204   -0.7952162687
 H   -1.2751112719    1.5300143365    0.5541278200
 H    0.2327995332   -1.9602653869    0.7782061368
 H    0.6643498610   -0.6380959719    1.8679004435
 H   -2.2377322521   -1.3460685074    1.1000757963
 H   -2.3867514915   -2.0298186395    3.5480812808
 H   -0.6162780587   -1.6207110947    3.7492141823
 H   -1.0826140090    0.5469743090    3.0176315915
 H    0.4223336910   -1.6436322117   -1.2730473255