15

 O   -0.0214144125   -0.0572098207   -0.3058977138
 C   -0.0122573850    1.1269737186   -0.0728538221
 N   -1.1098189600    1.9292150266    0.0972439407
 C   -0.8647518954    3.3538111420    0.2045842131
 C    0.6668638571    3.4512121872    0.3603051479
 O    1.0430361700    3.7286661393    1.7301184264
 C    1.7603728549    2.6495214525    2.1377236009
 N    1.9496445839    1.6771993338    1.3487522112
 C    1.2285741702    2.0278505901    0.1132115178
 H   -2.0317979234    1.5419233505   -0.0281383660
 H   -1.1983556999    3.8931428658   -0.6914816744
 H   -1.3616168829    3.7967934125    1.0736399537
 H    1.0914461354    4.2403970499   -0.2617830013
 H    2.1326557038    2.7188385019    3.1533745921
 H    1.8856449639    1.9269900899   -0.7531175262