20

 C    0.2622410764    1.5363318324    0.0254303844
 C    0.1481114912    0.0269113234   -0.0370351193
 C   -1.1268530787   -0.5243370625    0.5813122744
 C    0.6409487967   -0.7877930152   -1.2192328638
 C    1.9548088373   -0.2445964671   -1.8076047849
 N    2.5488974706   -0.3376660896   -0.4633625372
 C    3.5634304507    0.3874983380    0.0695589719
 O    4.3358891229    1.0689486424   -0.5724003882
 C    1.3426104225   -0.8864862253    0.1372837169
 H    1.2055246240    1.9080632062   -0.3799938152
 H   -0.5522679717    2.0058958663   -0.5375141254
 H    0.1894032671    1.8825220057    1.0626609093
 H   -2.0093585630   -0.1544955385    0.0477067123
 H   -1.1528668105   -1.6184626960    0.5489078173
 H   -1.2164097566   -0.2165126004    1.6288144889
 H    0.0213589091   -1.5303245071   -1.7037893688
 H    2.4313753219   -0.9304617627   -2.5142641907
 H    1.9508563108    0.7644303684   -2.2304156704
 H    3.6287401210    0.2534210407    1.1696061521
 H    1.3891418384   -1.7024750889    0.8499115065