15

 C   -0.0000241796    1.5414619206    0.0317045446
 C   -0.0019014007    0.0372582859    0.0158961102
 C   -1.1540339333   -0.6775473166    0.0565724416
 N   -2.4247562111   -0.1789672278    0.1626305422
 O   -1.1654086771   -2.0391873113    0.0452467865
 C    0.0492822055   -2.6594083339    0.0000658068
 N    1.1861982680   -2.1123047285   -0.0379541368
 C    1.2667279138   -0.6822592704   -0.0367400562
 O    2.3524914790   -0.1406319580   -0.0804456504
 H    1.0354112471    1.8822888124   -0.0153459513
 H   -0.5362911953    1.9685852884   -0.8264223478
 H   -0.4556496987    1.9464658546    0.9435190616
 H   -2.5457616275    0.7827212992   -0.1123616264
 H   -3.1638968874   -0.7993881158   -0.1313016899
 H   -0.0917017127   -3.7366728588    0.0006602253