20

 C    0.1349981881    1.2744924332   -0.4193613167
 C   -0.1612707397   -0.2043891966   -0.1486489216
 C   -1.6261437230   -0.4967368823    0.1929365312
 O   -2.0478833193    0.1888805415    1.3585482779
 C   -2.5972846924   -0.4244921021   -1.0344004629
 C   -2.5566828760   -1.9657795017   -1.1281869386
 O   -1.6548374826   -2.3464443275   -2.1565044832
 C   -1.9465009827   -2.0095533291    0.3006841695
 H    1.1821513497    1.4160819994   -0.7021033062
 H   -0.4817708419    1.6688544857   -1.2345338842
 H   -0.0382249866    1.8955949276    0.4676036218
 H    0.1060252774   -0.8027116762   -1.0255487041
 H    0.4573942736   -0.5568544238    0.6865241104
 H   -1.8932985251    1.1303465214    1.2275429438
 H   -3.5788148681   -0.0570412464   -0.7269836736
 H   -2.2646317856    0.1039549958   -1.9308720953
 H   -3.5223909730   -2.4712070617   -1.2539050229
 H   -1.4644018035   -3.2841138690   -2.0485727298
 H   -1.1046836146   -2.6908596030    0.4570401824
 H   -2.7047910846   -2.1818041551    1.0683297517