21

 C    0.1387830286    1.6683906203   -0.0120870312
 C    0.0622211862    0.1490989032   -0.0085551978
 C    0.9615028991   -0.6627252640   -0.9904366530
 C    1.3395074021   -1.6492708154    0.1451771701
 C    2.6918739483   -1.3892205855    0.8523604913
 C    2.0454203918   -0.2704995990    1.7166761672
 C    0.6361632426   -0.6592568382    1.1853411781
 C    0.8546141814   -3.0526802446    0.0225227941
 O    0.1416517384   -3.4716188576   -0.8578073818
 H    1.1679880067    2.0268024383    0.0958135608
 H   -0.2482473098    2.0705354391   -0.9548035344
 H   -0.4536462560    2.1011118762    0.8018948393
 H   -0.9799852828   -0.1569440546   -0.1501601025
 H    0.4392176288   -1.1347786886   -1.8238919614
 H    1.8201972623   -0.1045465883   -1.3761493631
 H    3.0068332693   -2.2478747035    1.4548468222
 H    3.5214152574   -1.1064342886    0.1983782514
 H    2.1726520617   -0.3962391971    2.7938981093
 H    2.3590975527    0.7442630088    1.4611313847
 H   -0.0712518567   -1.0142584183    1.9369397424
 H    1.1784594580   -3.7204652226    0.8568135445