19

 O    0.9482572508   -0.2349234267   -1.1001575721
 C    0.0579363924   -0.0781085031   -0.0284123498
 C   -1.2567600280   -0.7627332556   -0.3435778420
 O   -1.4296171695   -1.3575812755   -1.3811500024
 C    0.6694469273   -0.6100478642    1.2809295031
 C    2.0600148487    0.0152844813    1.5857720742
 C    2.0597555087    0.1390056528    3.0894193837
 C    0.8517917424   -0.0572666400    3.6128463218
 C   -0.1852825376   -0.3508937322    2.5540246362
 H    0.4671313456   -0.7502474444   -1.7671049510
 H   -0.1760352592    0.9938053465    0.1217745041
 H   -2.0533140938   -0.6930831067    0.4233870610
 H    0.8048557882   -1.6913153040    1.1648838520
 H    2.8776758000   -0.5992829009    1.1976258561
 H    2.1719554489    1.0000765121    1.1105509807
 H    2.9506968068    0.3953886226    3.6520549998
 H    0.6015092124    0.0137471781    4.6654179748
 H   -0.8591091037    0.5112595486    2.4268661065
 H   -0.8263930905   -1.2029534084    2.8075461732