18

 C    0.1156442285    1.5787715787    0.0321793240
 C    0.0015083307    0.0496223276    0.0068487556
 C    0.6372902703   -0.5280022252   -1.2692995715
 N    0.6754040835   -1.9831703146   -1.2393113133
 C    0.9923708304   -2.7379010391   -0.1473801693
 O    1.0885721202   -3.9509022873   -0.1748127350
 C    1.1568497747   -1.9607591240    1.1355768914
 O    2.0523408046   -0.8343266290    1.1193481688
 C    0.6518196489   -0.5804946426    1.2222820841
 H    1.1653051044    1.8896944290    0.0475060923
 H   -0.3589734691    2.0254473034   -0.8472138376
 H   -0.3708879099    1.9931986729    0.9203410028
 H   -1.0599918656   -0.2335841871    0.0260607138
 H    0.0512331303   -0.2201161646   -2.1398818928
 H    1.6456024120   -0.1098760643   -1.3824494572
 H    0.6303599331   -2.4950501277   -2.1075606839
 H    1.2257083010   -2.5926927694    2.0167809140
 H    0.3289601221   -0.2101104367    2.1958440238