22

 C   -0.1132518029    1.6500176088    0.0005110386
 C   -0.0032552057    0.1170586710   -0.0082873609
 C    0.6926164719   -0.4063644304   -1.2774621153
 C   -0.0430533602   -0.1140624696   -2.5812277875
 O    0.6504848474   -0.7938231393   -3.6169563937
 C    0.7393362187   -0.4158062239    1.2317246088
 C    0.0048773875   -0.1469513150    2.5619032629
 C    0.6960509294   -0.7370054588    3.7061546415
 N    1.2553949871   -1.2089487381    4.6005543561
 H    0.8813917475    2.1105859102   -0.0305335315
 H   -0.6767240252    2.0179484906   -0.8611581269
 H   -0.6250190986    2.0211088160    0.8936064583
 H   -1.0223502974   -0.2990365499    0.0115477982
 H    1.7066765762    0.0082919574   -1.3455316026
 H    0.8073598850   -1.4945404334   -1.2077959887
 H   -1.0867555492   -0.4634441418   -2.5039959570
 H   -0.0749905335    0.9684054109   -2.7757296609
 H    0.2284959854   -0.5795569932   -4.4539552669
 H    0.8815883378   -1.4969686694    1.1302849804
 H    1.7421798544    0.0252812090    1.2819102262
 H   -0.0979078146    0.9274736861    2.7456540187
 H   -1.0112066507   -0.5579841472    2.5222292422