22

 C   -0.0816078882    1.6181536617   -0.0611207618
 C   -0.0003136593    0.0920575293    0.0176808136
 C    0.7677745191   -0.5204030711   -1.1620695623
 N    2.1648549046   -0.0697962045   -1.1147120803
 C    3.0632732077   -0.8289789101   -1.5755480177
 O    2.9447475087   -2.0416950690   -2.1675103748
 C    1.5965030979   -2.4895563593   -2.3926371315
 C    0.6637260710   -2.0604958013   -1.2592594416
 C    0.9922521637   -2.7976902727    0.0472516283
 H    0.9214803325    2.0485164134   -0.1133442563
 H   -0.6327653670    1.9392403809   -0.9526432151
 H   -0.5926730711    2.0324465470    0.8133516687
 H    0.4903126814   -0.2008933025    0.9525215325
 H   -1.0103800871   -0.3382040177    0.0397156674
 H    0.3263514027   -0.1040152553   -2.0808842145
 H    4.1144848599   -0.5492940424   -1.5216422083
 H    1.2561721447   -2.0807522046   -3.3524517346
 H    1.6611743892   -3.5770408993   -2.4842963791
 H   -0.3579649007   -2.3242641265   -1.5612530767
 H    1.9857900196   -2.5345628788    0.4215590113
 H    0.2670645356   -2.5619217745    0.8298568420
 H    0.9711576549   -3.8812740229   -0.1095680991