17

 C    0.0800340511    1.5985989754   -0.0259538786
 C   -0.0212400438    0.0733305101    0.0777283432
 N    0.6542033433   -0.6048216852   -1.0755537029
 C    1.5481452291   -1.7254925525   -0.6494079960
 C    1.6007466637   -1.5105468404    0.8270007956
 C    0.7445994843   -0.5458057283    1.1928492255
 O    0.8219857235   -0.3703449742    2.5379313156
 C    1.7666506115   -1.2919999812    2.9072869947
 N    2.2674157375   -1.9970713137    1.9404186201
 H    1.1277736086    1.9037830865   -0.0876611210
 H   -0.4339336176    1.9506208334   -0.9252077908
 H   -0.3815943174    2.0783421006    0.8438286708
 H   -1.0883298456   -0.2007186612    0.1332313107
 H   -0.0278702759   -0.9235912641   -1.7499181328
 H    1.1392087458   -2.7126182906   -0.9122560108
 H    2.5279635871   -1.6422755340   -1.1369272747
 H    1.9969342847   -1.3388974005    3.9598866314