20

 C   -0.0128973457    1.4620108570    0.0616321203
 C   -0.0214146985   -0.0533053001   -0.0035727089
 C   -1.2796629235   -0.6532939346   -0.6039759254
 C   -1.0901337439   -2.1344740819   -0.9660617671
 C    0.0733261275   -2.7590341952   -0.2346489653
 C    0.6866143844   -2.2531403817    1.0157088617
 C    0.6702057955   -0.7223856164    1.1625418998
 C    1.3488389874   -0.6666490432   -0.1863522048
 N    1.4368445000   -2.1790263022   -0.2928425960
 H    0.9010466679    1.8403992510    0.5309955828
 H   -0.0809505897    1.8971405900   -0.9418316926
 H   -0.8646407263    1.8312847709    0.6449027671
 H   -2.0958667579   -0.5337830979    0.1197143288
 H   -1.5721340748   -0.0825898128   -1.4925664859
 H   -1.9995296507   -2.7068707325   -0.7548571863
 H   -0.8996681679   -2.2455754175   -2.0406149887
 H    0.1398026453   -3.8392422093   -0.3547084974
 H    1.0300923608   -2.9106272120    1.8089759588
 H    0.9157825570   -0.2053547144    2.0812314975
 H    2.2091153430   -0.1024801174   -0.5261545484