12

 C    0.0088899041   -1.2169714407   -0.0046229500
 C   -0.0229037285   -0.0155357002    0.0018455898
 C   -0.0196380837    1.4410663701    0.0091318326
 C    1.4190511092    2.0240975273    0.0001306987
 C    1.4222897343    3.4806989985    0.0073814287
 C    1.3909159239    4.6821462573    0.0138906861
 H    0.0195574369   -2.2786915352   -0.0101789529
 H   -0.5642559125    1.8236131703   -0.8614963038
 H   -0.5497075272    1.8147918278    0.8924774906
 H    1.9636703584    1.6415462877    0.8707580985
 H    1.9491216294    1.6503680102   -0.8832135589
 H    1.3806105556    5.7438667069    0.0201453806