19

 C    0.0260205558    1.5115535210    0.1480643232
 C   -0.0511731470    0.0155499814    0.0349178407
 C    1.1361402455   -0.8522438580   -0.3391415572
 C    0.4953847329   -1.0274308319    1.0185080069
 O    1.1718060314   -0.7525933577    2.1993210657
 C   -0.7879315610   -1.8119271383    0.9169594334
 O   -0.8681579050   -3.1932787157    0.8057156316
 C   -1.9866940255   -0.9592475897    1.2568872442
 C   -1.3219149103   -0.7986501337   -0.0950519752
 H    0.9741033999    1.8190110565    0.6005074528
 H   -0.0504869187    1.9935222410   -0.8333288653
 H   -0.7845088264    1.9011818513    0.7737001150
 H    1.0486407634   -1.6231154091   -1.0999768708
 H    2.0959015342   -0.3427539982   -0.3166963277
 H    1.9269116275   -1.3467333675    2.2602298312
 H   -1.0470345604   -3.5533550624    1.6807088350
 H   -2.9311387101   -1.4954767643    1.2394887023
 H   -1.9222983163   -0.1724499796    2.0034658163
 H   -1.8357476797   -1.0349706252   -1.0197235121