20

 C   -0.3223322571    1.5474798199   -0.0507160824
 C   -0.3590301677    0.0375568856   -0.2822578476
 C    0.6459337514   -0.4775155273   -1.2782013890
 N    1.4397712506    0.3527764274   -1.8373429154
 O    2.3120034338   -0.3051977976   -2.7326179991
 C    0.6784081106   -1.9533803737   -1.5878559234
 C    1.8460475689   -2.7916720872   -1.0070914153
 C    0.7266333932   -3.6191335152   -0.3466468307
 O   -0.2918482828   -2.7202499220   -0.8405457178
 H    0.6550556481    1.8677364644    0.3195285811
 H   -0.5127180772    2.0945520650   -0.9777166835
 H   -1.0816537215    1.8342634360    0.6826517389
 H   -0.2073791935   -0.5028753822    0.6612837486
 H   -1.3556924750   -0.2803783472   -0.6150789993
 H    2.8253415363    0.4269290883   -3.0888784949
 H    0.5480932829   -2.0935904320   -2.6686573060
 H    2.4655439303   -3.3038202666   -1.7425978960
 H    2.4859881441   -2.2455204704   -0.3131733579
 H    0.5968445555   -4.6330799561   -0.7448772241
 H    0.7317330294   -3.6662237792    0.7484037437