18

 C   -0.1634634115    1.5029701997    0.0894017258
 C    0.0155267993   -0.0261997134    0.0038586526
 C   -1.3737595403   -0.6544240077    0.0332911685
 O   -1.9147883889   -1.0413939812    1.0331990468
 C    0.7889723642   -0.4582313420   -1.2674196198
 C    2.2452283745    0.0762669962   -1.3234808266
 O    2.9210676396   -0.3348287454   -2.4862518061
 C    0.8386104838   -1.9205906179   -1.3830065886
 N    0.9324804910   -3.0694926472   -1.4744216036
 H    0.7972031000    2.0177217141    0.1629515108
 H   -0.6911733578    1.8910563819   -0.7890290520
 H   -0.7478075280    1.7570261486    0.9773845991
 H    0.5427025785   -0.3815967916    0.8951814027
 H   -1.8897742519   -0.6895601257   -0.9551588624
 H    0.2665534352   -0.0810471958   -2.1563622342
 H    2.2201469671    1.1675680201   -1.3569714584
 H    2.7719712925   -0.2243281518   -0.4053261315
 H    3.0407891028   -1.2910221709   -2.4473270934