12

 O    0.1058157814    1.3073794105    0.1722838517
 C    0.0721217571   -0.0223225667    0.0200585815
 N    0.0956221288   -0.6943428448   -1.0908362273
 C    0.0398105183   -2.0269447314   -0.6930802266
 C    0.0420890558   -3.1658283362   -1.6064307192
 O    0.0923644644   -3.1103667775   -2.8126839777
 C   -0.0159206136   -2.1158370290    0.6783572062
 N    0.0045336215   -0.8165306888    1.1315562697
 H    0.1515899623    1.6836828753   -0.7165909283
 H   -0.0087788959   -4.1444198163   -1.0734981671
 H   -0.0666699327   -2.9580128437    1.3483650533
 H   -0.0234833475   -0.4979541615    2.0858585238