19

 C   -0.0141069729    1.5702753025   -0.1208860472
 C    0.0192414842    0.0631996643    0.0143183384
 C    1.2936286050   -0.7119507792   -0.2042434821
 C    0.6820627322   -0.6469541678    1.1779309323
 C    1.3722394845    0.0972394590    2.2695733800
 N    0.7109389413    0.1409375618    3.5761079024
 C    1.9832510490   -0.6000363626    3.4523219482
 C    1.9149840866   -2.0331380494    3.6069873030
 N    1.8891925544   -3.1837715325    3.7173709294
 H    0.9348620521    2.0314101827    0.1698079834
 H   -0.2051780583    1.8581847497   -1.1602128898
 H   -0.8037038577    2.0109892559    0.4975986680
 H   -0.8873750827   -0.4238197861   -0.3349994223
 H    1.2634514397   -1.6560625357   -0.7359735417
 H    2.1993753178   -0.1369622823   -0.3754911219
 H    0.1825199493   -1.5442652612    1.5286484231
 H    1.9199753699    0.9852956101    1.9598664476
 H    0.8778183385    1.0237901195    4.0517110729
 H    2.8838067872   -0.1615459787    3.8741747965