17

 O   -0.5722765243    0.4319193093   -0.1373970015
 C    0.1758938778    1.3259186969   -0.4273223799
 C    1.5195445582    1.5828509630    0.2142059250
 C    1.5184843490    2.7131947875    1.2799756505
 C    1.9699250396    1.5804939956    2.2378513075
 O    1.9070389994    0.6011386209    1.1799105631
 C    3.3562381370    1.7283400895    2.8100336615
 C    4.3970804060    0.7233871079    2.5676232617
 O    4.3948589623    1.9711078566    1.8626825630
 H   -0.0815293064    2.0819592103   -1.2082693363
 H    2.2748641945    1.7111184650   -0.5741023761
 H    2.2558740652    3.4983863614    1.1182171970
 H    0.5423929579    3.1483427751    1.4980341025
 H    1.2613574225    1.3423935123    3.0414276101
 H    3.4121745955    2.3386754917    3.7138250912
 H    5.2011641291    0.5982368593    3.2906381086
 H    4.1498040567   -0.1435339124    1.9614049821