16

 N   -0.0584161871   -1.1822694835   -0.1855976974
 C   -0.0445465068   -0.0313621960   -0.0739887466
 C   -0.0092526273    1.4179940067    0.0517838041
 C   -0.5538075914    1.9833263462    1.4064690720
 C    0.6782801470    2.8295002014    1.8733470100
 O    1.1721202119    3.3135620705    0.6160431217
 C    1.4523093690    2.0384508497    0.0491564354
 C    2.2416040645    1.3443413007    1.1496868281
 C    1.7618413658    1.8446298831    2.2883201297
 H   -0.5641290409    1.8507705211   -0.7842797363
 H   -1.4186334306    2.6249539157    1.2295741047
 H   -0.8314351860    1.2029112493    2.1155622593
 H    0.4520518026    3.6563452319    2.5442272486
 H    1.9037141362    2.1306711396   -0.9366039414
 H    2.9535082561    0.5455268526    1.0005519008
 H    1.9863875671    1.5533250209    3.3049213873