18

 N    0.0693806281    1.2299004564    0.4836906649
 C   -0.0398964821    0.1225863579   -0.2904435045
 O    0.8214941801   -0.2265182584   -1.0777253431
 C   -1.3358647025   -0.6966108929   -0.1269014720
 C   -1.9386608418   -1.0400708581   -1.5455146159
 C   -1.2495497442   -2.4258451037   -1.4970898523
 C   -0.9892401423   -2.2305054202    0.0167396238
 C   -2.2635372267   -0.1570245092    0.8479561547
 C   -3.0410957433    0.2831141095    1.6558155675
 H    0.9029198249    1.7879730091    0.4022469766
 H   -0.6576494936    1.4946399641    1.1263287997
 H   -3.0273836386   -1.0974110616   -1.4947135526
 H   -1.6448371774   -0.3651245452   -2.3502475218
 H   -1.8601413570   -3.2853804362   -1.7810328676
 H   -0.3208659906   -2.4329228364   -2.0668092927
 H    0.0155243942   -2.4467960644    0.3816044538
 H   -1.7243731033   -2.7311594002    0.6492803192
 H   -3.7382188637    0.6571648995    2.3644712623