14

 C   -0.0511254781    1.3797299038    0.0741502640
 O    0.0207534438   -0.0527238820   -0.0327225267
 C    0.6330382394   -0.5395675513   -1.1046582325
 N    1.1420627790    0.2104236922   -2.0118723422
 C    1.7559297328   -0.4041844020   -3.0851442502
 N    2.2873545945    0.2407622493   -4.0303596259
 O    1.7910910026   -1.8228103670   -3.1272593454
 N    1.2379241864   -2.6046643088   -2.1419595523
 C    0.6784083570   -1.9926968517   -1.1647209567
 H    0.9528374315    1.8091460281    0.0994224808
 H   -0.5922941127    1.7970756798   -0.7778679978
 H   -0.5815896597    1.5722007247    1.0057902795
 H    2.6834635816   -0.3978290167   -4.7194314503
 H    0.2414222819   -2.6071101486   -0.3864925342