18

 O   -0.0516119956    1.4381203948   -0.1683705431
 C   -0.0223686483    0.0365802651   -0.0830376718
 C    0.3534823024   -0.5252701296    1.3204387864
 C   -1.1626755834   -0.6411367527    1.6194872344
 C   -1.4213080252   -0.6346701507    0.0818890611
 N   -1.7538193355   -1.5858955766    2.5918364055
 C   -2.5725973133   -0.5290575299    3.2503312548
 C   -1.8310637354    0.4959828947    2.3844738756
 O   -1.7790340071    1.6925473205    2.3042409285
 H   -0.5467457986    1.7915949483    0.5870303665
 H    0.5803380931   -0.3084024796   -0.9248947198
 H    0.8080738196   -1.5182602682    1.2634804630
 H    0.9536073631    0.1191803912    1.9673245110
 H   -2.2859418548   -0.0853269736   -0.2989950989
 H   -1.4301191768   -1.6577401933   -0.3080898917
 H   -2.2975527358   -2.3291145128    2.1685092792
 H   -3.6509668928   -0.5507530159    3.0440963449
 H   -2.4235984255   -0.4462141614    4.3321199542