16

 O    1.0616932750    0.3971278082   -0.2879076716
 C    0.1226309545   -0.6528949986   -0.3733498332
 C   -1.2729524433   -0.2345407230    0.0579158155
 C   -2.1474769202   -1.2387980291    0.7407091299
 N   -1.6082391561   -0.1173218761    1.4973042297
 C   -1.8752220714    0.8450294724   -0.7947920014
 O   -1.2553127827    1.3341250982   -1.7231280891
 C   -3.2186995931    1.2866032370   -0.4765213983
 C   -4.3411133969    1.6576762956   -0.2520179650
 H    0.7878651969    1.0462336981   -0.9482196056
 H    0.0714121825   -1.0695870838   -1.3902603118
 H    0.4765366755   -1.4491506748    0.2917539148
 H   -3.2218888278   -1.2127610728    0.5870283545
 H   -1.7235834680   -2.2315982419    0.8740966018
 H   -0.7940000954   -0.3941490671    2.0419684492
 H   -5.3290507895    1.9951338577   -0.0508179296