18

 C   -0.1343539790    1.5083486767   -0.0082374036
 C   -0.0043816809    0.0167288293   -0.0082207723
 C    0.8963374420   -0.8444846830   -0.9492664171
 C   -0.1277582563   -1.9218687468   -0.9889196632
 N    1.1433851099   -2.1322763202   -0.2731841623
 C    0.9192912578   -1.9584774627    1.1718639333
 C   -0.1746210149   -0.9099758268    1.1951859393
 C   -1.0394636664   -1.0800178203   -0.0381324907
 O   -2.4082213164   -0.9531221443   -0.1117509140
 H    0.7839695865    1.9904448077    0.3476148111
 H   -0.3429784176    1.8902637529   -1.0138185723
 H   -0.9549805852    1.8282498317    0.6408403009
 H    1.5922869236   -0.4831001392   -1.6965375826
 H   -0.4371624029   -2.5998089208   -1.7749133907
 H    0.6147877205   -2.9128983513    1.6150963078
 H    1.8486628697   -1.6294434229    1.6479227993
 H   -0.6171681093   -0.5155797804    2.1023729174
 H   -2.8108900611   -1.6816568095    0.3748437098