18

 O    0.0183438251    0.0482533590   -0.0590398129
 C   -0.0156906521    1.2479679490   -0.0084485491
 C   -1.2113721779    2.1973199365    0.0275334206
 C   -1.2488500045    2.7888947473    1.4547960303
 C    0.0686301587    3.5270395243    1.7271134963
 O    1.2167283605    2.7733622524    1.3307098577
 C    1.1493479010    2.2513035210   -0.0011808840
 C    0.6606429118    3.2667310695   -1.0423963446
 N   -0.8351801841    3.2458767056   -0.9503918803
 H   -2.1538852487    1.7175228118   -0.2391529332
 H   -2.0882197735    3.4858831679    1.5521376797
 H   -1.3911820904    1.9761077361    2.1760190498
 H    0.0528662637    4.4962957438    1.2114707571
 H    0.2033711836    3.7185996921    2.7945416696
 H    2.1223329394    1.8113178667   -0.2158458656
 H    1.0519523493    4.2706338352   -0.8457132795
 H    1.0070334909    2.9614949815   -2.0361941928
 H   -1.2298759728    3.0180268700   -1.8542944691