17

 C    0.0683517897    1.2981321970    0.5805522768
 C   -0.1203654369    0.0824164808   -0.3275236807
 C   -1.5490690052   -0.4547040223   -0.2769948492
 O   -2.5125479546    0.2542462049   -0.0453100163
 N   -1.6691211025   -1.7896452230   -0.5484380526
 C   -2.9592063311   -2.4642256444   -0.5292093968
 C   -2.9357098379   -3.6834923346    0.2730024286
 C   -2.8977775601   -4.6998043709    0.9127129983
 H    1.0601692098    1.7364835270    0.4401346059
 H   -0.6890607644    2.0521271521    0.3580072219
 H   -0.0378863307    1.0231466578    1.6340827824
 H    0.0794673114    0.3599605320   -1.3710675425
 H    0.5933299519   -0.7120005449   -0.0793012766
 H   -0.8426223781   -2.3501892536   -0.6741201347
 H   -3.6715419747   -1.7374887011   -0.1253865375
 H   -3.2898776873   -2.7030110277   -1.5496641283
 H   -2.8794829893   -5.5913438391    1.4894384414