14

 O   -0.1020115678   -0.0256875359    0.4117256810
 C   -0.0020297732    1.1096342991    0.0064920759
 C    1.2278565589    1.8595118135   -0.0126616540
 C    2.2404228944    2.5186035736   -0.0403841108
 C    3.4437972784    3.2842655430   -0.0600308580
 C    3.7951334455    4.1174213874   -1.2759081454
 C    3.3846446359    4.8240621903   -0.0086884678
 C    2.1146485749    5.4894544649    0.0638433470
 N    1.0963964030    6.0337883842    0.1253182145
 H   -0.8746670788    1.6670521119   -0.3884573625
 H    4.2794284177    2.8572316862    0.4856711248
 H    4.8388814885    4.1707410168   -1.5608265879
 H    3.0867027777    4.1158706800   -2.0943479219
 H    4.1685039551    5.2943884550    0.5748174251