12

 O    0.0217329235    1.3902909496   -0.0192126514
 C   -0.0720535887    0.0137482975   -0.0165991155
 C   -0.4787966019   -0.7803037254    1.1669588879
 O   -1.4597277074    0.0104400031    1.8952012431
 C   -2.3899809336   -0.1365574162    0.8481035119
 O   -3.5279581377    0.1877803679    0.8517500821
 C   -1.3901506551   -0.8126877240   -0.0592236130
 O   -1.6406582034   -1.8168418002   -0.9528285369
 H   -0.3935837813    1.7113515267    0.7924532125
 H    0.6797894018   -0.4456485556   -0.6546141607
 H    0.0339043958   -1.5614779244    1.7110983305
 H   -1.7240980019   -1.4363356790   -1.8347553105