22

 C   -0.3243884482    1.3840693072    0.1662373471
 N   -0.0965237725   -0.0488648371    0.2567642221
 C    1.1689993406   -0.5723344147   -0.2597341202
 C    0.8979518766   -0.5862016197    1.2002128656
 C    1.6287877292    0.2730306289    2.2366928325
 C    1.5104723058   -0.5225839896    3.5642265634
 C    0.2730977784   -1.4125074027    3.3703786099
 C    0.4105155804   -1.8685772980    1.9078138830
 O   -0.7422795238   -2.4081128540    1.3202532874
 H    0.5910823992    1.9883476876    0.2576818039
 H   -0.7814637896    1.6064051185   -0.8029898788
 H   -1.0225568168    1.6966463078    0.9494834382
 H    1.0974997785   -1.4895257028   -0.8400796265
 H    1.8935366136    0.1514809996   -0.6321817733
 H    2.6691542190    0.4658539684    1.9612931106
 H    1.1429454567    1.2494078526    2.3358117210
 H    2.3984900108   -1.1497455225    3.7032307363
 H    1.4419545683    0.1318759247    4.4365935975
 H    0.2178371940   -2.2475076680    4.0730854666
 H   -0.6493123587   -0.8265523220    3.4708021798
 H    1.2076685270   -2.6261241702    1.8513132242
 H   -1.1037437285   -1.6799155940    0.7838408696