25

 C    0.0217731501    1.6001956801   -0.0135465817
 C    0.0240216027    0.0697081801   -0.0514571206
 C    0.7905700404   -0.4802507844   -1.2636436700
 C    0.8429280912   -2.0065032903   -1.2154399043
 O    1.4115423134   -2.4814807851   -0.0076805870
 C    0.7526571147   -2.0663572247    1.2000373481
 C   -0.6161705154   -2.7571732554    1.3374175098
 C    1.6820186951   -2.5445471073    2.3174904407
 C    0.6308775816   -0.5262606387    1.2299157690
 H    1.0430452580    1.9918595889    0.0621305941
 H   -0.4285059336    2.0187092202   -0.9201812896
 H   -0.5427851159    1.9763065915    0.8466309415
 H   -1.0199038406   -0.2656101708   -0.1341963193
 H    0.3239135913   -0.1542913653   -2.2013609882
 H    1.8158294905   -0.0865440158   -1.2554979362
 H   -0.1676392343   -2.4196786871   -1.3669179563
 H    1.4773606495   -2.4044416331   -2.0138035697
 H   -0.4957497514   -3.8391578344    1.2307789954
 H   -1.0470206655   -2.5535285076    2.3227953733
 H   -1.3378748356   -2.4212000621    0.5888201108
 H    2.6802597400   -2.1185086983    2.1844957090
 H    1.2996350593   -2.2433851672    3.2976296441
 H    1.7711433354   -3.6346935412    2.2988657019
 H    1.6379940502   -0.1088329288    1.3624053330
 H    0.0454590587   -0.2232015732    2.1066574322