18

 C    0.1003891614    1.4737849213    0.0988233422
 C   -0.0399029141   -0.0043515291    0.0209981947
 C   -1.1137410545   -0.8271756840   -0.1424563097
 C   -0.6079514661   -2.1705091442   -0.1360369569
 N   -1.3509946565   -3.3536376573   -0.2053314940
 C    0.7452202374   -2.0655225291    0.0310469374
 C    1.8121684591   -3.0982897631    0.1125424244
 O    1.6471791099   -4.1156606665   -0.8839980898
 O    1.0977657944   -0.7361503128    0.1259345904
 H    0.7474949170    1.8602116137   -0.6971685249
 H   -0.8796111549    1.9461571445    0.0020179025
 H    0.5380847952    1.7856194815    1.0540799056
 H   -2.1430032514   -0.5196660336   -0.2510530981
 H   -2.1728706217   -3.2744532122   -0.7891481631
 H   -0.7786216210   -4.1333062167   -0.5074126981
 H    2.7945654699   -2.6093730160    0.0428623609
 H    1.7885426805   -3.6478127000    1.0617599318
 H    1.6148492654   -3.6653046962   -1.7356690554