23

 C   -0.0043347141    1.5731017045    0.0079515018
 C    0.1160168792    0.0643431298   -0.0517501267
 C    0.6914559950   -0.7230987140   -1.2073996345
 C    1.9062941917   -0.0320270832   -1.7930273689
 C    2.5606382963   -0.3834438648   -3.0945098759
 C    1.9643295757    0.9934102689   -2.8903035767
 C    2.6028143245   -0.0222144096   -0.4177566686
 C    1.3725044194   -0.7389244988    0.1764826015
 C    1.4678426216   -1.8427177107    1.1911956657
 H    0.8481111097    2.0748273131   -0.4555119138
 H   -0.9059714114    1.9103661890   -0.5156288368
 H   -0.0751160936    1.9197959311    1.0452786927
 H   -0.7485076051   -0.4442711872    0.3750549696
 H    0.1325883050   -1.5127524227   -1.6997183216
 H    3.6423787001   -0.4740413738   -3.1178067024
 H    2.0431916129   -1.0694181770   -3.7583923393
 H    1.0477411298    1.2379995411   -3.4175752787
 H    2.6478390336    1.8290342717   -2.7747468216
 H    3.4955722893   -0.6549336125   -0.4000405368
 H    2.8587573309    0.9525558526    0.0124427929
 H    1.7574564158   -1.4556574876    2.1765334093
 H    0.5077827450   -2.3560792121    1.3102398453
 H    2.2142775888   -2.5915749177    0.9006715435