21

 C    0.0421145171    1.5591770631    0.0541823140
 C    0.0736956719    0.0429351994   -0.0183231860
 C    0.7799689343   -0.5546697418   -1.2618279838
 C    1.3100176895   -1.8963601134   -0.7332552573
 C    2.8210533564   -2.1693129862   -0.5810499240
 C    3.5133203842   -1.0757645055    0.1812043125
 C    2.7108090002   -2.0826618657    0.9492620994
 C    1.2112664686   -1.7784947067    0.8161837898
 O    0.7978955587   -0.4574567570    1.1132405326
 H    1.0574091627    1.9663734174    0.0130684140
 H   -0.5316159699    1.9697611153   -0.7826911137
 H   -0.4232745643    1.8911958518    0.9863620790
 H   -0.9597517423   -0.3431477218    0.0207510127
 H    0.0903091666   -0.6632579468   -2.1032172989
 H    1.5947787427    0.1026424610   -1.5818189715
 H    0.7744059219   -2.7569192121   -1.1373312590
 H    3.3767690688   -2.8856355341   -1.1738326352
 H    4.5892982771   -1.1897150021    0.2640989810
 H    3.1780192649   -0.0447843123    0.1299536522
 H    3.1495127980   -2.7201775760    1.7063063533
 H    0.5653908929   -2.5174049264    1.3052180591