18

 C    0.3108639080    1.5264883089   -0.1034509632
 C    0.1885114085    0.0777541786   -0.0516492107
 C    0.0788769119   -1.1199593563    0.0053255839
 C   -0.0287060141   -2.5501465185    0.0311307793
 N   -0.4999189517   -3.1926311892    1.2754775440
 C   -1.3580024119   -3.2684244322    0.0749880487
 C   -2.6134308184   -2.5747328525    0.0941538667
 C   -3.6772787833   -2.0111037489    0.0759001349
 C   -4.9576068774   -1.3202969526    0.0703685026
 H    1.3476726699    1.8331008303   -0.2810779378
 H   -0.3031631408    1.9506630161   -0.9057511131
 H   -0.0128912661    1.9825024058    0.8386407607
 H    0.7448429451   -3.0733743954   -0.5291068074
 H   -0.0166922117   -4.0792604682    1.4009858795
 H   -1.3722109218   -4.2173126839   -0.4592596308
 H   -5.0184938184   -0.5987958921   -0.7520463995
 H   -5.7899438794   -2.0238569937   -0.0425652687
 H   -5.1123210185   -0.7711741963    1.0056923911