15

 O   -0.0854224312    1.3563479880   -0.2412896487
 C   -0.0293760508   -0.0242306070    0.0064339426
 C   -1.4197044555   -0.6617743491   -0.0674020901
 C   -1.5670130627   -0.9322079630   -1.5724531347
 O   -0.2340447429   -1.2016043401   -2.0442935929
 C    0.6959961009   -0.7170736830   -1.1902423304
 O    1.8737592580   -0.8006879561   -1.3723902031
 C    0.7252083824   -0.2978068845    1.2929945629
 O    1.2356559890    0.5970784194    1.9169170642
 H    0.5350423159    1.7576669511    0.3897585202
 H   -1.4352815610   -1.6070369194    0.4860722944
 H   -2.1881692123    0.0014789862    0.3307087621
 H   -2.1811105288   -1.8037834652   -1.8044923541
 H   -1.9572653558   -0.0610342878   -2.1069632633
 H    0.7857534448   -1.3554680995    1.6157215407