21

 C   -0.1225582980    1.2215622423   -0.7218085413
 C   -0.2079515963   -0.2109711033   -0.1891036986
 C   -1.6043768007   -0.5982288566    0.3113899420
 C   -2.6529303477   -0.8019260298   -0.8244641891
 C   -2.5501425924   -2.3124184677   -0.5876100215
 O   -2.9074543836   -3.2751454054   -1.2020798453
 C   -1.7294021026   -2.1182683885    0.6947737919
 O   -2.1256041266    0.3028956204    1.2694382986
 C   -1.4180690067    0.3771372357    2.4896210794
 H    0.8931803514    1.4527192755   -1.0554607413
 H   -0.7944521670    1.3733424564   -1.5730219501
 H   -0.4036547102    1.9448919787    0.0481506305
 H    0.0810494657   -0.9227191698   -0.9724641036
 H    0.5187274948   -0.3533948138    0.6205319412
 H   -3.6309249137   -0.4072619579   -0.5323223466
 H   -2.4066922975   -0.4462052204   -1.8275796136
 H   -0.8174667102   -2.7142357148    0.7847599115
 H   -2.3477693690   -2.2674328630    1.5861107550
 H   -2.0167405769    0.9956302099    3.1626146515
 H   -1.2849305909   -0.6134700982    2.9488068173
 H   -0.4292293018    0.8422673303    2.3768969721