18

 O    0.0485161935    1.3256358042   -0.2300088755
 C    0.0272069888   -0.0787595541   -0.0370489302
 C   -1.3978144823   -0.6413336906   -0.0325336782
 C   -1.4497154302   -2.1416987070    0.2409448413
 C   -2.8541937282   -2.7581428350    0.1333125218
 O   -2.8787146742   -3.2855990625   -1.1951729091
 C   -1.5973444370   -3.4182748910   -1.6472951173
 N   -1.2241550872   -3.9609795011   -2.7173915871
 O   -0.7259955807   -2.8663319686   -0.7696701597
 H   -0.1831258676    1.5022950952   -1.1471909152
 H    0.6333265733   -0.6043804957   -0.7865645392
 H    0.4954874603   -0.2527339100    0.9388157944
 H   -1.9822339533   -0.1215766822    0.7364286153
 H   -1.8820008325   -0.4385183276   -0.9976498278
 H   -0.9755671426   -2.3740362769    1.1991859986
 H   -3.0100925477   -3.5709494526    0.8513766934
 H   -3.6569241094   -2.0246590813    0.2346434819
 H   -2.0255302032   -4.3474716333   -3.2102701375