15

 C   -0.0095470207    1.5151064283    0.0780864850
 C   -0.0018364152    0.0287871822   -0.0289461987
 C   -0.0474532596   -0.7590087509   -1.1275124179
 O   -0.0165142816   -2.0785327683   -0.7171208624
 C    0.0466629554   -1.9903864222    0.6167506819
 N    0.0932110380   -3.1407702197    1.3792022985
 C    0.0849464524   -4.4579820120    0.9644183436
 O    0.0339629014   -4.8441251891   -0.1741243898
 N    0.0591802041   -0.7884457628    1.1033011369
 H    0.8940372696    1.8743546429    0.5817142890
 H   -0.0613210723    1.9789647786   -0.9099885266
 H   -0.8664303814    1.8590554505    0.6668147172
 H   -0.0995268654   -0.5966488330   -2.1893550417
 H    0.1389415867   -2.9560507453    2.3705747619
 H    0.1328230787   -5.1305118894    1.8425595732