15

 O    0.2982083798    1.3811862483   -0.2005853629
 C    0.0900027795    0.0195296115   -0.0880591248
 C    0.3166588881   -0.7334313881   -1.4323797057
 O    0.2064515788   -2.1404715497   -1.2213121498
 C   -1.0006932667   -1.3772386826   -1.3680061511
 C   -1.3183502755   -0.7428053895    0.0127405192
 C   -0.8123173982   -1.5410221514    1.2488249480
 C    0.4509831883   -0.6562884411    1.2458159151
 O    1.2259712336   -0.3129463338    2.0945650558
 H    0.5741948609    1.7075635459    0.6653677714
 H    0.9266724683   -0.3778216604   -2.2553588622
 H   -1.6854799928   -1.6816061989   -2.1507124564
 H   -2.2419858765   -0.1765912592    0.1048090134
 H   -1.3996971077   -1.4213608375    2.1625467025
 H   -0.6183109898   -2.5992085134    1.0691252776