20

 C   -1.5384509394   -0.8662565325   -0.1012306527
 C   -0.1521361736   -0.2134735154   -0.0726967392
 C    0.6787157313   -0.4872343689    1.2074007840
 C   -0.0251329858   -0.0359220435    2.5081724975
 C   -0.4010256794    1.3716088312    2.5015648336
 C   -0.6992751340    2.5364642760    2.4832571716
 C    1.0048605311   -1.9795980410    1.3133600496
 N    2.1482962328   -2.3662461523    0.6764546057
 O    0.2909805108   -2.7727093565    1.9003962708
 H   -2.1955400321   -0.4370370185    0.6608449140
 H   -2.0134148128   -0.7006760891   -1.0729937441
 H   -1.4818632022   -1.9437897358    0.0746222317
 H    0.4320337985   -0.5541633338   -0.9364164358
 H   -0.2551668418    0.8718751564   -0.1745032088
 H    1.6164632792    0.0740116433    1.1136310538
 H   -0.9015480765   -0.6704090017    2.6706688022
 H    0.6404100807   -0.2317670247    3.3573875947
 H   -0.9728279451    3.5622948268    2.4834097315
 H    2.7232897274   -1.7233461131    0.1616709339
 H    2.3675408407   -3.3485292770    0.6432671462