16

 C    0.2433394660    0.8865053814    0.3675471416
 O   -0.1810256819   -0.0705269372   -0.5965004477
 C   -1.3986335144   -0.6441168233   -0.2982671242
 C   -1.6012468014   -2.0950849191   -0.6936385863
 N   -0.4258378153   -2.8824177199   -0.8913358859
 C    0.4063836391   -2.8447694261    0.2155089827
 O    1.5237005296   -3.2561933666    0.3208881506
 O   -0.2836412786   -2.2447408867    1.2505026240
 C   -1.4973796554   -1.7200700615    0.7690214937
 H    1.2147796281    1.2563096440    0.0344753608
 H   -0.4606684856    1.7284398745    0.4278471134
 H    0.3467454850    0.4296759299    1.3584745847
 H   -2.2741538321    0.0023676963   -0.3881360884
 H   -2.5136683571   -2.4301216538   -1.1725081469
 H    0.0310500238   -2.9324569179   -1.7883047384
 H   -2.3058169299   -1.7719918039    1.4869604061