21

 C   -0.0215181315    1.7368632902    0.1275690267
 C   -0.0666807646    0.2200968928    0.1214816103
 C   -1.3978650278   -0.3525784900   -0.3771219085
 C   -1.7022452426   -0.0012958983   -1.7620302848
 C   -1.9382932022    0.2957649633   -2.9028399091
 C    1.1812708184   -0.5591536822   -0.2149963196
 C    0.6314375657   -0.5928564230    1.1924724769
 C    1.3880789310    0.0225611628    2.3406394599
 O    2.3158227224   -0.9478337927    2.8124241449
 H    0.9613674580    2.1183058024    0.4131306767
 H   -0.2501537608    2.1223814367   -0.8712180496
 H   -0.7604024480    2.1557726532    0.8217503930
 H   -1.3834291295   -1.4450052232   -0.2801077862
 H   -2.2119647298   -0.0001362443    0.2717482141
 H   -2.1526134733    0.5507838841   -3.9109064892
 H    1.0927904270   -1.4486133066   -0.8296560579
 H    2.0955658741    0.0025007594   -0.3792048635
 H    0.1297061037   -1.5134427200    1.4819431789
 H    1.9072193739    0.9363934829    2.0158674445
 H    0.6856429450    0.3130392994    3.1392112248
 H    2.7546801207   -0.5864666972    3.5883524977