25

 C    0.0808708403    1.4336713614   -0.2716065454
 C    0.0137722602   -0.0323565417    0.1654532834
 C    0.2028885164   -1.0317835938   -1.0169920921
 C    1.5445871892   -1.7366860082   -0.7593275698
 O    2.6350754655   -0.9400571735   -1.2264648616
 C    1.6482878082   -1.8043244727    0.7832274333
 C    0.7145640799   -2.9051138765    1.3206992326
 C    3.0756802046   -2.0696885027    1.2755667249
 C    1.1285529644   -0.4018376849    1.1838094976
 H    1.0374812172    1.6379618092   -0.7649530239
 H   -0.7227377467    1.6806215473   -0.9743751493
 H   -0.0065082500    2.1101308702    0.5857677711
 H   -0.9675524450   -0.2061463062    0.6202101025
 H   -0.6095537795   -1.7644651477   -1.0520725209
 H    0.2058038762   -0.5278161122   -1.9907224767
 H    1.5892858518   -2.7379398142   -1.2145946012
 H    2.5085444769   -0.7948408773   -2.1687642698
 H    1.0054342503   -3.8904192023    0.9395591641
 H    0.7689530135   -2.9434029925    2.4137688941
 H   -0.3328068854   -2.7385479570    1.0516812464
 H    3.7750300683   -1.3363846769    0.8709234567
 H    3.1165791415   -2.0235460141    2.3695865644
 H    3.4187767166   -3.0664068347    0.9747493725
 H    1.9489461872    0.3188115262    1.1056848738
 H    0.7731827484   -0.3762592251    2.2191671434