17

 C    0.0550709028    1.5622807711   -0.1764938764
 C    0.0935164349    0.1088544374   -0.1161053729
 C    0.1211887059   -1.0942870912   -0.0746384370
 C    0.1375366250   -2.5380635769   -0.0232744188
 C    0.3606696404   -3.2702386840    1.3362050751
 C    0.4256497921   -2.4501802810    2.6014468210
 O   -0.9418881381   -3.9394639936    1.1790869351
 C   -1.2222053440   -3.2795759910    0.0165213936
 O   -2.2018080326   -3.3465187914   -0.6487143767
 H    0.6409070249    1.9402827554   -1.0212358526
 H   -0.9718909369    1.9248384598   -0.2932034141
 H    0.4631305276    2.0073477876    0.7374791692
 H    0.7630411737   -2.9553884083   -0.8198964095
 H    1.1504922878   -4.0248000752    1.2965980224
 H   -0.3636181972   -1.6947140952    2.6184909367
 H    0.3160789384   -3.0979451871    3.4757189831
 H    1.3915714953   -1.9400074262    2.6663006618