16

 O   -0.0069344296    0.0134813813   -0.2100476718
 C   -0.0311467233    1.1870896443    0.0148245363
 C   -1.0584167464    2.3226742401    0.0512504205
 C   -0.7719937939    2.8814748555    1.4814864552
 C    0.7621643026    3.0375141032    1.3001628607
 O    1.8853649879    2.2688134668    1.8447878320
 C    2.4131530342    2.1353375725    0.4804485694
 C    0.9763519758    2.3431881306   -0.0111483503
 N   -0.0485393365    3.0494442543   -0.8861957865
 H   -2.0830716332    2.2391816734   -0.3042206581
 H   -1.2527074202    3.8400808762    1.6838771563
 H   -1.0804113132    2.1584523776    2.2411301386
 H    1.0448440142    4.0961622542    1.2764411532
 H    3.1193930719    2.9399381163    0.2461121316
 H    2.8548380436    1.1519056079    0.3043284619
 H   -0.1281931539    2.5970419357   -1.7994385989