16

 C   -0.0271415448    1.5973491682    0.0752251789
 C    1.4779841079    1.2626748463    0.0324000452
 C    1.1695067477    0.0433446698    1.0090786468
 C    0.0822228017    0.0450297492   -0.0984245316
 O   -0.8987652973   -0.7482947636   -0.6861904531
 C   -0.7525049686   -0.4165693857   -2.0909928533
 O    0.4060267919    0.4202341028   -2.2920972878
 C    1.1721664097    0.2321145549   -1.1140514911
 H   -0.4205743579    1.9552860115    1.0284995764
 H   -0.4253531820    2.1522026818   -0.7733252031
 H    2.3183658471    1.9471024682    0.1224864250
 H    1.8822245618   -0.7844390491    1.0075900835
 H    0.8624871012    0.3217184644    2.0184674677
 H   -0.6509473308   -1.3599725701   -2.6423620926
 H   -1.6276402178    0.1426372773   -2.4393002516
 H    1.9117487403   -0.5664955460   -1.2403175495