19

 C    0.3612192513    1.6132728614   -0.3585468722
 C    1.0550512327    0.3134534990   -0.7556963329
 C    0.0889893840   -0.7899813354   -1.1388145001
 O   -1.1110892232   -0.6672355377   -1.1288504932
 C    0.7293805954   -2.1458930131   -1.5728653118
 O    1.7499808234   -1.9574471172   -2.5400864737
 C    1.2393957713   -1.6529031046   -3.8260225451
 C    1.2910330095   -2.8170132545   -0.4064765642
 C    1.7195140316   -3.3410315040    0.5862134561
 H   -0.2523809348    1.9966032096   -1.1781814228
 H   -0.3015584756    1.4579684441    0.4966410648
 H    1.0973312908    2.3766007538   -0.0921880815
 H    1.7466067217    0.4566003163   -1.5948988484
 H    1.6841134245   -0.0760048314    0.0556591068
 H   -0.0937528944   -2.7488467659   -1.9856897285
 H    0.5862615520   -2.4556938498   -4.1976802376
 H    0.6705691976   -0.7117533877   -3.8385520170
 H    2.1003088534   -1.5546788156   -4.4901332043
 H    2.1031278587   -3.8196209273    1.4535808256