15

 N   -0.1066006558    1.3112034696    0.0225264508
 C   -0.0285323019    0.0427642422   -0.0323094590
 N    1.0679149100   -0.7897068846   -0.1395540737
 C    0.7976212522   -2.2153736315   -0.1015017856
 C   -0.7342397864   -2.2798886717   -0.0513393537
 O   -1.4007783320   -3.2784193981   -0.0735568443
 C   -1.2280127197   -0.8580704294    0.0302602274
 C   -2.4762694690   -0.4976391578    0.7328635120
 O   -2.4150615995   -0.5199943006   -0.6807445097
 H    0.8112482305    1.7549128630   -0.0383825052
 H    2.0042800938   -0.4237980901   -0.0903111204
 H    1.1624585299   -2.7476135383   -0.9888737474
 H    1.2159557830   -2.7137421375    0.7837439958
 H   -3.0600289435   -1.2945888095    1.1902674375
 H   -2.5184904518    0.4915077443    1.1837575756