18

 O    0.1957628601    1.4078198436    0.2014346371
 C    0.0303360976    0.0266803944    0.0420574145
 C   -1.3980110200   -0.5887901751   -0.0198776555
 C   -2.5123132369    0.2187014136   -0.7161458127
 C   -2.0050222702   -0.4067949007   -2.0616866498
 C   -1.1225669736    0.4811566345   -2.8924474139
 C    0.1526889126    0.3605737670   -2.5175105324
 C    0.2740541559   -0.6127177518   -1.3796759072
 N   -1.0583781571   -1.3161463494   -1.3076929015
 H   -0.1644211935    1.8375928454   -0.5841710787
 H    0.6352977158   -0.4420939747    0.8223115647
 H   -1.6953395125   -1.1948690131    0.8397142971
 H   -3.5152651388   -0.1062579702   -0.4311589259
 H   -2.4627541246    1.3074865437   -0.6325655086
 H   -2.7663877667   -0.9362865284   -2.6427595794
 H   -1.5019592027    1.1330061347   -3.6713014735
 H    0.9961445368    0.8968364660   -2.9360842632
 H    1.1377848977   -1.2803888396   -1.4509780211