19

 C    0.1038563003    1.5011329321    0.0620258142
 C   -0.1360885706    0.0066020130   -0.1205344271
 N    0.6659324137   -0.5182746075   -1.2179191203
 C    0.7776352241   -1.8629066826   -1.4164676157
 N    0.3335874475   -2.7595738601   -0.6086506496
 C    0.7730379468   -4.0788859550   -1.0837133947
 C    1.4786055554   -3.8560627965   -2.4157579283
 O    0.6361162469   -3.2488955925   -3.4022339917
 C    1.4992129818   -2.4019080675   -2.6221135959
 H    1.1574608410    1.7077005512    0.2727552185
 H   -0.1804313048    2.0644663987   -0.8348719384
 H   -0.4956733309    1.8834824809    0.8926742887
 H    0.1454623524   -0.5504794540    0.7773589701
 H   -1.2047355823   -0.1964494022   -0.2837137503
 H    0.7169329471    0.0563996031   -2.0454720965
 H    1.4562115132   -4.5365681976   -0.3556287406
 H   -0.0866980538   -4.7514254936   -1.1879554967
 H    2.2443559047   -4.5258869678   -2.7973478343
 H    2.2562125376   -1.8466314821   -3.1694880611