19

 C    0.0551725498    1.5431233973    0.0733724111
 O    1.5008304201    1.4787275721   -0.0305878550
 C    1.4713357017    0.0435005736   -0.0144445222
 C    2.4241733552   -0.7310783328   -0.8470418635
 C    2.8892966471   -1.7910994161   -0.1803595913
 C    2.3479005853   -1.9060176001    1.2321500787
 C    1.4666382244   -0.6461347068    1.3896360186
 C   -0.0873313613   -0.7825651300    1.2965301903
 C   -0.0915823032    0.0106697195   -0.0342183304
 H   -0.2722376931    1.9875580519    1.0226620563
 H   -0.3732705217    2.1172558928   -0.7559178976
 H    2.6653557073   -0.4665359519   -1.8699645001
 H    3.5710459930   -2.5286943462   -0.5918588270
 H    1.7638147938   -2.8281525246    1.3547125430
 H    3.1584957705   -1.9629827067    1.9692762416
 H    1.8113325690    0.0072597493    2.1930628884
 H   -0.4142863148   -1.8183651704    1.1652978104
 H   -0.6607014993   -0.3444939727    2.1187782985
 H   -0.6833007537   -0.3656564983   -0.8685792198