14

 O    0.1892442786    1.3568301443   -0.4446099386
 C    0.1214279968    0.0409040761    0.0503542839
 C   -1.3047618768   -0.4832648837    0.0778328008
 O   -1.8318948095   -1.1186941522   -1.0966405759
 C   -1.6163971438   -1.9409940326    0.0376209347
 C   -0.5461800276   -2.9132414023   -0.0324496186
 N    0.2938560949   -3.7060240784   -0.0620805291
 C   -2.3272572171    0.3703166341    0.7769539143
 O   -2.0412593849    1.3524990762    1.4135949436
 H   -0.2258181883    1.9259608096    0.2147126132
 H    0.7171665025   -0.5897118817   -0.6142221194
 H    0.5392783195   -0.0460742546    1.0645005231
 H   -2.5180099079   -2.3081175566    0.5269109206
 H   -3.3760384364    0.0295518516    0.6453069276