25

 C    0.0322207968    1.6279827326    0.0144876474
 C    0.0660546859    0.0971671476   -0.0283207369
 C    0.5934822321   -0.5194356613    1.2749910085
 C    0.7512375674   -2.0456658578    1.2642101078
 C   -0.5913978786   -2.7578234260    1.0772922151
 C    1.8504684971   -2.6560266832    0.3113562577
 C    2.5209861316   -3.3137031408    1.5229434281
 C    2.9573927745   -2.2617008282    2.5012360812
 C    1.5082779291   -2.6605323603    2.4639688440
 H    1.0330138251    2.0420025151    0.1813607579
 H   -0.3494763128    2.0468428355   -0.9220959460
 H   -0.6108243510    1.9867755648    0.8260383329
 H   -0.9419352322   -0.2781291973   -0.2405949141
 H    0.6951149789   -0.2298035253   -0.8667480497
 H    1.5622168562   -0.0596654628    1.5071020876
 H   -0.0752855355   -0.2415111362    2.1027201747
 H   -1.0388983326   -2.5322650947    0.1041915498
 H   -0.4653834438   -3.8436680012    1.1426979874
 H   -1.3050672388   -2.4575124839    1.8541201835
 H    1.4310674396   -3.3652185077   -0.4063583517
 H    2.4745879407   -1.9398981202   -0.2350459710
 H    2.9222728552   -4.3195559121    1.5486739681
 H    3.5068648433   -2.6250459247    3.3642671642
 H    3.2875152209   -1.2867583953    2.1502620999
 H    1.0181934708   -3.0837045766    3.3345783834