18

 O   -0.3750362546    0.2057350753   -0.1577410727
 C    0.0758941902    1.3144701394   -0.0264796731
 C    1.4905415415    1.7252345431   -0.3738388403
 C    1.5039992367    2.9159730229   -1.3200384370
 C    1.2645752139    4.3528259316   -0.9281360691
 C    1.8973187870    4.6925153633    0.4286829201
 C    3.2867181265    4.2315050437   -0.1186025411
 C    2.6314098091    3.9042229952   -1.4661028004
 H   -0.5529610338    2.1460604911    0.3694343908
 H    1.9952480810    1.9762298713    0.5679721115
 H    2.0076164173    0.8639962120   -0.8078619244
 H    1.0513033979    2.6848793072   -2.2827888775
 H    0.5026150393    4.9461943935   -1.4197996296
 H    1.8780706557    5.7637409253    0.6387917386
 H    1.4994044411    4.1680340868    1.3039805469
 H    3.9931406273    5.0609874506   -0.1886064526
 H    3.7837208535    3.4041610430    0.3989563778
 H    3.0778091904    4.0949860147   -2.4349757779