22

 C   -0.0767174315    1.5602230998   -0.0603401647
 C   -0.0368318423    0.0306709001    0.0177031222
 C    0.7324808462   -0.5285578048    1.2239061939
 C    0.6116228367   -2.0514582237    1.3210692637
 C    1.5506880715   -2.6060835912    2.3937558899
 C    3.0033092573   -2.2821758138    2.0314194665
 C    3.2350969888   -0.8320751318    1.6211384348
 O    4.3387924320   -0.3184384478    1.6540550980
 N    2.1424324968   -0.1449373307    1.1600377362
 H    0.9170154267    1.9940758769   -0.2162149323
 H   -0.6995873863    1.8889213848   -0.8973717661
 H   -0.4931983274    1.9951034741    0.8550387354
 H   -1.0634290382   -0.3515193994    0.0753245934
 H    0.4035215319   -0.3803288553   -0.8990365482
 H    0.2835106874   -0.0968057441    2.1357925059
 H   -0.4305987664   -2.3066251113    1.5382807608
 H    0.8583333274   -2.4976099862    0.3483790165
 H    1.2989971612   -2.1600396069    3.3647510760
 H    1.4194389932   -3.6874864612    2.5032828951
 H    3.6962272897   -2.4960401818    2.8485949205
 H    3.3252939144   -2.9008917113    1.1834360222
 H    2.3532907506    0.8206896557    0.9503545003