18

 C    0.0082009689    1.4805477955    0.0207560044
 C    1.3285853641    0.7597611427    0.0767542099
 C    0.0137908582   -0.0234158434    0.0850991029
 C    0.3692067741   -0.6694766704   -1.2705388907
 C   -0.3462181506   -0.2168987471   -2.5457108887
 O    0.2650043939    1.0180791589   -2.9261323732
 C    1.6455321478    0.9694674376   -2.5583462321
 C    1.7147319011    0.1319827546   -1.2790697436
 H   -0.2723908394    1.9615243726    0.9531102569
 H   -0.3114023051    2.0075982391   -0.8703749470
 H    2.0250567784    0.9191281872    0.8912119446
 H   -0.4503489362   -0.5553876046    0.9069214603
 H    0.4820996587   -1.7526551222   -1.2073970882
 H   -0.2210129016   -0.9670155222   -3.3439434168
 H   -1.4151971910   -0.0240354756   -2.4155923452
 H    2.2380037733    0.4976672460   -3.3595382133
 H    1.9862174713    2.0019859178   -2.4371766976
 H    2.6139927240   -0.4827976364   -1.2209055327