16

 N    0.0224381971   -1.1314103237   -0.3264580076
 C    0.0226867865    0.0088065504   -0.1381092429
 C    0.0244613395    1.4525499194    0.0773426121
 C   -0.8291969220    2.2428919254   -0.9299233480
 O   -0.2543610463    3.5368243836   -0.9539514696
 C    1.1564685066    3.3566838004   -0.9044263234
 C    1.3835079243    2.2274977990    0.1010761332
 C    1.0004579713    2.5338567441    1.5627063269
 O   -0.2501113952    1.8128301733    1.4413560790
 H   -0.7828891139    1.7595669515   -1.9185424339
 H   -1.8689200871    2.3252724817   -0.6076695069
 H    1.5525588043    3.0734289246   -1.8924362350
 H    1.6046975683    4.3077875500   -0.6054713197
 H    2.2978605213    1.6582835409   -0.0554827237
 H    1.6491454171    2.0838326352    2.3212591046
 H    0.8338229782    3.5909605644    1.7950434449