17

 C    0.0363381531    1.3372674641   -0.2555982399
 O   -0.0898103728    0.0821517155    0.3935749321
 C   -1.2952529163   -0.5551638343    0.1264392304
 C   -1.5896717904   -1.2283902137   -1.2691754319
 O   -1.7102346510   -0.8177892416   -2.3849276363
 C   -1.7861798652   -2.5702275006   -0.5780504185
 O   -0.5122212674   -2.7895319332    0.0732338773
 C   -1.4558856987   -1.9538876366    0.7408823173
 C   -1.8938235617   -2.3112888444    2.1228413074
 H    1.0071270182    1.7456222820    0.0321338273
 H   -0.0072406066    1.2346170736   -1.3465104675
 H   -0.7548170354    2.0332033466    0.0637540812
 H   -2.1632042314    0.0889868290    0.3637323687
 H   -2.3862789634   -3.4376839080   -0.8252593692
 H   -1.1316050589   -2.0123109593    2.8496644055
 H   -2.8260185067   -1.7986935367    2.3791511854
 H   -2.0451802253   -3.3900891525    2.2084464608