18

 C   -0.3588411834    1.4812302976    0.5413636619
 C   -0.8438699461    0.0352655624    0.6530103052
 C   -1.2658438023   -0.5485125918   -0.7102244699
 O   -0.2115807595   -0.4993284142   -1.6680073831
 C   -1.7950947374   -1.9099240683   -0.5656607267
 C   -2.1825308930   -3.0413980927   -0.4350645478
 C   -2.6695047962   -4.4112911175   -0.2938517149
 C   -1.9081921083   -5.1953902053    0.6884260096
 N   -1.3146211028   -5.8199101909    1.4568694370
 H   -0.0186201199    1.8543551388    1.5114325683
 H    0.4680768848    1.5566770488   -0.1689204608
 H   -1.1608439124    2.1404999645    0.1911664786
 H   -0.0563794756   -0.6043352885    1.0719837935
 H   -1.6964695782   -0.0372215933    1.3379172425
 H   -2.0498547983    0.0912799620   -1.1354765231
 H    0.4548100999   -1.1415149648   -1.3975373467
 H   -3.7245082124   -4.4132061336    0.0092041802
 H   -2.6282182690   -4.9356617333   -1.2573095440