22

 C    0.0582161954    1.6056083937    0.0714630654
 C    0.0346120768    0.0665581940    0.1013488494
 C    0.8273718814   -0.4528020942    1.3145780839
 C   -1.4145336237   -0.4742713480    0.1024494568
 C   -2.2883009271   -0.0833568064    1.2910648424
 O   -3.5570995617   -0.6860022867    1.0765321170
 C    0.6864591469   -0.4791520345   -1.2056565321
 C    2.0773721426   -0.0710799388   -1.3910948732
 N    3.1770513375    0.2595585992   -1.5245241826
 H    1.0811451413    1.9786334931   -0.0368617424
 H   -0.5330809650    1.9948927640   -0.7648862731
 H   -0.3489307179    2.0275195531    0.9944576107
 H    0.4285404504   -0.0528927780    2.2509039836
 H    0.7900494607   -1.5463085563    1.3738006063
 H    1.8782512597   -0.1546111924    1.2513425150
 H   -1.9285312922   -0.1378389701   -0.8068783869
 H   -1.3931951097   -1.5705402594    0.0577874819
 H   -1.8397881875   -0.4359352775    2.2318955188
 H   -2.3795356196    1.0110291431    1.3592799237
 H   -4.1281395300   -0.4551711815    1.8149397519
 H    0.6481584788   -1.5746763512   -1.2089328280
 H    0.1117659227   -0.1401486653   -2.0754027683