20

 C   -0.1175742031    1.5832177664   -0.1451452585
 C    0.0157773324    0.0663713559   -0.0543546463
 C   -1.3372649389   -0.5834254914    0.2405447734
 C    0.7468939349   -0.6485550550   -1.1976268907
 C    2.1823765593   -0.3233432738   -1.2670334594
 N    1.7478802035   -1.3227461081   -0.2722758584
 C    1.1422831812   -0.5354852190    0.8799969486
 C    2.0354978810    0.3607572472    1.5857456211
 C    2.7706798598    1.1172612395    2.1645797041
 H    0.8395472996    2.0734844571   -0.3359971554
 H   -0.8066496324    1.8553390797   -0.9526717544
 H   -0.5169173590    1.9937397698    0.7885812908
 H   -2.0656727912   -0.3311455031   -0.5383256303
 H   -1.2552613657   -1.6742328417    0.2833436676
 H   -1.7374208847   -0.2329165082    1.1981371212
 H    0.2433781185   -1.2131395993   -1.9776215854
 H    2.7545772519   -0.7699592358   -2.0745065436
 H    2.5603455811    0.6340853001   -0.9205622060
 H    0.7181190791   -1.2558411176    1.5850401472
 H    3.4229004326    1.7734055071    2.6861616046