13

 C   -0.0102427427    1.4926931014    0.1228713402
 O    1.2751172613    2.0157948192   -0.3432542724
 C    2.2682537650    1.2221389597   -0.7667163035
 N    2.3126384712   -0.0564958507   -0.8513297542
 C    1.1297751866   -0.6316134933   -0.4273004341
 C    0.0089083123    0.0053519285    0.0369408730
 N   -0.9355876335   -0.9121562150    0.3513005499
 N   -0.4536276760   -2.1048736320    0.1031848511
 N    0.8044292663   -1.9408089308   -0.3714948838
 H   -0.1442601657    1.8653261028    1.1445749149
 H   -0.7790924135    1.9526315947   -0.5080180059
 H    3.1236539401    1.8224718517   -1.0636157707
 H    1.3565492387   -2.7447180960   -0.6260690845