20

 O    0.0821241034    1.3392237797   -0.4928932786
 C    0.0394842411   -0.0562867946   -0.2738464830
 C   -1.3849575694   -0.5094978130    0.0188863894
 O   -1.7536755034    0.2213989844    1.1803982170
 C   -2.3935984405   -0.4460424636   -1.1653238519
 N   -2.6532739519   -1.9150817936   -1.0908753219
 C   -1.7198310793   -2.7345340485   -1.9323400670
 C   -0.8132077337   -3.0377638608   -0.7091353682
 C   -1.6912672884   -2.0371782468    0.0755678473
 H   -0.4041220715    1.7291742164    0.2440928393
 H    0.4180849659   -0.5315309405   -1.1826621800
 H    0.6887235452   -0.3586660680    0.5643038984
 H   -2.7045566649    0.1423186772    1.3077126050
 H   -3.2949229318    0.1393746563   -0.9448508148
 H   -1.9864973107   -0.0947627598   -2.1196315303
 H   -2.2133233472   -3.6015813663   -2.3806829480
 H   -1.2397627442   -2.1617738383   -2.7348724650
 H   -0.9108460792   -4.0601929549   -0.3386580779
 H    0.2500590496   -2.8086056379   -0.8036311368
 H   -2.0936896089   -2.3677323575    1.0388577772