20

 C   -0.4437866348    1.3978351745   -0.1301779455
 C    0.0149984040   -0.0414129555    0.0114547034
 O    1.1838645592   -0.3227341368   -0.8124380176
 C    2.0195826127   -0.5683449476    0.3376008028
 C    2.7424750217   -1.9068399321    0.2516285189
 C    2.9942218126    0.5274476285    0.5108393464
 N    3.7518010768    1.3878108288    0.6606062433
 C    0.7846764558   -0.4702827868    1.2921278244
 C    0.8270084415    0.4293074883    2.5162593672
 H    0.3555657590    2.1034314045    0.1104315158
 H   -0.7569753049    1.5808593255   -1.1624456173
 H   -1.2987267467    1.5973126189    0.5249747064
 H   -0.8011972390   -0.7213861643   -0.2599612243
 H    3.4313659767   -1.9138231782   -0.5973054616
 H    3.3153024716   -2.0956320396    1.1647815447
 H    2.0091037835   -2.7054348632    0.1151693490
 H    0.4964868001   -1.4821696422    1.5896665498
 H    1.1504997245    1.4443723773    2.2749469275
 H   -0.1620597513    0.4860217442    2.9821639308
 H    1.5210060169    0.0306983356    3.2632779259