18

 N   -0.1297206689    1.1752844938   -0.7683049701
 C   -0.0734437210    0.0840049342   -0.1551962475
 O    0.9426897195   -0.4634322962    0.6089942683
 C    0.2156967051   -1.7384740718    0.7352400630
 C   -0.1650821070   -2.1357136769    2.1632870000
 C   -1.5551977657   -1.5584029303    2.4164410530
 C   -1.7324958335   -0.0678320389    2.3249228587
 C   -2.0725375541   -0.9284782760    1.1311392316
 C   -1.0136218567   -1.0906718775    0.0426946372
 H    0.7345254012    1.7086757149   -0.6559451217
 H    0.7611791078   -2.5104431326    0.1882720666
 H   -0.1973564667   -3.2286983702    2.2314433704
 H    0.5901674781   -1.7884043935    2.8764064077
 H   -2.2224164283   -2.1147199140    3.0656984002
 H   -2.5639805717    0.3717500685    2.8650111039
 H   -0.8511933877    0.5634196323    2.2816444346
 H   -3.1118185822   -1.0139657949    0.8388939965
 H   -1.4029658783   -1.5460940008   -0.8674439427