15

 N   -0.1967671409    1.3434561719    0.0656219822
 C    0.0244027700   -0.0113946417    0.0369993529
 O    1.1413365159   -0.5034143314    0.0522853831
 C   -1.1798665825   -0.8427314163    0.0160816575
 C   -1.3446563241   -2.1939448037    0.0037391677
 C   -2.7457407149   -2.4520942886   -0.0152236040
 C   -3.3482123456   -1.2205991122   -0.0162409611
 N   -4.6630399629   -0.8107853177   -0.1047875061
 O   -2.4291800547   -0.2342282577    0.0011103641
 H    0.6067811862    1.9312210346   -0.0838276975
 H   -1.1059256591    1.7136814269   -0.1533376730
 H   -0.5392846868   -2.9107599066    0.0122825660
 H   -3.2427715277   -3.4084738262   -0.0251283075
 H   -5.3262063539   -1.5153819065    0.1835998692
 H   -4.8431723891    0.0777401253    0.3432476264