17

 C   -0.4385070682    1.4600902731    0.2028790465
 C    0.2883144694    0.1573170367   -0.1523594384
 C    0.9132108992   -0.5016261776    1.0641961364
 O    0.0213767655   -1.0964703005    2.0176022756
 C    0.9241946767   -1.9639877504    1.3266369295
 C    0.3452945874   -3.0048375465    0.4055799295
 C    1.9913031266    0.2722094394    1.6706878706
 N    2.8554964481    0.8949230215    2.1197137317
 H    0.2497316355    2.1935730029    0.6335599004
 H   -0.8887727792    1.9024940467   -0.6896934150
 H   -1.2329721234    1.2706666215    0.9302823536
 H   -0.4102332761   -0.5464637314   -0.6101368354
 H    1.0810128175    0.3501712245   -0.8847880043
 H    1.7406370008   -2.3211101033    1.9565201860
 H   -0.4863145884   -2.6179705065   -0.1848975645
 H    1.1178805783   -3.3830870531   -0.2716342476
 H   -0.0241400898   -3.8488689471    0.9967816753