16

 O   -0.1012070215   -0.0850777957    0.1053263479
 C   -0.0382503392    1.1170786320   -0.0087207649
 N    1.1322048068    1.8392324543   -0.0837135717
 C    1.1095524905    3.2966756634   -0.1289621015
 C    2.2545996567    3.8756649900   -0.9641125668
 O    2.0828982638    4.8326267922   -1.6765547316
 C    3.6124029537    3.2162470037   -0.7709681836
 C    3.5265760601    1.8096762481   -0.2462880543
 C    2.3713933474    1.1961349260    0.0157505246
 H   -0.9269803271    1.7729453358   -0.0684128602
 H    0.1619814111    3.6483697800   -0.5396336745
 H    1.2195885145    3.7090199322    0.8874221470
 H    4.1406540748    3.2615182629   -1.7305506417
 H    4.1934350369    3.8602539202   -0.0923074030
 H    4.4508013366    1.2592492598   -0.1144088831
 H    2.2939154947    0.1615631150    0.3231143274