17

 C   -0.0925438309    1.4214441064   -0.0804954534
 O   -0.0458729265    0.0012826553   -0.0257781732
 C   -1.2776274192   -0.6019674979    0.0931561628
 C   -1.0660479800   -2.1024672186   -0.0155640480
 O   -2.2694609752   -2.8393975884    0.2526651265
 C   -3.2496085883   -2.3302671471    1.0316747780
 O   -4.2178214682   -2.9888251949    1.2912085122
 C   -3.1141458422   -0.8833627283    1.5017891585
 O   -1.8257935271   -0.3231410684    1.3718081153
 H    0.9343540619    1.7616584319   -0.2225927658
 H   -0.7062343834    1.7623840718   -0.9265127358
 H   -0.4940242717    1.8415624393    0.8470281022
 H   -1.9829027608   -0.2416610194   -0.6839193747
 H   -0.7498388514   -2.3871006478   -1.0213806181
 H   -0.2935484079   -2.3953044291    0.7025536823
 H   -3.8663017659   -0.3017619643    0.9426539209
 H   -3.3878466533   -0.8474137106    2.5577239703