14

 C   -0.0401696650    1.4990354770   -0.0398158398
 O    1.1497654536    0.6908011563    0.0591744929
 C   -0.1045715033    0.0422404340   -0.0003166659
 C   -0.5552064566   -0.9550843410    1.0942836843
 C   -0.8928843475   -1.9374497617   -0.0401963836
 N   -1.8961117869   -1.2553386088   -0.8909185209
 C   -0.4457745916   -0.9674328920   -1.0807804476
 H   -0.2810884500    2.0763124325    0.8514717849
 H   -0.1697659276    2.0241510109   -0.9848841001
 H    0.3018385657   -1.2691923700    1.6950689490
 H   -1.3878078558   -0.6632388291    1.7382174985
 H   -0.8136142800   -3.0166702623   -0.0230749227
 H   -2.1604943098   -1.9094659193   -1.6281345636
 H    0.0485834348   -1.1181620064   -2.0321471355