18

 C   -0.0934142118    1.5794021862    0.0162504302
 C   -0.0037312018    0.0629247219    0.0016337660
 C    0.7060989333   -0.5792951181   -1.1885537546
 C    0.0531199073   -1.6853650873   -1.5659688994
 C   -1.1880060229   -1.8178775679   -0.7909384488
 C   -1.1858628091   -1.8327420038    0.7613162893
 C    0.0574015126   -1.7150528013    1.5353106586
 C    0.7093575463   -0.6019334431    1.1773517492
 N   -1.3741344726   -0.5892415933   -0.0027160606
 H    0.9051667454    2.0298533678    0.0182126591
 H   -0.6317628740    1.9374621344   -0.8659823258
 H   -0.6276923779    1.9207154590    0.9075522182
 H    1.6794699959   -0.2532975428   -1.5364711254
 H    0.3728627968   -2.4000736266   -2.3135165111
 H   -2.0758959045   -2.2348643367   -1.2607922128
 H   -2.0724570728   -2.2586806227    1.2255532363
 H    0.3791738742   -2.4439124477    2.2681805563
 H    1.6836855957   -0.2826308280    1.5287813654