17

 C    0.1282020891    1.5767410644   -0.1205478348
 C    0.0919032028    0.1240223545   -0.0548780105
 C    0.0577937862   -1.0786852114   -0.0131354218
 C    0.0118477039   -2.5340872138    0.0639777413
 C    0.1549419115   -3.1430516873    1.5029004071
 C   -1.2686781523   -3.6760545188    1.2766738248
 O   -1.3534242755   -3.0516256541   -0.0226071637
 C    0.8810101308   -3.1435869961   -0.9419297316
 C    1.5996363939   -3.6701223580   -1.7482389394
 H    0.7431811169    1.9205547539   -0.9591749543
 H   -0.8784969914    1.9872928626   -0.2549020603
 H    0.5426725548    2.0067836701    0.7977530197
 H    0.9422653719   -3.8898743776    1.5953939004
 H    0.2578653313   -2.3882208735    2.2813242042
 H   -1.3580044425   -4.7663135778    1.2082570010
 H   -2.0368824272   -3.2956351079    1.9589052054
 H    2.2299391455   -4.1246235992   -2.4722632774