15

 O    0.1197428837    1.4181843035    0.1860318868
 C    0.1045233603    0.0433677120    0.0517767235
 C    1.3235919195   -0.6823230728    0.6900698256
 N    1.0335671629   -2.1262789914    0.6793760746
 C    1.5534898944   -1.4818933778   -0.5492990987
 C    0.3563613476   -0.7898633930   -1.2453245759
 O   -0.9392854718   -1.4459006781   -1.0728128843
 C   -1.2287316546   -0.6953129000    0.0507480217
 N   -2.2829591380   -0.5676748114    0.7160596072
 H   -0.7945575591    1.7246251324    0.1827117955
 H    2.0167762187   -0.2260200160    1.3850438918
 H    1.8174546442   -2.6029572767    1.1235560812
 H    2.4715230401   -1.8168785418   -1.0141330070
 H    0.4942525921   -0.3733772329   -2.2409242071
 H   -3.0303428101   -1.1703546459    0.3672893251