17

 O    0.1156996589    0.0744041811   -0.6642961171
 C    0.0412064512    1.2072876502   -0.2875322445
 C   -1.1099068052    1.8762073191    0.4566307007
 C   -0.7894143914    3.3775731898    0.4638174788
 C   -0.8614909884    4.0589984165    1.8533437191
 C    0.5719242992    4.0373760904    2.3291805846
 C    1.4264154156    3.6789366039    1.3728626177
 C    0.7195951174    3.3962821454    0.0737034326
 O    1.0463092389    2.1038328198   -0.4750921652
 H   -2.0558584114    1.6181195998   -0.0223066352
 H   -1.1342653526    1.4535657898    1.4671181353
 H   -1.3980435547    3.8996732295   -0.2764049503
 H   -1.2305071433    5.0899747390    1.7763791951
 H   -1.5437633144    3.5426372697    2.5388439950
 H    0.8500444379    4.3161489437    3.3399383158
 H    2.5037360516    3.6134256182    1.4656082930
 H    0.9711537707    4.1229452941   -0.7057996256