17

 C   -0.0623985151    1.5440081673   -0.2648978946
 C   -0.1242444711    0.0352150327   -0.2292327951
 C   -0.1409475944   -0.6859970151    1.0934830803
 C   -1.3884484596   -0.6340216645    0.2504743832
 N    1.2918295397    2.0547226111   -0.0639421175
 N    1.8550203237    2.1835068268    1.1316810830
 C    3.0671519963    2.6124721098    0.8008163147
 N    3.2332716077    2.7361461992   -0.5341449105
 N    2.0927642127    2.3748677994   -1.0716904744
 H   -0.3888471527    1.9357164322   -1.2307890117
 H   -0.6837358187    1.9790471719    0.5215826984
 H    0.4068536075   -0.4457307710   -1.0449962808
 H    0.3956333291   -1.6249254282    1.1651371692
 H   -0.1049137356   -0.0838573635    1.9945420091
 H   -2.2032332579   -0.0005472088    0.5860287437
 H   -1.7113427961   -1.5337244831   -0.2604182010
 H    3.8310653046    2.8430500640    1.5253979039