18

 C   -0.2344521426   -1.2918882787   -0.5576846571
 C   -0.1095063521   -0.1349856877   -0.2612135787
 C    0.0662947549    1.2599810046    0.1338705124
 C   -0.4406804611    1.5617802047    1.5795150492
 C    0.2536326525    2.8826201654    1.9710079903
 C    1.5424363598    2.9688036241    1.1000044914
 C    1.5636695643    1.6888537823    0.2402448634
 C   -0.6293691309    2.1409421058   -0.8241108401
 N   -1.1627952031    2.8606896745   -1.5540690178
 H   -0.3518736038   -2.3119193069   -0.8298645475
 H   -1.5300628052    1.6025872513    1.6318727673
 H   -0.1057874210    0.7341564500    2.2114944321
 H   -0.4014604352    3.7324577814    1.7636554492
 H    0.4731754425    2.9038031358    3.0410405784
 H    1.5082263864    3.8541975263    0.4601303904
 H    2.4490258722    3.0476489333    1.7045268079
 H    2.0902995478    0.8763708102    0.7493589917
 H    2.0231852045    1.8225182035   -0.7406687824