18

 C    0.2871162170    1.0277393327    0.1775137952
 N   -0.4015221738   -0.0050888370   -0.5657002135
 C   -1.3613885303   -0.7859790444   -0.0095762590
 O   -1.7765975171   -0.7069882169    1.1277434825
 O   -1.8058828225   -1.6859963876   -0.9304661684
 C   -2.8357560120   -2.5729052547   -0.4712138505
 C   -2.2728112407   -3.7347847303    0.3023349961
 C   -2.9225469202   -5.0502878245    0.2602645897
 O   -1.7191912233   -4.8073242850   -0.4651231588
 H    1.3588007713    0.8148198783    0.2652665435
 H    0.1630720352    2.0086619191   -0.2946423400
 H   -0.1488936946    1.0593572941    1.1765506530
 H   -0.1457514821   -0.2014651949   -1.5187551285
 H   -3.5425288170   -2.0166962097    0.1507893409
 H   -3.3297538062   -2.9309177830   -1.3772275859
 H   -1.6983779347   -3.4643330959    1.1866009066
 H   -2.8350629190   -5.7189272464    1.1150832653
 H   -3.8151961800   -5.1935125238   -0.3484434381