18

 C    0.2149576571    1.5964737258    0.0088870545
 C    0.0860082114    0.0816100144    0.0392592017
 C    0.9232346851   -0.7636254298   -0.9756272946
 C    1.3919988338   -1.6842409893    0.1961046466
 N    2.7759750233   -1.6439812220    0.5878660102
 C    3.0478039894   -0.5775437649    1.4194644144
 O    4.1164996059   -0.1714087930    1.7779297317
 O    1.8558083449   -0.0232604384    1.8200802163
 C    0.7510970907   -0.6952257969    1.2101188538
 H    1.2580282817    1.9054554228    0.1178627246
 H   -0.1642810200    1.9941504218   -0.9382051371
 H   -0.3546830597    2.0600149939    0.8209330571
 H   -0.9699878265   -0.2051404271   -0.0113468070
 H    0.3598099444   -1.2511592976   -1.7741403559
 H    1.7537455854   -0.2079388692   -1.4198967759
 H    0.9915362978   -2.6997937646    0.1782899649
 H    3.5277325741   -1.9986528108    0.0199267478
 H    0.1010274111   -1.0769402752    2.0004281670