23

 C    0.0008868268    1.5309299790    0.0746462292
 C   -0.0425547725   -0.0027789618    0.0131411456
 C   -1.4932027805   -0.4925557590    0.0098067825
 O   -2.1251842316   -0.0383973276    1.1999565461
 C    0.7301586094   -0.5558584769   -1.1948165031
 C    2.2218028808   -0.1178068897   -1.2627379311
 C    2.9089586881   -1.3011825169   -1.8992776583
 C    2.1277777709   -2.3787817621   -1.9208766841
 C    0.7770056309   -2.1084520288   -1.3031380253
 H    1.0232493238    1.9005141935    0.1931995942
 H   -0.4073408574    1.9675527670   -0.8457134962
 H   -0.5966638619    1.8947867181    0.9128288279
 H    0.4231784090   -0.3999853397    0.9272104053
 H   -2.0070397400   -0.1021075661   -0.8857201579
 H   -1.5219883083   -1.5905732339   -0.0474418533
 H   -3.0427521901   -0.3240346529    1.1803576197
 H    0.2442388432   -0.1817560038   -2.1067651011
 H    2.3591407039    0.8126978923   -1.8243654778
 H    2.6320196224    0.0683981639   -0.2583777358
 H    3.9344552343   -1.2619688425   -2.2504848978
 H    2.4153518964   -3.3563938915   -2.2925014270
 H    0.7062018691   -2.5840077228   -0.3123896129
 H   -0.0520471366   -2.5130918477   -1.8948671888