23

 C    0.1406564493    1.4688675959    0.0294769302
 C   -0.0210584018   -0.0473669888   -0.1123811874
 C   -1.4804276708   -0.5437500751   -0.0184235075
 C   -2.3581804487   -0.0462810400   -1.1739799615
 C   -1.4887034223   -2.0437676971    0.0910045407
 C   -1.4769248380   -3.0675143933   -1.0045693336
 C   -2.5470558423   -3.1294278365    0.0725648044
 C   -1.9066154501   -3.6018178510    1.3682282303
 O   -0.8593938839   -2.6008153332    1.2625382077
 H    1.1986443027    1.7490322478    0.0206612543
 H   -0.3480024640    2.0140782655   -0.7842234945
 H   -0.2876730939    1.8253767975    0.9732026606
 H    0.4036033844   -0.3798952428   -1.0689070747
 H    0.5572471903   -0.5474502961    0.6719946759
 H   -1.9012838662   -0.1614515437    0.9229027295
 H   -2.4473500715    1.0427745273   -1.1539692650
 H   -1.9354140223   -0.3261172609   -2.1451213523
 H   -3.3701228247   -0.4597199810   -1.1117667008
 H   -1.8374304143   -2.7370846322   -1.9732444483
 H   -0.6840256007   -3.8105467259   -1.0363713623
 H   -3.6062724716   -3.0868699200   -0.1432753783
 H   -2.5213798493   -3.4225080336    2.2580660826
 H   -1.5051112106   -4.6223479129    1.3973193798