17

 C   -0.0650228983    1.5321833011   -0.0970518802
 C   -0.1163830064    0.0357051324   -0.1102401195
 C    0.8263445189   -0.9641371481   -0.8290475477
 O    1.8741568897   -0.9211888528    0.2615040110
 C    0.5913008700   -0.9168923172    0.9171399711
 C   -0.1798604268   -0.8696727267    2.2161358269
 O   -1.4983689304   -0.8884456740    1.6098932208
 C   -1.2701209129   -0.9393162121    0.1597420774
 C   -0.1106263930   -1.9133540060   -0.0527665230
 H    0.9708034655    1.8714564322    0.0108355764
 H   -0.4695670263    1.9592171677   -1.0206711579
 H   -0.6497061377    1.9300729757    0.7390546618
 H    1.2106564972   -1.0001103128   -1.8464354453
 H   -0.0468710923   -1.7424815553    2.8633288333
 H   -0.0406645827    0.0498999933    2.7947350758
 H   -2.2400148253   -0.9609246811   -0.3319459324
 H   -0.0658482893   -2.9974116462    0.0202990716