14

 N    0.0390169236   -3.6533955348   -0.0421439772
 C    0.0270360891   -2.4918473263   -0.0260704879
 C    0.0160538803   -1.1277205041   -0.0040437126
 C    0.0070005862    0.0807114695    0.0166380325
 C    0.0164714263    1.5092410190    0.0761088573
 C   -0.6766953494    2.4562701549    1.1019788664
 C   -0.0885007183    3.2960120176   -0.0549628511
 C    1.2277203371    2.4887305667    0.0192875168
 O   -0.6179693621    2.2932894588   -1.0163560753
 H   -1.7635688187    2.3824563175    1.1201627256
 H   -0.2263696474    2.5442008328    2.0927823803
 H   -0.2430772629    4.3454415184   -0.2953930653
 H    1.8464824540    2.5795335028    0.9143320668
 H    1.8007913123    2.4432134272   -0.9062346362