23

 C   -1.0604039810    0.7636525160    0.0202127375
 C    0.2311188766   -0.0235140490    0.1417214180
 O    0.8558168332   -0.0800620815    1.1757075747
 C    0.6951490133   -0.7822711973   -1.1024724141
 C    0.1563394217   -2.2063615583   -1.0637508758
 C   -1.1912756095   -2.5726597366   -1.6507790543
 C    0.0759684013   -3.1139522234   -2.2755271379
 C    0.4846489043   -2.6071509196   -3.6460447382
 C    0.3989827893   -4.5801846862   -2.0495646654
 H   -0.9266335610    1.5884552163   -0.6900202723
 H   -1.8581662921    0.1279218126   -0.3789724455
 H   -1.3505418551    1.1638179036    0.9924502903
 H    0.3644141848   -0.2665801264   -2.0089415225
 H    1.7898936086   -0.7973259781   -1.0890346947
 H    0.4134572828   -2.7135725530   -0.1368562233
 H   -1.8341636127   -3.2493701248   -1.0971167954
 H   -1.7285151704   -1.8032606826   -2.1982081898
 H    0.2051812570   -1.5630840658   -3.8089608360
 H    1.5682060874   -2.6902938132   -3.7925873011
 H    0.0009823747   -3.2001925212   -4.4309728904
 H   -0.1095282265   -5.2123797770   -2.7873505414
 H    1.4757542546   -4.7661044453   -2.1403118097
 H    0.0856738787   -4.9111712094   -1.0546514727