21

 C   -0.0188955796    1.4883218931    0.0057651467
 C   -0.0028227892   -0.0175007012   -0.0549174642
 C    0.5624010790   -0.8213590374   -1.2561880725
 C   -0.3134578459   -1.9759159360   -0.7165063073
 C    0.1411457800   -2.2501129297    0.7343117978
 C    0.3733111121   -0.8192011795    1.2173738480
 C   -0.9868277666   -1.4641611090    1.3652740726
 C   -1.3079713910   -0.9305223638   -0.0678279530
 C   -2.6404684414   -0.5322736304   -0.6270019414
 H    0.9982101936    1.8905596500    0.0904006556
 H   -0.4721473217    1.9231080077   -0.8918146989
 H   -0.5852146099    1.8431017543    0.8748530634
 H    0.1876671807   -0.4361796022   -2.2111351791
 H    1.6451448263   -0.9722708039   -1.3202890418
 H   -0.6418540404   -2.8117621512   -1.3344942516
 H    0.6846385051   -3.0978912114    1.1306251922
 H    1.0942577630   -0.5645818059    1.9843751869
 H   -1.5919074121   -1.6612418607    2.2410790311
 H   -3.0803723011    0.2973189217   -0.0605800501
 H   -2.5542618418   -0.2125997279   -1.6721560537
 H   -3.3497881390   -1.3677750065   -0.5942771706