15

 N   -0.0716550449    1.1459520447   -0.7158464286
 C   -0.0469044898    0.0649689948   -0.0460131111
 C   -1.3857458083   -0.5211467303    0.3518591510
 O   -1.4142109357   -1.1893106690    1.5971125016
 C   -0.6768565907   -2.3575542506    1.6271467661
 O    0.6830844916   -2.1596365428    2.0070359621
 C    1.5748377883   -1.5189534176    1.2305617336
 O    2.7550043077   -1.6673476932    1.4049202798
 N    1.1265267144   -0.6619991680    0.2141765884
 H    0.8587440036    1.4433955118   -1.0170122606
 H   -2.1006031010    0.2984020067    0.4044985552
 H   -1.7033251469   -1.2073173459   -0.4495955958
 H   -1.0779199827   -2.9885808751    2.4206819510
 H   -0.7105815227   -2.8812160012    0.6600205434
 H    1.9454109571   -0.2636628242   -0.2282607560