16

 C   -0.0448218471    1.5423346678    0.0533594467
 C    0.0321565821    0.0161757700    0.0165810104
 N    0.7259262817   -0.5285045018    1.1767747178
 N    2.0358148733   -0.7619359231    1.1692209877
 C    2.2885524102   -1.1700869117    2.4100289417
 C    1.0855971124   -1.1622749602    3.1448829501
 N    0.1045675145   -0.7420755141    2.3246399919
 C    0.8642202402   -1.5219814914    4.4941947670
 C    0.7109865910   -1.8336505774    5.6460377376
 H    0.9571994643    1.9794673295    0.0617846594
 H   -0.5751101082    1.9076776693   -0.8308659748
 H   -0.5820669957    1.8782200642    0.9439560778
 H   -0.9651982024   -0.4282776893    0.0100525398
 H    0.5816515318   -0.3324908015   -0.8595553421
 H    3.2808029528   -1.4518365809    2.7219901864
 H    0.5669028391   -2.1074146493    6.6617848028