17

 O   -0.0384951901    1.4886340341   -0.1927560302
 C    0.1028511996    0.1214940609    0.1613545487
 C   -1.2466785087   -0.5691797480    0.0889135355
 O   -1.8115604483   -0.5401726063   -1.2631010729
 C   -2.1137388041   -1.9426060486   -1.2121672962
 C   -1.0560775233   -2.9035059178   -1.8346109277
 O    0.2327316150   -2.3473909051   -1.5911048877
 C   -0.3955896322   -3.0429172388   -0.5159019552
 C   -1.4312174273   -2.1068138532    0.1639111924
 H   -0.3886078836    1.4975349979   -1.0911833816
 H    0.8301208084   -0.3886806377   -0.4773900162
 H    0.4654616866    0.0993314896    1.1958488570
 H   -1.9400556013   -0.0539723530    0.7671520440
 H   -3.1614817944   -2.1822763742   -1.4085603106
 H   -1.1508276825   -3.5859302787   -2.6718819598
 H    0.1489798271   -3.8714758722   -0.0778829135
 H   -1.9490853308   -2.5278105389    1.0235092940