18

 C    0.0986998013    1.4764797121    0.1668607578
 C    0.0887363466   -0.0426835913   -0.0005367997
 O   -1.2366506841   -0.5575173388    0.0329331224
 C    0.6748335029   -0.5478161972   -1.3468899669
 C   -0.0416601047    0.0497137099   -2.5845644454
 C    2.1849409106   -0.2599356278   -1.4778074941
 O    2.8446876407    0.3354942523   -0.6716597026
 C    0.5639379284   -2.0146795482   -1.4010098938
 N    0.5465885563   -3.1679789946   -1.4751560955
 H    1.1140015883    1.8735909725    0.1233552168
 H   -0.5213284528    1.9628984660   -0.5906477719
 H   -0.3179438194    1.7290934283    1.1482365531
 H    0.6970054893   -0.4911336088    0.7975059434
 H   -1.6209921745   -0.3448236310    0.8889288294
 H    0.1336728680    1.1263581639   -2.6441243190
 H    0.3247566555   -0.4133563681   -3.5040036907
 H   -1.1136997670   -0.1337455044   -2.5015221176
 H    2.6253102447   -0.6589935248   -2.4163512655