21

 C   -0.1713068203    1.4736892334   -0.7146065336
 C   -0.4078907174   -0.0259904701   -0.9185195587
 C   -1.0606958173   -0.6814355610    0.3038950259
 O   -2.3185980405   -0.0849425396    0.6328781674
 C   -1.2633496254   -2.2110518576    0.2183503403
 C    0.0256347172   -3.0112455889    0.0941863032
 O   -1.9180413378   -2.6482990201    1.4151352467
 C   -2.2655409627   -2.6142016494   -0.8709122808
 O   -2.9864190718   -1.8555456047   -1.4775597875
 H    0.2610261653    1.9272979903   -1.6110892316
 H   -1.1093499299    1.9859636263   -0.4867724464
 H    0.5164684652    1.6549593885    0.1188163419
 H   -1.0420213118   -0.1903910125   -1.7966526061
 H    0.5473026499   -0.5244950824   -1.1209798195
 H   -0.4294309344   -0.5039405426    1.1842697132
 H   -2.8807953123   -0.2184147844   -0.1446008815
 H    0.7081215521   -2.7468867312    0.9068208868
 H   -0.1950411649   -4.0797734244    0.1745265608
 H    0.5258177629   -2.8321335149   -0.8614753646
 H   -2.5239166103   -1.9235772506    1.6376767373
 H   -2.3533814761   -3.7140895841   -1.0062000232