23

 C    0.5685128168   -0.5383064697   -1.6067067585
 C    0.0643178560   -0.1536376779   -0.2287338715
 C   -1.4195744083   -0.3857174702    0.0265988689
 C   -2.3617148226    0.3771650966   -0.8837260319
 O   -2.1132224607    1.7578425893   -0.7836121923
 C   -2.7943180390   -0.2051302982   -2.2052298715
 C   -3.7781730323   -0.1064002214   -1.0484638150
 C    0.9926484346   -0.3788585768    0.9447008309
 C    0.7158073501    1.0221963034    0.4548938087
 H    1.6497835394   -0.3856990922   -1.6827988454
 H    0.3672965823   -1.5943707294   -1.8263600626
 H    0.0913809773    0.0625486511   -2.3874037869
 H   -1.6468491981   -1.4555456921   -0.0685092722
 H   -1.6503665669   -0.1080981785    1.0627675493
 H   -2.7298852380    2.2256398395   -1.3547589758
 H   -2.9273361308    0.4781696584   -3.0389592142
 H   -2.4327420108   -1.1858859293   -2.4949767360
 H   -4.0856573541   -1.0190481328   -0.5483317654
 H   -4.5598137446    0.6445352517   -1.1156447019
 H    0.5604240792   -0.6859217896    1.8918699572
 H    1.9687919879   -0.8091518653    0.7455616265
 H    1.5061538364    1.5442714995   -0.0742468032
 H    0.0892743361    1.6672363538    1.0596418328