14

 C    0.7085022262    1.1905022145    0.2094388229
 C   -0.3527838994    0.1482116935   -0.0304925837
 O   -1.2582838240   -0.1021280554    0.7135461119
 C   -0.1908135571   -0.6736539557   -1.3718686563
 O    0.3154003903    0.2219572572   -2.3463385693
 C    0.7364940214   -1.7763796458   -1.0998058901
 C    1.5295638967   -2.6496197897   -0.8732629357
 C   -1.5070608007   -1.2090176611   -1.7854445105
 N   -2.5171998212   -1.6137881718   -2.1707261976
 H    1.7053348384    0.7649536048    0.0626298179
 H    0.5985941734    1.9981702255   -0.5201075663
 H    0.6008945643    1.5805940035    1.2216341143
 H    0.5747677899   -0.2891478515   -3.1224131447
 H    2.2189347819   -3.4341428380   -0.6746976926