17

 C   -0.0479671531    1.5291516658    0.0671738427
 C   -0.0903869399    0.0069111437   -0.0841332558
 C    0.8217865355   -0.4886779985   -1.2041565031
 N    0.7508639435   -1.9405896724   -1.3227519514
 C    1.3640890221   -2.5869384372   -2.3409781613
 N    1.8632199795   -2.0426501761   -3.4235501282
 O    2.3046531565   -3.1294893287   -4.1446342965
 N    2.0565753932   -4.2754843504   -3.4376953430
 N    1.4930604624   -3.9711329526   -2.3535226446
 H    0.9650038225    1.8790445502    0.2926565042
 H   -0.3753510334    2.0272365707   -0.8514242939
 H   -0.7030856227    1.8601227903    0.8776020545
 H    0.2110220994   -0.4649614004    0.8612157101
 H   -1.1148750212   -0.3259941948   -0.2868694610
 H    0.5140008449   -0.0604408967   -2.1640050750
 H    1.8569119005   -0.1573171609   -1.0292869427
 H    0.6785705903   -2.4747793620   -0.4701572151