15

 C    0.0289417913    1.4874167334    0.1357707508
 O    1.3489752891    2.0839577102   -0.0112416292
 C    2.1266898770    1.4075837059   -0.8640489450
 C    2.0149841359    0.0761904211   -1.2286978653
 C    3.1356126557   -0.1291273466   -2.0692834517
 N    3.8706482179    0.9679587526   -2.2100594091
 N    3.2284162014    1.9071301572   -1.4489675421
 C    0.9529137496   -0.6916770603   -0.6146009237
 C    0.0276617739   -0.0231824419    0.0892410406
 H   -0.3402043044    1.8626108364    1.0929701741
 H   -0.6114986339    1.9064696194   -0.6583742161
 H    3.4340409739   -1.0338423993   -2.5796079004
 H    3.5976580298    2.8404089679   -1.3861749234
 H    0.9439501257   -1.7744870157   -0.6798671054
 H   -0.7742362128   -0.5277537403    0.6161405961