20

 C    0.0273529662    1.5276668576   -0.0476921745
 C   -0.0268166676    0.0190811676   -0.0246170771
 C    0.7245524147   -0.6990981658   -1.1485786036
 C    0.5512705411   -2.1689984211   -0.7002909019
 C   -0.2510218774   -1.9274875158    0.5647435989
 N    0.3754181972   -0.7196907919    1.2940214708
 C   -1.0273227175   -0.4158711864    1.8245329279
 C   -1.2928397214   -0.7894086434    0.3581936776
 O   -2.4644927912   -0.7787459883   -0.3869051803
 H    1.0657554522    1.8677540805    0.0253119455
 H   -0.3801186691    1.8964339915   -0.9949239763
 H   -0.5386606329    1.9968227949    0.7599082750
 H    0.2757421219   -0.4875570937   -2.1233929487
 H    1.7718805181   -0.3850506811   -1.1830837208
 H   -0.0034288516   -2.7777402189   -1.4201615292
 H    1.5015019034   -2.6679800073   -0.4923574312
 H   -0.4856368633   -2.7699557304    1.2188452003
 H   -1.3505164766   -1.1176010088    2.5992088488
 H   -1.1742724267    0.6139052838    2.1529548142
 H   -3.0957517396   -1.3847223030    0.0166632745