19

 C   -0.0485619491    1.0626544543    0.5409768114
 O   -0.1976071509    0.0449452440   -0.4392701364
 C   -1.3807358209   -0.6511212036   -0.3290934067
 C   -1.3836172765   -2.0778582740   -0.7680087950
 C   -0.1374797376   -2.7266999158   -1.3272553145
 C   -1.4405381592   -1.7778218546    0.7352710520
 O   -0.2997878814   -1.9965024882    1.4915789412
 C   -2.6921112053   -1.9818877516    1.4736232985
 O   -2.6966454615   -2.3081962217    2.6436228749
 H    0.8969901554    1.5658360915    0.3292902871
 H   -0.8657437340    1.7962078108    0.4793833183
 H   -0.0186137940    0.6350540049    1.5490129433
 H   -2.2843414346   -0.0541386503   -0.4730597068
 H   -2.3202935163   -2.4220900975   -1.2005611637
 H    0.7553021013   -2.3416242099   -0.8358784470
 H   -0.1722667408   -3.8105859306   -1.1837355472
 H   -0.0564286928   -2.5257588277   -2.4000835563
 H   -0.6398858323   -2.2547893944    2.3642640340
 H   -3.6316534296   -1.8136062155    0.9086448528