18

 C   -0.1005336380    1.5078289896   -0.0665113886
 C    0.0520316662    0.0039895254   -0.0273285416
 C    1.4124778363   -0.6442714790   -0.1353457647
 O    2.5640408593    0.1475690255   -0.1385517503
 C    0.6797958067   -0.6685743387    1.1727241475
 C    1.1349983044   -0.1121255251    2.5144951097
 O    0.6453780723   -1.3392761187    3.1562260981
 C    0.2170150682   -1.8529166093    1.9437453181
 N   -0.3528382316   -2.9332766886    1.6579683580
 H    0.7962557770    2.0033954923    0.3138967890
 H   -0.2656572902    1.8537203498   -1.0927834457
 H   -0.9553500530    1.8356436860    0.5334945297
 H   -0.7619995519   -0.5656856209   -0.4689090241
 H    1.4899613651   -1.5905708030   -0.6693551523
 H    2.6842648458    0.5007984756   -1.0267122930
 H    2.2125119610    0.0026065372    2.6478822844
 H    0.6006256047    0.7627925408    2.8934816987
 H   -0.5062214924   -3.5082047789    2.4872839072