16

 O   -0.1257175139    1.3905800629    0.1204994443
 C    0.0001787125    0.0402377203    0.0240397739
 C   -1.0507367698   -1.0209133998   -0.0693685580
 C   -0.4100860119   -1.6365049737   -1.3061417337
 C    0.9103863984   -0.9551213799   -0.8350196747
 N    1.3050699028   -1.6236433064    0.4357004330
 C    0.0887746407   -1.0726740880    1.0433199488
 C   -0.2080878258   -1.0863954281    2.4290559183
 C   -0.4550144091   -1.0954243640    3.6074284507
 H    0.6327223479    1.7380054293    0.6056803256
 H   -2.0894596370   -0.9649083358    0.2267457238
 H   -0.3909066466   -2.7272650977   -1.4117426486
 H   -0.7979703196   -1.1787677160   -2.2200131595
 H    1.7100120621   -0.7079839034   -1.5303382656
 H    1.2984847310   -2.6431936572    0.3631244988
 H   -0.6727330817   -1.1019789226    4.6464425529