18

 O   -0.0932699895    1.4559075264   -0.0126549783
 C    0.0170070087    0.0352861230   -0.0151339635
 C   -1.4036194506   -0.5217772565    0.0601070943
 C   -1.4235002880   -2.0218402673   -0.2416458226
 C   -0.9208816032   -2.2899072256   -1.6800026376
 C    0.3266241735   -1.4832003441   -1.9977469283
 C    0.7321042531   -0.4606162710   -1.2505581084
 C   -0.6852413217   -3.7216496159   -1.8980978692
 N   -0.4986685581   -4.8499467169   -2.0650250359
 H    0.7934709015    1.8289960482    0.0223220998
 H    0.5802841185   -0.2947232629    0.8754076236
 H   -1.8278528021   -0.3210019149    1.0478449330
 H   -2.0142743200    0.0228352542   -0.6698841428
 H   -0.7765670666   -2.5564130079    0.4630787069
 H   -2.4304851155   -2.4310814287   -0.1227025557
 H   -1.7103416090   -1.9966621799   -2.3887662392
 H    0.8796838444   -1.7783855717   -2.8843719225
 H    1.6344163246    0.0799530013   -1.5316822335