21

 C    0.2435183637    1.6936417987    0.0145609624
 C   -0.1485433229    0.2272452311   -0.2007346401
 N    0.6353569826   -0.3621299719   -1.2735530211
 C    1.6778197193   -1.0719575849   -1.0735708266
 C    2.2296549332   -1.4439926286    0.2883232880
 O    2.2364909017   -0.7111931160    1.2453764797
 N    2.3138864079   -1.7104915729   -2.1320335213
 C    1.7305851406   -1.5324538964   -3.4520687397
 C    3.7674154889   -1.8047970814   -2.1281811964
 H    1.2603863445    1.7537698085    0.4107454337
 H    0.1995899501    2.2481311625   -0.9275316474
 H   -0.4363553995    2.1683737449    0.7291075782
 H   -0.0621916069   -0.3086993256    0.7523447503
 H   -1.1991332696    0.1798862034   -0.5123220486
 H    2.5880371445   -2.4943987585    0.3669714446
 H    1.8918167313   -0.5186372704   -3.8472528111
 H    2.1868106197   -2.2544326657   -4.1358375416
 H    0.6548194003   -1.6991658145   -3.4007870893
 H    4.1500697056   -1.9505080171   -1.1156661583
 H    4.0833591786   -2.6597347698   -2.7341783317
 H    4.2437258864   -0.8996243654   -2.5369419836