18

 O    0.1052120463    1.4123594381   -0.0869881204
 C    0.0319328843   -0.0053307143   -0.0046400503
 C    0.7222024910   -0.5164627140    1.2590812572
 O   -0.0273388310   -0.1518506215    2.4307407349
 C   -1.3732976104   -0.2738653742    2.3153864680
 N   -2.0679210178   -0.4635789887    1.2730725647
 C   -1.3955137497   -0.5233468941    0.0027065799
 C   -2.2617728139   -0.2747432555   -1.2067355255
 C   -1.7929904456   -1.6713164259   -0.9022737738
 H   -0.4776677027    1.7806797623    0.5859381259
 H    0.5740813018   -0.3751783358   -0.8808270842
 H    0.8227995471   -1.6090046388    1.2282668900
 H    1.7068159545   -0.0623929956    1.3807656387
 H   -1.8454498718   -0.1691034139    3.2898742057
 H   -3.3008573566   -0.0389768700   -1.0110079391
 H   -1.8133652508    0.2581960293   -2.0374606816
 H   -1.0235081156   -2.1111645254   -1.5285942896
 H   -2.5144660991   -2.3731197418   -0.5014464904