21

 C    0.0813350419    1.4893956995    0.0646929632
 C    0.0042291485   -0.0100740972   -0.0065735112
 C   -0.0596140953   -0.6874961293   -1.1562668340
 C   -0.1692039278   -2.1869194887   -1.1925778286
 O   -0.7798511450   -2.7386969260   -0.0323818781
 C   -0.3901445654   -2.2178170328    1.2082356375
 C   -1.2473483080   -2.8306011055    2.2863019006
 C    1.0391415485   -1.8593890644    1.5009543438
 C   -0.0079506851   -0.7559970363    1.2799337346
 H    0.9832400811    1.8130852943    0.5994007636
 H    0.0920988749    1.9397289509   -0.9314894237
 H   -0.7729487967    1.9022966539    0.6164787324
 H   -0.0330463865   -0.1699805956   -2.1110893623
 H   -0.8030666255   -2.5049276142   -2.0276966929
 H    0.8182779846   -2.6530937658   -1.3575771078
 H   -1.1075365224   -3.9160626894    2.3156354605
 H   -0.9888765237   -2.4221521798    3.2667519178
 H   -2.3051222436   -2.6291242591    2.0909443628
 H    1.4072518735   -2.0208914835    2.5087261128
 H    1.7881012910   -1.9751891204    0.7259166629
 H   -0.3194788390   -0.1939936205    2.1557003962