21

 O   -0.1476454227    1.4214767689   -0.0494355444
 C   -0.0691027641    0.0238493832   -0.0166848446
 C   -0.4581178714   -0.7211860137    1.2406371789
 C   -1.3678236493   -0.7180335208    0.0240639542
 C   -2.7033249547    0.0325782037    0.0458164734
 C   -3.7784622976   -1.0741457900   -0.0868987591
 C   -3.0931440739   -2.2096458067   -0.8356417138
 C   -2.3076788340   -1.8662209859   -2.0772210578
 C   -1.5969267672   -1.9917846728   -0.7480698700
 H    0.5801466320    1.7728278150    0.4741417949
 H    0.7329630207   -0.4002749182   -0.6226480309
 H    0.0817981821   -1.6287778812    1.4939354296
 H   -0.7673048162   -0.1201096365    2.0901223527
 H   -2.8328876024    0.6374323650    0.9453257166
 H   -2.7529044504    0.7247867132   -0.8007461424
 H   -4.0776736332   -1.4326863167    0.9052467718
 H   -4.6838662335   -0.7105136396   -0.5849169403
 H   -3.5153346706   -3.2059119021   -0.7604818830
 H   -2.1511826776   -2.6629877521   -2.7964124240
 H   -2.4157166698   -0.8837337300   -2.5258394741
 H   -0.9091826561   -2.8175983126   -0.6008751877