22

 C   -0.4482591252    1.5157289446   -0.2301950827
 C    0.0661825107    0.1000111352    0.0179133471
 C   -1.0289360801   -0.9407453697   -0.2140037899
 C    1.3999795488   -0.2427256895   -0.7236523210
 C    2.1120465178   -0.5199022689    0.6385596841
 C    0.8078677004   -0.0889676006    1.3819292225
 C    2.4841985955   -1.9758416566    0.8494780426
 N    3.7750747824   -2.2065724171    1.2268745403
 O    1.6874648623   -2.8860118600    0.6937523143
 H    0.3350270202    2.2643465006   -0.0646823132
 H   -0.8055692628    1.6298765032   -1.2605651165
 H   -1.2834508752    1.7541068088    0.4391280275
 H   -1.4011283423   -0.8946058912   -1.2445471630
 H   -0.6409444174   -1.9463731782   -0.0312669240
 H   -1.8796880721   -0.7701603534    0.4566704411
 H    1.3440295124   -1.1110670334   -1.3833099264
 H    1.8348592276    0.5953268567   -1.2745125462
 H    2.9658092088    0.1349923112    0.8307037860
 H    0.9252099003    0.8313825296    1.9599297516
 H    0.3851122263   -0.8622681374    2.0265880927
 H    4.4407171180   -1.4666736839    1.3582828901
 H    4.0667388738   -3.1585571198    1.3778098029