20

 C   -0.0932524171    1.5353419666   -0.0071419963
 C    0.0251256975    0.0216533701   -0.0194012899
 O    1.1276294079   -0.3241593403   -0.9761786243
 C    2.0176952416   -0.3888176294    0.2139091736
 C    0.7406150744   -0.7643670678    1.0172328313
 C    0.4027361907   -2.2619545078    0.7286865578
 C   -1.1224455001   -2.1475903211    0.4763240360
 C   -1.2346209643   -0.6452593155    0.6938292422
 N   -0.3679605081   -0.3532985518    1.9685746625
 H    0.8735795065    2.0345413957    0.0980331827
 H   -0.5129238124    1.8407258872   -0.9733547740
 H   -0.7541076025    1.8853408901    0.7866227282
 H    2.7880492919   -1.1550254277    0.0984784735
 H    2.4663382170    0.5862982449    0.4193664743
 H    0.9418720400   -2.6684663498   -0.1269431512
 H    0.6486053789   -2.8642599256    1.6099110833
 H   -1.4151881668   -2.4448561398   -0.5346805916
 H   -1.7327280865   -2.7151669790    1.1849428177
 H   -2.2157673078   -0.1660579513    0.6776483171
 H   -0.5436198508   -1.0515627579    2.6951682473