19

 C   -0.4157595542    1.4548677740   -0.1566039320
 C   -0.0137617777   -0.0044314976   -0.0367370699
 C    1.3067641774   -0.5859399890   -0.6117403094
 C    2.1325042641    0.0986768361    0.4998663050
 C    0.8785808748   -0.5826161029    1.1271367418
 O    1.1354629707   -1.7579469135    0.2794012513
 C    0.5211392384   -0.7943070365    2.5730444549
 C    0.4293979055    0.4652829454    3.4138765595
 O    0.3198206176   -1.8998884037    3.0135777041
 H    0.3997100894    2.1506267670    0.0555876024
 H   -0.7727058560    1.6626007075   -1.1712779222
 H   -1.2403273728    1.6847881050    0.5268424071
 H   -0.8531170758   -0.6773057418   -0.2306432736
 H    1.5795337110   -0.7884314922   -1.6476643424
 H    3.0740245070   -0.3961813293    0.7397555894
 H    2.2104021789    1.1867890123    0.5147285761
 H   -0.2641553127    1.1838827889    2.9632812776
 H    0.0958693997    0.2086501084    4.4199523210
 H    1.4078379046    0.9563478819    3.4656768893