18

 C    0.0451527474    1.4987131767    0.0067418665
 C    1.3629424648    0.7415909075   -0.0094577950
 C    0.0667015722    0.0002398654    0.0017534584
 C   -0.5695372591   -0.9177484165    1.0514193186
 C   -0.0689490291   -2.3472329740    0.7409511465
 C   -0.0846094448   -2.3425210001   -0.7494538157
 C   -0.5913956029   -0.9110818097   -1.0402323309
 C   -1.6793304495   -1.3033597099    0.0158353201
 N   -1.3028147453   -2.7915173194    0.0072203034
 H   -0.2361098717    2.0096129913    0.9222372835
 H   -0.2552016156    2.0153983348   -0.8993938177
 H    1.9434834384    0.7534334454   -0.9264804213
 H    1.9625461623    0.7476604777    0.8952727222
 H   -0.7504619004   -0.6185933426    2.0817869555
 H    0.5089022620   -3.0274638886    1.3542042729
 H    0.4801647411   -3.0188292716   -1.3790114685
 H   -0.7937930313   -0.6053586087   -2.0646603362
 H   -2.7192870884   -0.9864912375    0.0277117077