21

 C    0.7845271864    1.5685518327   -0.1550157554
 C    0.1672426386    0.1897544535    0.0488315143
 C    0.7075772157   -0.9414121392   -0.8842604789
 O    1.3593897492   -0.5995479769   -2.0812448166
 C    1.5326019741   -1.5489788212    0.2957263444
 C    3.0355241811   -1.2980006763    0.2519893482
 C    0.6950890257   -0.6441749699    1.2781134852
 C    1.3821123800    0.0473078576    2.3483911044
 C    1.9624286605    0.6279640320    3.2285066682
 H    1.8775940802    1.5580060149   -0.0956564708
 H    0.4999873368    1.9685551326   -1.1331871081
 H    0.4363896993    2.2631205730    0.6146397163
 H   -0.9223086279    0.2863747434    0.0362450584
 H   -0.0981908130   -1.6168288703   -1.1848298975
 H    2.0841101797   -0.0008490318   -1.8746745461
 H    1.3584082518   -2.6180365516    0.4486579309
 H    3.2867762733   -0.2365152458    0.1595464387
 H    3.5113813980   -1.6530192336    1.1704212519
 H    3.4823495270   -1.8291464779   -0.5941876771
 H   -0.1266188286   -1.2289998478    1.7036758704
 H    2.4673911521    1.1357822526    4.0123653493