16

 C    0.0965691507    1.3823794499    0.0022184101
 N   -0.0951864726   -0.0504227726    0.0202018515
 C   -1.2700947670   -0.6869792759    0.0052209811
 N   -2.4122221296    0.0248765729   -0.0145904769
 H   -3.2906584829   -0.4599855678    0.0344805488
 H   -2.4204241177    1.0232960023    0.0936653775
 C   -1.2582400703   -2.0983034354   -0.0040651236
 C   -2.2518250394   -3.0910122840   -0.0050865745
 N   -1.6439684403   -4.2699101699   -0.0103601206
 N   -0.2977466329   -4.0269775716   -0.0119316429
 N   -0.0512652933   -2.7482561301   -0.0088063108
 H    1.1666422334    1.5892906711   -0.0203635894
 H   -0.3547498358    1.8416035160   -0.8864033416
 H   -0.3177082533    1.8623618360    0.8985947695
 H    0.6930704259   -0.6894869689    0.0181413933
 H   -3.3304199050   -3.0100969021   -0.0031321814