19

 C   -0.1178820429    1.5426550701    0.1256630858
 C    0.0290539922    0.0266046148   -0.0190864014
 C    0.7621807224   -0.4518722458   -1.3048066435
 C    2.2183702548    0.0555281792   -1.3603755268
 C    0.7289545475   -2.0121619463   -1.3089814840
 C    1.4189010067   -2.6212677069   -2.4432412783
 N    1.9778221867   -3.0999462219   -3.3337380932
 C    0.0271661186    0.0375534558   -2.4832500476
 N   -0.5655705413    0.4356640634   -3.3919647761
 H    0.8503787627    2.0421142282    0.2194732243
 H   -0.6427212279    1.9739109935   -0.7317592502
 H   -0.6956341930    1.7758951915    1.0243550596
 H    0.5825701145   -0.3793287437    0.8365126663
 H   -0.9642455050   -0.4365695573    0.0001037938
 H    2.7555303558   -0.2722991203   -0.4645436490
 H    2.7347844748   -0.3374357464   -2.2389111967
 H    2.2523101482    1.1452564150   -1.4056856434
 H    1.1987491140   -2.3679492108   -0.3852162086
 H   -0.3088554487   -2.3602010122   -1.2994975014