12

 O   -0.2451078718   -0.0849190241    0.0019190297
 C   -0.0976663753    1.1052224780    0.0063900131
 C    1.2410950968    1.8417046483   -0.0016630728
 C    2.3958001017    0.9687095281   -0.0165922479
 C    3.3658133134    0.2482164156   -0.0290740668
 C    4.4576834591   -0.5628935196   -0.0431298025
 C    5.4277267174   -1.2809575787   -0.0556072967
 C   -1.2631386642    2.0158338613    0.0210087450
 N   -2.1639969187    2.7405404838    0.0323486130
 H    1.2357624661    2.5171761404   -0.8702129253
 H    1.2512642610    2.5077723109    0.8740938735
 H    6.2794750646   -1.9152833740   -0.0665797724