19

 C    0.0527276373    1.5265869692   -0.1622629771
 O   -0.2315770958    0.1475913837   -0.2258195938
 C    0.6186455644   -0.5751385079   -1.1070898350
 C    1.9791240957   -0.9045368775   -0.5360675153
 C    2.2313546709   -2.2125876978   -0.5500773459
 C    1.0995237048   -3.0211412447   -1.1288670084
 C    0.0240735287   -1.9633159442   -1.3926670047
 C   -1.4144288564   -2.2192773262   -1.2826186218
 O   -0.7835440008   -2.0991826042   -2.5629056392
 H    1.0428776638    1.7329422537    0.2706953582
 H    0.0081010713    1.9963366886   -1.1574149469
 H   -0.7062208808    1.9826894584    0.4782292827
 H    0.7021195232   -0.0150927051   -2.0540221393
 H    2.6598950725   -0.1401720775   -0.1802392344
 H    3.1499809180   -2.6729263310   -0.2022308236
 H    1.3795279598   -3.5117575259   -2.0696888059
 H    0.7595368585   -3.8132997437   -0.4508100934
 H   -1.7576253033   -3.2207920770   -1.0238411353
 H   -2.0774404117   -1.4035731910   -1.0073954107