20

 C   -0.0437086728    1.4925461685    0.0041587467
 N    0.0389626771    0.0363626930    0.0278448533
 C    1.3818902487   -0.5178465721   -0.1956224776
 C    0.7803553932   -0.5299530653    1.1637067092
 C    0.5676427845   -2.0381415968    1.4169657479
 C   -0.6086767012   -2.5752686625    0.5711407284
 C    0.0226638572   -2.5625380329   -0.8556100890
 C    1.4361853887   -2.0206585057   -0.5458046122
 O    1.7082460663   -2.6111117605    0.7429565844
 H    0.8529980138    1.9940869031    0.4057999370
 H   -0.1898173361    1.8273264668   -1.0276398389
 H   -0.9081836659    1.8129334231    0.5941302732
 H    2.1901394040    0.1514816654   -0.4741388345
 H    1.1133588760    0.1298257696    1.9590921881
 H    0.5808765604   -2.3301477216    2.4666099311
 H   -0.8577585331   -3.5893064065    0.8916521889
 H   -1.4970253415   -1.9467765264    0.6395561965
 H    0.0990174971   -3.5700131580   -1.2705878581
 H   -0.5282923504   -1.9272332531   -1.5496441152
 H    2.2237901539   -2.2970853883   -1.2461353890