13

 O   -0.1340186838    1.3620177708   -0.1052647000
 N    0.0595841455   -0.0386708474   -0.0865344562
 C   -1.0672508345   -0.6572072167    0.0697673816
 C   -1.0947682236   -2.1036085281    0.1169274035
 C   -2.2770462405   -2.7307479005    0.2799916124
 N   -3.4401769039   -2.0136076073    0.3998938155
 N   -3.4998489870   -0.6667840466    0.3669348122
 C   -2.3835663959   -0.0286318921    0.2115483139
 H    0.7651246166    1.6821916475   -0.2247619126
 H   -0.1727525705   -2.6613417961    0.0214397990
 H   -2.3879802898   -3.8072807130    0.3260479763
 H   -4.3296716141   -2.4649421923    0.5228142175
 H   -2.4587829286    1.0502096319    0.1884096470