15

 O   -0.0238362812    1.4294532072    0.0133489863
 C   -0.0020653690    0.0174628015    0.0000722748
 C   -1.3957164857   -0.5802971013    0.0354347190
 O   -2.0467771985   -0.1635551946   -1.1860439811
 C   -3.3144136020   -0.5364645521   -1.3347331536
 N   -3.9983074275   -1.2576499528   -0.4853296265
 O   -5.2436401543   -1.3900174842   -1.0583891931
 N   -5.3132028626   -0.7478934735   -2.2598919719
 C   -4.1417305742   -0.2161442033   -2.4523141217
 H   -0.5340374533    1.7107073394   -0.7537410489
 H    0.5384529586   -0.3752754468   -0.8752086061
 H    0.5387370912   -0.3014539130    0.8967534245
 H   -1.3716083791   -1.6749052034    0.0782995668
 H   -1.9686329630   -0.2033215317    0.8887602789
 H   -3.9116062994    0.3572807586   -3.3357508774