21

 C   -0.0680091539    1.6110479541   -0.0606445373
 C    1.4635891223    1.5173006952    0.0136991611
 C    1.3483604723    0.1996473342    0.8446234946
 C    2.4726895842   -0.4618174792    0.0210676593
 C    2.2343321059   -1.9103027379   -0.4133240686
 C    1.0689499013   -1.7805730475   -1.4378107805
 C    0.6526863336   -0.3028862421   -1.3606770583
 C    0.0080742270    0.0641544260   -0.0056533718
 C    1.9580847261    0.5053171735   -1.0904494352
 H   -0.4841453296    2.0430927667    0.8549042238
 H   -0.5417061882    2.0714946577   -0.9348882761
 H    2.1167873324    2.3471499782    0.2815800620
 H    1.2768776323    0.1650927188    1.9317935904
 H    3.4669014994   -0.2379820100    0.4145159755
 H    3.1262453030   -2.3460244549   -0.8750049627
 H    1.9740274342   -2.5467944423    0.4390952215
 H    1.4136697669   -2.0239118987   -2.4487335170
 H    0.2310780437   -2.4504369336   -1.2188723046
 H    0.0589832980    0.0274399536   -2.2171425402
 H   -0.8345754016   -0.5415835418    0.3309828452
 H    2.5709133706    0.8062745399   -1.9402660412