16

 C   -0.0144863277    1.4967155071   -0.0023550055
 C    0.0325214986   -0.0157861097    0.0342328587
 O    1.1016282424   -0.6274723928    0.0387446150
 C   -1.2272620216   -0.7323866688    0.0531816299
 C   -1.3381290567   -2.1205910358    0.0469555692
 N   -0.3603374650   -3.0765189028    0.1294589771
 N   -2.6805247931   -2.3760383702    0.0247390115
 C   -3.3312779256   -1.1497629503    0.0241163038
 N   -2.4938030546   -0.1581683757    0.0418930427
 H    1.0025199964    1.8904701617   -0.0030184403
 H   -0.5526305005    1.8389349429   -0.8919568874
 H   -0.5691995512    1.8802396999    0.8597038643
 H    0.5528281489   -2.6412045941    0.0187513595
 H   -0.4927518792   -3.9131508720   -0.4212327415
 H   -3.1121866493   -3.2846235772    0.0655982110
 H   -4.4087170317   -1.0848418923    0.0022663820