27

 C   -0.1784667378    1.5569551946    0.0684947997
 C   -0.2068229285    0.0356756649   -0.1018555072
 C    0.7896324112   -0.4751329987   -1.1482272829
 C    0.7676230601   -1.9968788615   -1.3225018961
 C    1.7658721312   -2.5074137718   -2.3710295332
 C    1.7394138140   -4.0154892741   -2.5184517588
 C    0.7416597691   -4.6954341991   -3.4293618363
 C    2.2160279219   -4.7435199988   -3.7563763443
 C    2.7739198608   -4.0345845321   -4.9717022137
 H    0.8129241936    1.9018851146    0.3831765800
 H   -0.4200620209    2.0654719105   -0.8717061738
 H   -0.9003471687    1.8898438367    0.8210486568
 H    0.0041831711   -0.4450734483    0.8627744446
 H   -1.2197651579   -0.2829201270   -0.3818940610
 H    0.5779882039    0.0054748426   -2.1141139050
 H    1.8035717605   -0.1545592755   -0.8696035347
 H    0.9808716685   -2.4762648064   -0.3567257715
 H   -0.2437989488   -2.3206847301   -1.6024905412
 H    1.5471477802   -2.0291300653   -3.3335149719
 H    2.7784404189   -2.1813150919   -2.0938669301
 H    1.9394318185   -4.5372354970   -1.5842483824
 H    0.2427387287   -5.5979634262   -3.0929056674
 H    0.1202921496   -4.0530571606   -4.0476079641
 H    2.6999343275   -5.6967777255   -3.5561974374
 H    2.2409846085   -3.1037787633   -5.1852357453
 H    3.8337473392   -3.7869576199   -4.8414815718
 H    2.6895794859   -4.6684574307   -5.8616194109