13

 O   -0.1270669380    0.0442665956    0.0038135218
 C   -0.0366782445    1.2409549792    0.0083912705
 C    1.3454273829    1.9380684219   -0.0025925559
 O    2.3650691683    1.2811514486   -0.0170053585
 C    1.3613918164    3.3960778783    0.0050885260
 C    2.4027924879    4.2888278675   -0.0011713736
 C    1.8259638621    5.5855195702    0.0120264981
 C    0.4729373886    5.3946795746    0.0255583330
 O    0.1714785595    4.0816822084    0.0216697762
 H   -0.9251244169    1.9027988056    0.0201537192
 H    3.4475432762    4.0229231990   -0.0138267376
 H    2.3377673555    6.5345927088    0.0116564510
 H   -0.3675022980    6.0699306624    0.0382622897