19

 C   -0.0378014310    1.4293569513   -0.1803606873
 C   -0.0125781535   -0.0194783859   -0.0881753680
 C    0.0090918738   -1.2272577136   -0.0109301319
 C    0.0339071235   -2.5845257025    0.0768294955
 C    0.0585582407   -3.7927662492    0.1542583299
 C    0.0678121713   -5.2467750465    0.2563896853
 C   -1.3211905561   -5.8659393628    0.1663998806
 C   -1.9283817466   -6.1695251087   -1.1763332620
 C   -1.4723853594   -7.2966485691   -0.2800133672
 H    0.9755168840    1.8399336813   -0.2575223742
 H   -0.5986044700    1.7622150398   -1.0612821860
 H   -0.5102149178    1.8757402193    0.7021802811
 H    0.7007523843   -5.6649670514   -0.5386773089
 H    0.5422772180   -5.5407474702    1.2031751444
 H   -2.0042165551   -5.5220051621    0.9371016003
 H   -2.9927118574   -6.0118659240   -1.3089286926
 H   -1.3357343199   -5.9530733011   -2.0592429140
 H   -0.5752369173   -7.8377624323   -0.5636927134
 H   -2.2236992016   -7.9104452723    0.2041752786