14

 O   -0.0223840686    1.4328286219    0.0065374307
 C   -0.0010795786    0.0180448509    0.0022566335
 C   -1.4096870744   -0.4940267226    0.0125992081
 C   -2.4844743299    0.3209662626    0.0240239549
 O   -3.7651813844   -0.0881202723    0.0333465999
 N   -4.0735498636   -1.4393925338    0.0314021244
 C   -3.0817744645   -2.2594087051    0.0205896610
 C   -1.6433950423   -1.9242046839    0.0105830465
 O   -0.7709035474   -2.7818175930   -0.0007055575
 H    0.8847785727    1.7494241158    0.0001722586
 H    0.5125537280   -0.3870777790   -0.8838390228
 H    0.5273271321   -0.3922050341    0.8772314573
 H   -2.4219631369    1.4018762207    0.0267869652
 H   -3.3633877423   -3.3092684682    0.0192335301