17

 O    0.1314710751    1.3518835190   -0.1440733022
 C    0.0123399728   -0.0292810467    0.0052087083
 C    0.4667508721   -0.5944158809    1.3766830829
 O   -0.1971846544    0.2086439800    2.3817705108
 C   -1.6041680651    0.0739489490    2.3390220669
 O   -2.1357510739    0.2305725779    1.0380824882
 C   -1.4398664403   -0.5728193618    0.0551239107
 C   -1.1928290466   -1.9910671596    0.5375546774
 C   -0.0933301879   -2.0035184306    1.2996774568
 H   -0.3661352705    1.7498477640    0.5806508038
 H    0.5711199521   -0.4978399462   -0.8086106800
 H    1.5321759858   -0.5109176589    1.5910304867
 H   -1.9028507386   -0.8978293289    2.7540882898
 H   -2.0169590092    0.8813697806    2.9477424436
 H   -2.0130559168   -0.4707536780   -0.8663331976
 H   -1.8432189400   -2.8303374023    0.3238793744
 H    0.3220650755   -2.8548564667    1.8247573292