23

 C   -0.0123747811    1.4096139253   -0.0452452017
 O   -0.1242098911    0.0098124823   -0.1459020282
 C    0.6855726435   -0.5936898597   -1.1491779907
 C    2.1398389064   -0.7121086843   -0.6782527913
 C    0.0469093092   -1.9467817212   -1.4911876485
 C    0.8030460563   -2.6845746536   -2.5954205860
 C   -0.3286025496   -2.8498795539   -0.2854061563
 O   -1.7112902890   -2.8906603101   -0.6883886007
 C   -1.4865010176   -1.9177190527   -1.7274822627
 H    0.9828174897    1.7345761289    0.2915408968
 H   -0.2284081412    1.9043856096   -1.0052296751
 H   -0.7491909572    1.7370366931    0.6924516545
 H    0.6525511878    0.0347641105   -2.0572163969
 H    2.7897570599   -1.0783702021   -1.4770595721
 H    2.5273873640    0.2604186903   -0.3631896891
 H    2.2131690883   -1.3964857963    0.1731211896
 H    1.8106723291   -2.9733345827   -2.2811685968
 H    0.2690605303   -3.5995761634   -2.8693852585
 H    0.8941285897   -2.0677489525   -3.4974899460
 H    0.1264911616   -3.8484115519   -0.2725574878
 H   -0.2042772334   -2.3762741826    0.6950344548
 H   -1.9643336533   -0.9595885462   -1.4976375940
 H   -1.8261558124   -2.2759382069   -2.7077106932