20

 C   -0.2801528521    1.7132942594   -0.1761587288
 C   -0.0303668699    0.2789534367    0.2828560975
 N   -1.2678574947   -0.4960558211    0.1888162327
 C   -1.5604270981   -1.2156813496   -1.0456361307
 C   -1.2513925572   -1.9489497506    0.2169097107
 C    0.0058830329   -2.8106847965    0.4063266596
 N   -0.4198917698   -4.2081476738    0.5557807937
 C    1.0145104856   -2.6526968583   -0.6616188429
 N    1.8090548033   -2.6037347256   -1.5013938607
 H    0.6261944839    2.3158166762   -0.0643016628
 H   -0.5745676960    1.7386041731   -1.2303140706
 H   -1.0815797807    2.1703575908    0.4107312577
 H    0.7953522247   -0.1542797734   -0.3010871459
 H    0.2779581015    0.2759056035    1.3356147473
 H   -2.5824776739   -1.1511339079   -1.4100320542
 H   -0.7970271417   -1.2285023460   -1.8226818770
 H   -2.0658397339   -2.3887858436    0.7893169015
 H    0.4843288136   -2.5177874076    1.3499132640
 H   -0.8330187774   -4.5317430414   -0.3151769179
 H    0.3873025996   -4.7998662643    0.7295447568