21

 C   -0.0359890985    1.4957772432    0.0543116051
 C    0.0618118635   -0.0101637622    0.0009473907
 C   -0.7781865885   -0.8422555943    0.9374694113
 C    0.7330210982   -0.8270565762    1.0965027219
 C    1.4506472690   -1.9370093491    0.3983078198
 C    2.2147238819   -2.9691135265    1.1615066112
 O    2.8039444303   -3.8947571028    0.2662938434
 C    1.2675789966   -1.8761915127   -0.9239335379
 C    0.4505501199   -0.6695372996   -1.3300627110
 H    0.8929357495    1.9668388189   -0.2879367023
 H   -0.8478019098    1.8638278807   -0.5848650678
 H   -0.2340368004    1.8481321250    1.0718144636
 H   -1.3649116340   -0.3033902147    1.6756985215
 H   -1.2365463412   -1.7571622435    0.5741671658
 H    1.1632003919   -0.3650217251    1.9806556388
 H    2.9802149936   -2.4656727279    1.7798640498
 H    1.5339958212   -3.4723478745    1.8714891811
 H    3.2744233483   -4.5529658046    0.7850570281
 H    1.6423622446   -2.6064451301   -1.6292603913
 H   -0.4291201456   -0.9414564870   -1.9286185327
 H    1.0391359097    0.0208026430   -1.9521071188