14

 O   -0.0167957594    1.3193085611    0.1616436769
 N    0.0232251897   -0.0584273593    0.1144833790
 C   -1.1209752958   -0.6149419613    0.0132150761
 C   -1.2560449132   -2.1163784061   -0.0502236673
 C   -2.7086936604   -2.3088688577    0.4047671498
 O   -3.3854538518   -1.0820583525    0.0750342770
 C   -2.4949896662   -0.0447656401   -0.0386908542
 N   -2.8282325901    1.1658568760   -0.1869277136
 H    0.9158101354    1.5471920713    0.2536228690
 H   -1.1279713556   -2.4640340243   -1.0820580647
 H   -0.5296175034   -2.6363094917    0.5755489019
 H   -3.2287119911   -3.1221096705   -0.1047830933
 H   -2.7765849616   -2.4690761133    1.4875331294
 H   -3.8479150162    1.2457255084   -0.1861168863