19

 C   -0.7050609407    1.3532245201    0.1137376310
 C    0.0613463800    0.0451200331    0.0678128946
 O   -0.7890874922   -1.0414871956   -0.3007548054
 C    1.3998359815   -0.0354206269   -0.7245591664
 C    1.9272877967   -0.9572051088    0.3959670935
 O    2.7808020290   -1.7910718770    0.4514760647
 C    0.8010531779   -0.4879180498    1.3666145567
 C    1.3063976037    0.5917800473    2.3165684077
 O    0.1174607761   -1.4373279952    2.1233980497
 H   -0.0638890507    2.1869715057    0.4116348111
 H   -1.1211681230    1.5925835749   -0.8723721401
 H   -1.5357626855    1.2802747131    0.8220672666
 H   -1.0906505353   -0.9078427320   -1.2048770415
 H    1.3520983222   -0.4731425719   -1.7242525022
 H    1.9431404817    0.9135425775   -0.7723162674
 H    1.8858007265    1.3623363738    1.8010746415
 H    0.4611112115    1.0647783039    2.8246776196
 H    1.9469697823    0.1259772218    3.0698252725
 H   -0.3618528918   -1.9953721940    1.4972182639