20

 C   -0.1062377586    1.4668981830   -0.2560796176
 C    0.0286507348   -0.0086145005    0.1212113410
 O    0.6766333449   -0.1828140941    1.3782437217
 C   -1.3233417162   -0.6958950019    0.1130422104
 N   -1.8110053255   -1.2433141885   -1.1453054557
 C   -1.4811808574   -2.1859411870   -0.0587032099
 C   -0.3153735949   -3.1311219630   -0.2432810602
 C   -2.6591174961   -2.7367774823    0.6786471522
 O   -3.7700619686   -2.2618621694    0.6180374963
 H    0.8733169802    1.9520131124   -0.2416947119
 H   -0.5392610019    1.5714081704   -1.2553213711
 H   -0.7607966717    1.9914210855    0.4517705791
 H    0.6795638586   -0.5009231123   -0.6061660486
 H    0.1915634122    0.3297528477    2.0345176288
 H   -2.0652964943   -0.2318606495    0.7655952082
 H   -2.8277223864   -1.1560397783   -1.1772604401
 H    0.4720419560   -2.6718200586   -0.8408679744
 H    0.1107561766   -3.4153128242    0.7241647329
 H   -0.6335750834   -4.0423988592   -0.7611297052
 H   -2.4511843582   -3.6332973202    1.3014607144