19

 C    0.0623544370    1.6248274306   -0.1406465549
 C    0.0210913000    0.1138406340    0.0252216226
 O    0.7274483342   -0.4871002970   -1.0731504782
 C    1.5311217483   -1.5075793983   -0.5396460265
 O    1.9176268859   -1.0801216801    0.7482879091
 C    0.7657873049   -0.4468181684    1.2474800313
 C    0.8645528800    0.1932950011    2.5954383727
 C    0.0445332263   -1.0741369679    2.4053929616
 O   -1.3500583663   -0.9958438239    2.3893797572
 H    1.0902529721    1.9922252753   -0.0742756013
 H   -0.3446600114    1.9011312882   -1.1173391057
 H   -0.5409664247    2.1148925302    0.6296545420
 H   -1.0172615447   -0.2391576306    0.0343964028
 H    0.9710712537   -2.4584286500   -0.4752826035
 H    2.4241255358   -1.6323220331   -1.1580748897
 H    1.8117311601    0.1113882498    3.1174550302
 H    0.3246051480    1.1213643927    2.7524336600
 H    0.4658653591   -1.9991595362    2.7976427973
 H   -1.6528137783   -0.8040489665    3.2833233932