15

 O    0.0927755158    1.3764234981    0.5628320314
 C    0.0679136203    0.1157069933   -0.0851125771
 C   -1.3014576137   -0.4915535228   -0.1015948094
 N   -1.9736974832   -1.0386271831    1.1281179171
 C   -1.8281266890   -1.9060280776   -0.0444598700
 C   -3.0307970144   -1.5787580867   -0.9443166147
 C   -2.4414444127   -0.1409707049   -1.0333902324
 O   -2.6598329358    0.8106907732   -1.7272736850
 H   -0.4918618854    1.9639344032    0.0708984270
 H    0.4416919794    0.1879623022   -1.1179556678
 H    0.7598074478   -0.5292084372    0.4691948221
 H   -1.2158013138   -1.2434865819    1.7815364913
 H   -1.2520152427   -2.8217977559   -0.0213187876
 H   -3.0150866233   -2.0594107945   -1.9265334693
 H   -4.0131447094   -1.6906578354   -0.4816560156