16

 N    0.6266013222    0.0059272777   -0.6019300663
 C   -0.2976968439    0.2172865796    0.3631372500
 O   -0.3190422824    1.1760451277    1.1095984899
 C   -1.4135935891   -0.8442976535    0.4499521192
 N   -1.0372458823   -2.1983807688    0.0914282202
 C   -0.9243295824   -3.2717767432    0.9105422952
 C   -0.5173343593   -4.3355139492    0.1307936949
 C   -0.4034949447   -3.7955525202   -1.1632726278
 N   -0.7220241936   -2.5018722116   -1.1877563459
 H    1.3330067014    0.7084903277   -0.7454508923
 H    0.5280936509   -0.7667396382   -1.2461051640
 H   -1.7730112457   -0.8428228945    1.4784895456
 H   -2.2337967353   -0.5221674666   -0.2001840416
 H   -1.1448785569   -3.1965212059    1.9636213418
 H   -0.3358280618   -5.3480083503    0.4514042062
 H   -0.1114693070   -4.2895947205   -2.0783482752