19

 N   -0.0310438182    1.3468927559   -0.1628994954
 C    0.0739368426    0.0204846044    0.1431761969
 O    1.1301803433   -0.4941302041    0.4545797263
 C   -1.2405237735   -0.7585066166    0.0699773564
 C   -1.0113144660   -2.2670983208   -0.0294445844
 C   -2.3135724444   -3.0678429483    0.0359517844
 C   -2.0560067578   -4.5851207228   -0.0598748756
 C   -3.2870697590   -5.3700203193   -0.0010106147
 N   -4.2722884411   -5.9721652563    0.0466000159
 H    0.7822508731    1.9282474154   -0.0426977757
 H   -0.9148477472    1.7869917290   -0.3491573523
 H   -1.8139934521   -0.5242978214    0.9778790758
 H   -1.8431954342   -0.3955984741   -0.7718877320
 H   -0.4824822324   -2.4913211150   -0.9639214963
 H   -0.3339546016   -2.5679659250    0.7762020059
 H   -2.8422976194   -2.8552934342    0.9724452531
 H   -2.9881094056   -2.7699972806   -0.7752392353
 H   -1.5365504206   -4.8230157763   -0.9955938367
 H   -1.3966329258   -4.9087615900    0.7539145037