18

 O    0.0918393085    1.2836334490   -0.3244054079
 C    0.0207507639   -0.0797016654    0.0592940951
 C   -1.4439077285   -0.4760378100    0.0765899275
 C   -2.1081253969   -0.4973287099   -1.3496600673
 C   -2.3059518520   -2.0123211480   -1.2096596319
 C   -1.6732606893   -1.9950637086    0.1614732636
 N   -3.1021097315   -2.2295611936   -0.0145846068
 C   -3.7309254669   -3.4271439616    0.2723522911
 O   -4.3348069512   -4.1052894671   -0.5241003104
 H    1.0178271283    1.5395920286   -0.3657446898
 H    0.5700030259   -0.7249638302   -0.6473564711
 H    0.4594190139   -0.2404883659    1.0577695637
 H   -1.9798884401    0.1048385966    0.8314000825
 H   -3.0231818037    0.0836122913   -1.4769698211
 H   -1.3930042123   -0.2244748955   -2.1277282174
 H   -2.2841775636   -2.7808309497   -1.9717725975
 H   -1.0560636237   -2.7441259890    0.6464023112
 H   -3.6870868108   -3.6581572509    1.3545271764