19

 C   -0.0220081019    1.4858321063   -0.0271381565
 C   -0.0195413208   -0.0318980972   -0.0116330334
 O    0.6859288452   -0.4697445890   -1.1750243893
 C    0.7969228860   -1.8033339254   -1.3398548857
 C    1.4322657166   -2.4234065271   -2.3863450368
 N    1.2815622850   -3.7760999260   -2.1162694241
 C    0.5850339209   -3.9030816120   -0.9569423495
 C    0.2294521146   -5.2170163180   -0.3454414584
 N    0.2770329908   -2.7150747773   -0.4626883674
 H    0.9997082462    1.8761690788   -0.0092540794
 H   -0.5171744002    1.8642209858   -0.9261526564
 H   -0.5544961560    1.8686189509    0.8487895072
 H    0.4706518324   -0.4239770607    0.8876073366
 H   -1.0391404111   -0.4356341246   -0.0235571539
 H    1.9499507229   -2.0521854887   -3.2523401709
 H    1.6302544946   -4.5289309772   -2.6847616307
 H    1.1186305083   -5.8063340664   -0.0920937850
 H   -0.3318599168   -5.0334164314    0.5714308532
 H   -0.3914148266   -5.8261244409   -1.0129244797