18

 C   -0.0187085279    1.5904266959    0.0689161063
 C    0.0426243519    0.0612574704    0.0852822457
 C    0.7563948388   -0.4864397394    1.3233854416
 C   -1.3717751137   -0.5306797210   -0.0210070653
 O   -2.1084594413   -0.1176442877    1.1166854141
 O    0.6578042702   -0.4479445551   -1.1374066277
 C    1.9320987203   -0.1463600472   -1.4270510684
 O    2.4732746110   -0.5433187954   -2.4181554068
 H    0.9658302231    2.0439292262    0.2112299540
 H   -0.4304891737    1.9425697290   -0.8814096315
 H   -0.6718939670    1.9301985133    0.8757951297
 H    0.1516690710   -0.2734825823    2.2077433689
 H    0.8794220307   -1.5702932435    1.2408653188
 H    1.7415316624   -0.0339541217    1.4648808260
 H   -1.8282907481   -0.1759370018   -0.9559868411
 H   -1.2876071734   -1.6251505311   -0.0798591057
 H   -2.9937233506   -0.4861950259    1.0545271016
 H    2.4262355564    0.4930718374   -0.6754737103