15

 O    0.0051903428    1.4011277443   -0.1719278012
 C    0.0193163730    0.0022226852   -0.0692202691
 C    0.1746339667   -0.5691700885    1.3716967678
 O    0.9855418791   -0.4504381719    2.2519211236
 N   -1.0251806737   -1.2270065012    1.2627234752
 C   -1.3706951532   -0.6565276361   -0.0327093795
 C   -2.6687679288   -0.0404272399   -0.4255896516
 C   -2.1606603976   -1.2990024473   -1.1222503462
 H    0.7571243228    1.7340503808    0.3316079093
 H    0.7029540548   -0.4627640480   -0.7932102377
 H   -1.5776168273   -1.7203907050    1.9496358600
 H   -3.5121958406   -0.1449678367    0.2491667225
 H   -2.6300822044    0.9033748169   -0.9583141443
 H   -1.7959861852   -1.2172269498   -2.1410404259
 H   -2.6675640784   -2.2334022628   -0.9034792330