14

 C   -0.0550200180    1.4273638549   -0.0273768559
 N   -0.1031981535   -0.0249162050    0.0532081519
 C    0.6134997298   -0.6208540950    1.0824834980
 C    1.2768742969   -0.0958688783    2.1792322436
 C    1.7417793723   -1.2316438214    2.8824426536
 N    1.4129655916   -2.3701130114    2.2907688075
 N    0.7193667658   -1.9717472833    1.1894529822
 H    0.9641445869    1.8287713879   -0.1366131903
 H   -0.6555079195    1.7550711138   -0.8788960538
 H   -0.4928267178    1.8549514640    0.8795266006
 H    0.0480439171   -0.4683991021   -0.8431005574
 H    1.4148850707    0.9436151210    2.4235060284
 H    2.3144944681   -1.2543395368    3.7986972641
 H    0.2996821597   -2.6670538882    0.5969518875