18

 C    0.1882611717    1.5375429932    0.0751442388
 C   -0.3692898497    0.1714970943   -0.3426201082
 C    0.5178334430   -0.5142087450   -1.3509111315
 O    1.7548729763   -1.0446783838   -0.8754509096
 C    0.7659370823   -1.9741972444   -1.3613472162
 C    0.1682418812   -2.8768938866   -0.4151711583
 C   -0.3306018921   -3.6655447080    0.3469231211
 C   -0.9266389131   -4.6132572868    1.2761233696
 H    1.1818410285    1.4260347228    0.5191526581
 H    0.2779964276    2.2120280524   -0.7835912804
 H   -0.4627400124    2.0186214496    0.8108752380
 H   -0.4798492419   -0.4782457528    0.5306284021
 H   -1.3675090943    0.2896998673   -0.7838691926
 H    0.6052175591   -0.0051923970   -2.3147136049
 H    1.0321510871   -2.4258822701   -2.3174949768
 H   -2.0074858186   -4.4586116053    1.3664897241
 H   -0.7633883848   -5.6459023813    0.9490772372
 H   -0.4913143599   -4.5088533785    2.2759852797