18

 C   -0.1907698282    1.5761941922    0.0254817726
 C    0.0339906039    0.0507161872   -0.0014649729
 C   -1.3198802906   -0.6396936900    0.0401582914
 O   -1.7867286858   -1.1675288039    1.0161831120
 C    0.8281851083   -0.4414100921   -1.2319519075
 O    0.2841535610    0.0330206543   -2.4681893047
 C    2.3252749054   -0.1204108388   -1.1789277313
 O    2.9784480567   -0.6086403979   -2.3292506698
 H    0.7539357011    2.1248796798   -0.0243829066
 H   -0.8252644022    1.9046678945   -0.8056989476
 H   -0.6953699997    1.8649929034    0.9511498580
 H    0.5709392017   -0.2508857629    0.9047293557
 H   -1.8735215196   -0.6121653372   -0.9252069576
 H    0.7338692786   -1.5317111372   -1.3043887322
 H    0.3143318140    0.9969688139   -2.4566413786
 H    2.4704948144    0.9691768684   -1.0680934660
 H    2.7838724492   -0.6010266499   -0.3079816583
 H    2.3824268019   -0.4231756939   -3.0665754865