18

 C   -0.0186544822    1.5292620820    0.0004822617
 C   -0.0076174537    0.0307111887    0.0245229178
 C   -0.0296725060   -0.8025384720   -1.0824249371
 N   -0.0094404548   -2.1226571004   -0.6671031040
 C    0.0248746298   -2.1357831887    0.6980510266
 C    0.0268888682   -0.8319028437    1.1523691637
 C    0.0648070487   -0.8627503319    2.6552837270
 C    0.0828179074   -2.3576565553    2.9461474605
 C    0.0595258663   -3.0759836593    1.8018307617
 H    0.8710778621    1.9503107304    0.4843549013
 H   -0.0467408410    1.9091009515   -1.0251240021
 H   -0.8890872889    1.9380649547    0.5279974189
 H   -0.0578117463   -0.5566885829   -2.1326997774
 H   -0.0205878284   -2.9198498319   -1.2779334795
 H    0.9493755501   -0.3678498534    3.0799402483
 H   -0.8043396394   -0.3803449636    3.1238766549
 H    0.1108539804   -2.7633487000    3.9488194882
 H    0.0654318276   -4.1557361644    1.7235949795