14

 N    0.0896677623   -1.1226758395    0.1517497421
 C    0.0763990739    0.0306450419    0.0880320584
 C    0.0348619276    1.4855780745   -0.0422395416
 O   -0.3286874177    2.1748757499    1.1782568356
 C    0.8264479927    3.0411306259    1.1017408165
 C    2.0441140415    2.5381636990    1.9034443994
 N    2.4049393454    1.6389083634    0.7695501849
 C    1.3880472160    2.2470024508   -0.1022793673
 H   -0.6546620914    1.7525746962   -0.8539278340
 H    0.5563356767    4.0974065800    1.1316994509
 H    2.7719870188    3.3357144096    2.0990204343
 H    1.8161463129    2.0148750084    2.8365414170
 H    3.3559955704    1.7200594051    0.4360617067
 H    1.7040242710    2.6481706348   -1.0651572130