14

 N   -0.6642127882    1.1440773562    0.7596129856
 C   -0.1375241077    0.0030242654    0.1961168370
 N   -0.7086916595   -0.6313440877   -0.8211738490
 N    0.1177785960   -1.7083828572   -0.9675550992
 C    1.1119830872   -1.6604200364   -0.0688687956
 C    2.2039755061   -2.6844106951    0.0598583546
 C    2.1158856335   -3.7256339544   -0.9617523304
 N    2.0117669629   -4.5318437308   -1.7823449108
 N    0.9911707728   -0.5884665142    0.6928290945
 H    0.0256448503    1.7212442383    1.2166401672
 H   -1.2748977239    1.6613196503    0.1447379783
 H   -0.0592452496   -2.3938144774   -1.6844466145
 H    3.1793844057   -2.1899085963   -0.0084243071
 H    2.1604557946   -3.1483043709    1.0520926194