23

 C   -0.2041263588    1.4683455749   -0.3397118316
 C    0.1184603814   -0.0122169573   -0.1976355838
 C    1.5427608430   -0.4638793401   -0.5796821236
 O    1.7865981297   -0.9941304374    0.7345455582
 C    0.4623261197   -0.5911379746    1.2049169530
 C    0.5671552050    0.3281916948    2.4441790544
 C    0.2186699962   -0.5548266087    3.6748118565
 C    0.1701346317   -1.9978173846    3.1311442258
 C   -0.3305757780   -1.8064662825    1.6941564554
 H    0.5611492870    2.0954160056    0.1292806530
 H   -0.2605498333    1.7481162043   -1.3975496911
 H   -1.1686440577    1.7162538258    0.1165068667
 H   -0.6567222018   -0.6061642000   -0.6921879693
 H    1.6166876527   -1.2335342225   -1.3583545394
 H    2.2350382511    0.3530416112   -0.8268601599
 H    1.5834850990    0.7263606691    2.4948774876
 H   -0.1126062500    1.1812811374    2.3636716572
 H    0.9354203364   -0.4362950556    4.4914159204
 H   -0.7638043715   -0.2761580677    4.0718375033
 H    1.1778666427   -2.4271464163    3.1045670979
 H   -0.4589453102   -2.6617516660    3.7303002517
 H   -1.4017076082   -1.5592109610    1.6941835799
 H   -0.1814296062   -2.6720093089    1.0433258778