21

 C    0.1551270513    1.4931431944    0.0816517065
 C   -0.1147277291   -0.0023558756    0.0204993369
 O   -0.4378917480   -0.6097443311    1.0151169239
 C    0.0172595299   -0.7109388812   -1.3501133816
 C   -1.2811448443   -0.4029170135   -2.1368877796
 C    1.2406592803   -0.1934052466   -2.1309036665
 C    0.1580241052   -2.2367780194   -1.0846849936
 C    0.0457101101   -3.0620754080   -2.3450191067
 O    0.9837681194   -3.4025205010   -3.0233547105
 H    1.2344448943    1.6736706412    0.0267688196
 H   -0.3013632934    2.0350079774   -0.7510344127
 H   -0.2181505556    1.8807901832    1.0300795286
 H   -1.4314661843    0.6750238390   -2.2472309389
 H   -1.2320448080   -0.8258048176   -3.1450339162
 H   -2.1595909569   -0.8170801322   -1.6324288158
 H    2.1584030116   -0.2895752752   -1.5415238331
 H    1.3802769822   -0.7771246844   -3.0446103037
 H    1.1247052674    0.8558666951   -2.4154197592
 H    1.1348310330   -2.4319592581   -0.6318655128
 H   -0.6167621048   -2.5381237339   -0.3745106518
 H   -0.9908836802   -3.3468110126   -2.6373344327