19

 C    0.0089676697    1.5538912305   -0.0334014471
 C   -0.0816623316    0.0307525764   -0.0163929300
 C   -1.4836306678   -0.4383365691   -0.3972505541
 C    1.1748717655   -0.7200394277   -0.5868596761
 O    1.9633368224   -0.2123434985    0.5650639859
 C    0.6832250043   -0.6712348152    1.1626554003
 C    0.8337057481   -1.9306171285    0.2955605103
 C    0.2755496995   -3.2697896546    0.1761059470
 O    1.6504865697   -3.0296521895    0.5557683068
 H    1.0079982603    1.8934978268    0.2380180719
 H   -0.2364540445    1.9388426201   -1.0295836081
 H   -0.7137042227    1.9861932460    0.6677825427
 H   -1.7448499366   -0.0714943298   -1.3960941619
 H   -1.5954799172   -1.5232110877   -0.3989033376
 H   -2.2210983146   -0.0249658753    0.2997188257
 H    1.6346257240   -0.6713177759   -1.5744173097
 H    0.5623858410   -0.5648706837    2.2411276303
 H   -0.3592291138   -3.6713503404    0.9647795580
 H    0.1382964345   -3.7207956238   -0.8057070845