16

 C    1.4749161748    1.2822411752    2.0410759732
 N    1.3577729826   -0.1545600616    1.8805798111
 C    0.5809927512   -0.6884153576    0.9249538532
 O   -0.0881111694   -0.0768739717    0.1147357241
 N    0.5737085316   -2.1447414370    0.8984629605
 C    1.2703707805   -3.0110709371    1.7392588432
 N    2.0371390327   -2.6289187583    2.6808149490
 C   -0.2335211105   -2.7446446540   -0.0951502408
 O   -0.3374836158   -3.9368390384   -0.2365860075
 H    0.8534015975    1.7652259473    1.2873735884
 H    1.1372890963    1.5912504875    3.0360821581
 H    2.5133247760    1.6048315933    1.9100917170
 H    1.8618002530   -0.8000718169    2.4886731233
 H    1.0609660447   -4.0470338256    1.4708538188
 H    2.4397258135   -3.4283189601    3.1630778750
 H   -0.7385114587   -1.9869940852   -0.7030545267