22

 C   -0.0832441566    1.5601440075    0.0882416013
 C    0.0082324109    0.0231452684    0.0436605734
 C    0.6839878381   -0.4916173614    1.3285920725
 C   -1.4162340470   -0.5583087604   -0.0370522784
 C    0.7759650827   -0.4507547015   -1.2150501614
 C    2.2410801361    0.0222775141   -1.3401510332
 C    2.8780794019   -0.4740802896   -2.5543698437
 C    3.3792421120   -0.8963601479   -3.5622473566
 H    0.8995259340    2.0273882536    0.2063552962
 H   -0.5367541811    1.9572349484   -0.8268402732
 H   -0.7005207545    1.8849011546    0.9329044913
 H    0.0896877174   -0.2255425024    2.2094819710
 H    0.7857578557   -1.5825496445    1.3134932849
 H    1.6813316569   -0.0629629651    1.4688091598
 H   -1.9351402252   -0.2102374843   -0.9368769572
 H   -1.3954909655   -1.6532386690   -0.0653698653
 H   -2.0127803304   -0.2571833429    0.8309245523
 H    0.7677992899   -1.5469543022   -1.2434822706
 H    0.2327605237   -0.1182530246   -2.1077420496
 H    2.2863297297    1.1179126167   -1.3360507026
 H    2.8214523126   -0.3106599841   -0.4713544458
 H    3.8339112991   -1.2624315930   -4.4488220352