19

 C   -0.0485026246    1.5500383275    0.0497379484
 C    0.0191640371    0.0390519184    0.0278546921
 C   -1.2100506436   -0.6439745010   -0.5422229506
 C    1.3322135534   -0.6939420244   -0.2430040603
 N    2.5856093819   -0.0268652107   -0.0511341884
 C    2.7132149614    0.4753213033    1.2409491451
 O    3.5489625026    1.2547556777    1.6393898484
 N    1.6819762350   -0.0966577671    1.9807760925
 C    0.7167589747   -0.7414737267    1.1408780863
 H    0.8503168538    2.0112644666    0.4635302958
 H   -0.1856189566    1.9430297919   -0.9643445129
 H   -0.9008141174    1.8877311287    0.6506879964
 H   -1.3855088556   -0.3354991439   -1.5793161755
 H   -1.1074299435   -1.7342747739   -0.5339618954
 H   -2.1048405749   -0.3909632632    0.0381614632
 H    1.3397709509   -1.5573382354   -0.9003908463
 H    3.0597659728    0.4681797735   -0.7883722109
 H    1.4400633118    0.3432523758    2.8533441425
 H    0.2561516110   -1.6410390470    1.5362159096