25

 C   -0.0689743236    1.5772132695    0.4104342852
 C    0.0134945328    0.0789182863    0.0692888400
 C    0.8817089926   -0.6525902598    1.1023703655
 C   -1.3811696349   -0.5124205434   -0.1197906262
 C   -2.2358680781   -0.9238974638    1.0593491741
 C   -1.7442195838   -1.9718955705    0.0860704904
 C   -2.6884888159   -2.4130359602   -1.0211237144
 C   -3.2689616972   -1.0962331923   -1.5838690059
 C   -2.1683313911   -0.0376421557   -1.3459713841
 H    0.9309325054    2.0164823652    0.4916002440
 H   -0.6180838502    2.1369416685   -0.3523736430
 H   -0.5808931087    1.7278523264    1.3677330332
 H    0.5242347793   -0.0104704133   -0.9016506585
 H    1.0132254627   -1.7089456632    0.8516445629
 H    1.8764082101   -0.1973920063    1.1469648123
 H    0.4538174642   -0.5925504462    2.1092496007
 H   -1.7749891595   -0.9181576334    2.0410442847
 H   -3.2885394112   -0.6579493807    1.0760722227
 H   -1.0127593525   -2.6859610146    0.4481887374
 H   -2.1162562585   -2.9420415952   -1.7933704499
 H   -3.4713308133   -3.0979180517   -0.6762130062
 H   -3.5481399023   -1.1767273279   -2.6377845124
 H   -4.1797557593   -0.8237903280   -1.0416573001
 H   -2.5878657288    0.9674516883   -1.2280028387
 H   -1.4849609980    0.0018697819   -2.2047527038