11

 O   -0.0469539624    1.3593900206    0.0104486482
 C    0.0500836156    0.0134533509    0.0026211572
 C    1.1983072307   -0.7096210621   -0.0083624804
 N    1.2214787894   -2.0900633195   -0.0156935541
 C    0.0862227158   -2.6737976427   -0.0114991321
 O   -1.1179876920   -2.0703583145   -0.0008423704
 C   -1.2420851019   -0.6747209176    0.0068286522
 O   -2.3329612130   -0.1866188194    0.0170035776
 H    0.8374263219    1.7445703772    0.0071452658
 H    2.1686461569   -0.2184942961   -0.0117978758
 H   -0.0093428110   -3.7540886167   -0.0164110583