22

 C   -0.2376779345    1.3814865203   -0.3244660008
 C   -0.1336783277   -0.1354431314   -0.1174554005
 C    0.8345029176   -0.4614417838    1.0283915718
 C   -1.5375715275   -0.7337326016    0.1110482491
 C   -1.5992993494   -2.2447348474    0.1823203600
 C   -2.8631963426   -2.9745057913   -0.1840684631
 N   -1.6944697574   -3.0554416254   -1.0261824182
 C   -1.6492377642   -2.6320778811   -2.3398552963
 O   -2.5456293673   -2.7583862604   -3.1394370177
 H    0.7453463569    1.8202597852   -0.5227254679
 H   -0.8921036866    1.6276004289   -1.1672070483
 H   -0.6451059974    1.8711532022    0.5683347982
 H    0.2733004041   -0.5735024066   -1.0396154641
 H    1.8157871982   -0.0123702555    0.8453907085
 H    0.4609243180   -0.0639798960    1.9800381944
 H    0.9847503327   -1.5381588510    1.1510585436
 H   -1.9422005454   -0.3337055219    1.0517252604
 H   -2.2109279812   -0.3925576561   -0.6856132192
 H   -0.9835850531   -2.7005522884    0.9555856604
 H   -3.1370594244   -3.8837838596    0.3438766965
 H   -3.6979565800   -2.3893824951   -0.5624891472
 H   -0.6538501587   -2.2286143440   -2.6072873497