18

 C    0.0170273058    1.4932322175   -0.0087430778
 C   -0.0139488695    0.0390708870    0.0030830709
 C   -0.0410587349   -1.1670243119    0.0213125056
 C   -0.0607629375   -2.5836764697   -0.0035535620
 C   -0.3933791571   -3.4764174100    1.1805254995
 C   -1.1960621738   -3.6258613023   -0.0773521854
 O   -2.5634782017   -3.4723742767   -0.1409634782
 C   -0.3822690244   -4.3313998510   -1.1594448133
 N    0.7778340398   -3.3978951283   -0.9278125350
 H    0.8196509482    1.8618983784   -0.6573254859
 H   -0.9252150487    1.9124327330   -0.3797487460
 H    0.1913693650    1.8993463713    0.9940416679
 H    0.3298796788   -4.2277249169    1.4896579991
 H   -0.9167606686   -2.9623841163    1.9808810148
 H   -2.9606992387   -3.9220886733    0.6122583591
 H   -0.1401586887   -5.3892749416   -1.0066842385
 H   -0.8447535092   -4.2002558606   -2.1424837970
 H    0.9622500251   -2.8631283886   -1.7716790279