17

 C   -0.1212391441    1.5288034495    0.0157334164
 C   -0.0153879382    0.0395052790    0.0070854476
 C    0.7198631623   -0.8683140503   -1.0438184331
 C    1.8261513704   -1.1800883630   -0.0047928677
 C    0.7254912641   -0.8801157302    1.0436706848
 C   -0.4446541090   -1.8348259416    0.7424813298
 C   -0.4486129721   -1.8264731174   -0.7470531859
 N   -1.2862903926   -0.8315786524    0.0055335032
 H    0.8717146293    1.9920442548    0.0126637079
 H   -0.6681735010    1.8823252321   -0.8651802393
 H   -0.6583910584    1.8730344124    0.9062897569
 H    0.9261798104   -0.5781384342   -2.0724368227
 H    2.2804469864   -2.1753187163   -0.0116620222
 H    2.6080682384   -0.4135999528   -0.0025769608
 H    0.9373926519   -0.6015344892    2.0743579207
 H   -0.8864599904   -2.6053703515    1.3623201079
 H   -0.8937215473   -2.5900560689   -1.3731134433