16

 C   -0.1942421721    1.1270596200    0.3680883658
 O    0.1795677045   -0.2223538125    0.0540589210
 C    0.8994584147   -0.8541394110    0.9962592427
 O    1.2451819385   -0.3701118384    2.0400140978
 C    1.2166575025   -2.2696350971    0.5291957370
 O    1.9375967746   -2.9811620490    1.5153313762
 C    1.1713743355   -3.4486758901    2.5449801911
 N    1.9721442144   -4.0354864064    3.4796554115
 O   -0.0338179621   -3.3902058034    2.5779290324
 H    0.6933678273    1.7462243517    0.5199676716
 H   -0.7672373733    1.4827611748   -0.4878594898
 H   -0.8026693864    1.1529718556    1.2751970084
 H    0.2832760836   -2.7774343110    0.2747751336
 H    1.8559765605   -2.2265140935   -0.3558754645
 H    2.9502369479   -3.7987127186    3.4826087120
 H    1.5377298398   -4.2285822412    4.3659954531