17

 O   -0.1584092080    0.0481728664    0.1324115155
 C    0.0064753186    1.2271242573    0.2225968768
 O    1.0365406800    1.8639598883   -0.3716646095
 C    1.1311466304    3.2643134404   -0.1413944688
 C    1.9923695221    3.9590297230    0.8646085579
 C    3.4554855793    3.4638519800    1.0052982396
 C    3.8286183280    2.2783955057    0.1522284987
 C    3.6774149103    3.6337604620   -0.4846139007
 C    2.2178469296    4.1303830005   -0.6645980819
 H   -0.6578291679    1.9118907401    0.7837045464
 H    0.1567972832    3.7432475753   -0.2363374816
 H    1.5613372173    4.6634978985    1.5662620360
 H    4.0817507782    3.8120782763    1.8155998529
 H    4.8668052200    1.9813521685    0.2750152868
 H    3.1509791946    1.4629432945   -0.0512610262
 H    4.4949388830    4.1365258875   -0.9834346453
 H    1.9872895816    4.9837656456   -1.2910038466