18

 C    0.0181428413    1.4634779966    0.1307780924
 C   -0.0139768545   -0.0265389781    0.0138283800
 C   -0.0307446546   -0.7646282372   -1.1028477841
 C   -0.0114699396   -2.2207783697   -0.8003489717
 N    1.2216758946   -2.6455920796   -0.0737229141
 C   -0.0108918651   -2.3334428385    0.6833450384
 C   -0.0244909640   -0.9190194085    1.2631831293
 C    1.1835964248   -0.6344954835    2.1477208937
 O    1.1660558952    0.1177816341    3.0892181611
 H    0.9049492974    1.8056303063    0.6765090928
 H    0.0157886208    1.9386028732   -0.8534435047
 H   -0.8479106852    1.8311857228    0.6952381583
 H   -0.0386489333   -0.3639983608   -2.1097516431
 H   -0.5037719942   -2.9418161285   -1.4435303619
 H    1.3089610385   -3.6591685348   -0.1335423931
 H   -0.5201097687   -3.1339052611    1.2082033428
 H   -0.9185265733   -0.7219405735    1.8672112166
 H    2.1050281599   -1.1658187892    1.8335327875