17

 C    0.2628362053    1.4496981917   -0.0752560484
 C    0.0558529645   -0.0301491304   -0.0013169300
 C   -0.0989632483   -0.9197052043   -1.0306117736
 O   -0.2858299740   -2.1659739959   -0.5604788878
 N   -0.2617790381   -2.1312214578    0.8416677446
 C   -0.0556889798   -0.8710048721    1.1378336184
 N   -0.1729291278   -0.7319496728   -2.4009219837
 C    1.0489056136   -0.4565358379   -3.1695435118
 C    0.3461711748   -1.7622802008   -3.2966736070
 H    1.3147687465    1.7323167427    0.0536037090
 H   -0.0674939776    1.8376488834   -1.0429025562
 H   -0.3077862664    1.9679044678    0.7018562775
 H   -0.0000231089   -0.5875890844    2.1809982129
 H    0.9440793952    0.3024269717   -3.9380641039
 H    1.9884276480   -0.4430127257   -2.6237049848
 H    0.8084315324   -2.6327549382   -2.8418975371
 H   -0.2736956894   -1.9654593470   -4.1640283080