21

 O    0.1682243797    1.3301130037   -0.3777516843
 C    0.0544542810   -0.0416183909   -0.0298080638
 C   -1.4252126621   -0.3829096574    0.0737664259
 C   -2.2052036380   -0.1587099459   -1.2436065793
 C   -3.3420786125   -1.1849726176   -1.1911096232
 C   -2.6392049202   -2.4423565169   -0.6252900637
 C   -1.6755317543   -1.8703832067    0.4593757746
 C   -3.5378158686   -3.4773991011   -0.1378324630
 C   -4.2883365421   -4.3212210952    0.2759952888
 H    1.1017472574    1.5460282628   -0.4576874476
 H    0.5245516936   -0.6871042044   -0.7921478979
 H    0.5541911771   -0.2519195927    0.9298018369
 H   -1.8531561973    0.2651962554    0.8466308345
 H   -2.5519297248    0.8704778967   -1.3544366430
 H   -1.5534655803   -0.3712890622   -2.1014137295
 H   -4.1250521644   -0.8624692277   -0.4951375688
 H   -3.8158049147   -1.3718057756   -2.1583985495
 H   -2.0296725437   -2.8683016828   -1.4337144750
 H   -0.7487778411   -2.4517306195    0.5008259451
 H   -2.1402826135   -1.9464514410    1.4452314236
 H   -4.9492176614   -5.0695671611    0.6368113590