26

 C   -0.6383213178    0.9507486945   -1.7598535714
 C   -0.9173279778    0.5615562028   -0.2993993432
 C   -1.3282758763    1.8058093021    0.5030750100
 C   -1.9950789703   -0.5473039873   -0.1824954123
 C   -1.5207289356   -2.0202467583   -0.0562126888
 C   -0.7867386775   -2.2337991697    1.2817581924
 C   -2.7718974131   -2.9194694523   -0.0788015331
 C   -0.5958186158   -2.4326433854   -1.2153968984
 H    0.1548064099    1.7038672717   -1.8223928426
 H   -0.3327313110    0.0938418868   -2.3655455182
 H   -1.5370034616    1.3783094194   -2.2210695185
 H    0.0202484422    0.1901521194    0.1340482153
 H   -1.4561595486    1.5714367243    1.5650815287
 H   -0.5779652439    2.5997355906    0.4209058476
 H   -2.2795370971    2.2100735033    0.1358807491
 H   -2.6199711703   -0.3410222849    0.6961634810
 H   -2.6694888907   -0.4722247745   -1.0466260344
 H   -1.4310819889   -1.9778370625    2.1303741893
 H   -0.4858445966   -3.2810606377    1.3965997381
 H    0.1195286320   -1.6243015027    1.3546465695
 H   -3.3138598590   -2.8189739434   -1.0257423092
 H   -2.5010539901   -3.9745015921    0.0404918972
 H   -3.4625016235   -2.6586118701    0.7308947265
 H    0.3362345596   -1.8593201626   -1.2175340002
 H   -0.3271668670   -3.4919048729   -1.1333875567
 H   -1.0838715813   -2.2894812185   -2.1857154376