22

 C    0.0300152719    1.5164804435   -0.4302805047
 C    0.0140590937    0.0459199014   -0.0724486275
 C    1.2710529727   -0.7525189821    0.0005517433
 N    0.4950452699   -0.4788531776    1.2082216017
 C    1.0714428443    0.4208387342    2.1985477553
 C    1.8117229622   -0.3889971353    3.2658394120
 C    2.4109645902    0.4992669201    4.3690964512
 C    3.0347929013   -0.3246846840    5.4715224213
 O    4.1767421825   -0.2367626004    5.8421218930
 H    0.9722895487    2.0034463937   -0.1682864682
 H   -0.1134872155    1.6353877299   -1.5094026096
 H   -0.7825812884    2.0550264309    0.0702276109
 H   -0.8831399557   -0.4709384086   -0.4121086662
 H    1.3033549395   -1.7882076297   -0.3278581626
 H    2.2051639210   -0.2061274629   -0.1348456729
 H    1.7620479324    1.1643334630    1.7658193475
 H    0.2524364144    0.9810448127    2.6680494477
 H    1.1144086370   -1.1151478965    3.6994636688
 H    2.6099066082   -0.9698647736    2.7878470345
 H    3.1673751378    1.1849135950    3.9756372561
 H    1.6082738072    1.1006481925    4.8219630087
 H    2.3376010346   -1.0611943362    5.9378588695