21

 C    0.0181487873    1.5518125675   -0.0088798066
 C    0.0074012158    0.0229988215   -0.0073487053
 O   -1.3359085138   -0.4675613693    0.0714972131
 C    0.7129437034   -0.5416658170   -1.2595424322
 C    1.0841888179   -1.9968954364   -1.1377014087
 C    1.0279813475   -2.6794776204    0.0066616321
 C    0.5740469480   -2.0634928304    1.3053451076
 C    0.6909616276   -0.5359556997    1.2622933879
 O    2.0493948021   -0.1125295121    1.3259540540
 H    1.0358443410    1.9284683960    0.1157736193
 H   -0.3848118405    1.9460166422   -0.9501535142
 H   -0.5982941900    1.9292347092    0.8126013005
 H   -1.8358053562   -0.0779589586   -0.6531572886
 H    0.0552320390   -0.3932138797   -2.1276958884
 H    1.6112413763    0.0535731715   -1.4762878601
 H    1.4216162906   -2.4908961609   -2.0460912218
 H    1.3073660909   -3.7300587323    0.0216510961
 H   -0.4662750718   -2.3440571704    1.5075167502
 H    1.1740317397   -2.4388273851    2.1427493001
 H    0.2013732135   -0.0989402755    2.1385993165
 H    2.5563296719   -0.7003739302    0.7537625384