19

 C    0.0721782630    1.4683601473    0.4114147755
 C    0.0194097956    0.0581528945   -0.1936314869
 C   -1.3697263288   -0.5263604007   -0.1929589530
 N   -2.0156812956   -0.9838803352    1.0727971677
 C   -1.7271634450   -1.9540812125    0.0018736181
 C   -2.9598005042   -2.2696625181   -0.8336463839
 N   -3.2947368001   -0.9737920406   -1.4031150650
 C   -2.4266421517    0.0468752961   -1.1252949442
 O   -2.4846845789    1.1765342828   -1.5655539256
 H    1.0909082984    1.8656355783    0.3774534825
 H   -0.5874683428    2.1380165152   -0.1437813505
 H   -0.2525313783    1.4608431638    1.4572306869
 H    0.3882932161    0.0885711784   -1.2257941424
 H    0.6868125404   -0.6186289809    0.3564732676
 H   -1.2877828858   -1.0564355678    1.7833330382
 H   -0.9765454372   -2.7209099723    0.1566570112
 H   -2.7283774281   -3.0052418741   -1.6153776004
 H   -3.7735356429   -2.6642283387   -0.2136230010
 H   -4.1354826440   -0.7987278254   -1.9289758451