15

 N   -0.1918068811    1.2800896235   -0.3159423851
 C   -0.0307820703    0.0849262867    0.0622571718
 C   -1.1823827961   -0.8938265088   -0.0253416618
 C   -1.0562669907   -2.0536105212    0.9335788173
 C    0.1435221115   -2.4258267164    1.3873990987
 C    1.3788754006   -1.6896516133    0.9878386344
 O    1.1671723449   -0.3490471148    0.5464433895
 C   -2.2437158892   -2.7582347770    1.2958625424
 N   -3.2238905343   -3.3111719143    1.5689323373
 H    0.6775751851    1.8070658541   -0.2135867092
 H   -2.1050076609   -0.3339623379    0.1345114100
 H   -1.2363486282   -1.2801223785   -1.0525093286
 H    0.2629811469   -3.2823036804    2.0416578117
 H    2.0700009605   -1.6177393313    1.8346488134
 H    1.9062428114   -2.2448750204    0.1959878282