22

 C    0.0881239315    1.5368791044   -0.2884408328
 C    0.1188262082    0.0453035312    0.0173621731
 O    1.1355120446   -0.5180058844    0.3887380307
 N   -1.0629845306   -0.6119857609   -0.1524662994
 C   -1.2149238308   -2.0491690180    0.0489175624
 C   -0.4943412159   -2.8397835389   -1.0460813513
 C   -0.9012663304   -2.5779103254    1.4825675085
 C   -2.2304251115   -3.3789124371    1.4462034480
 C   -2.6913992177   -2.4953345820    0.2547500292
 H    0.5687170510    2.0716186094    0.5338215501
 H    0.6785533781    1.7254194514   -1.1901688782
 H   -0.9184222809    1.9365668422   -0.4383705412
 H   -1.8601488345   -0.1027409882   -0.4973871530
 H    0.5723617478   -2.6059922779   -1.0292475350
 H   -0.6172998752   -3.9169276831   -0.8937613822
 H   -0.8982372422   -2.5880758469   -2.0328657184
 H    0.0315894420   -3.1300240227    1.6033794519
 H   -0.9271084717   -1.7683354092    2.2145698264
 H   -2.0853938741   -4.4225732207    1.1561739838
 H   -2.8515114558   -3.3570030488    2.3436320714
 H   -3.3168331964   -1.6622820134    0.5913589093
 H   -3.1806478655   -2.9850813211   -0.5915559732