23

 C    0.0339651208    1.4212375111    0.2067082996
 O   -0.0977677233    0.0588649819    0.5453329453
 C   -1.2929437136   -0.5721774987    0.1161173075
 C   -2.5211082146   -0.0186766745    0.8375032006
 C   -1.4963560035   -0.7190315571   -1.4257620878
 C   -1.7996109829   -2.2263855074   -1.2038048602
 C   -1.1899015193   -2.1245131913    0.2225800126
 C    0.2289840503   -2.6624301706    0.3167366983
 O    0.1468732944   -4.0776696568    0.1819341788
 H    1.0522375331    1.7170006292    0.4723657896
 H   -0.1109110907    1.5944546561   -0.8699125409
 H   -0.6672670238    2.0640436098    0.7572608336
 H   -2.7150366453    1.0243622707    0.5680033224
 H   -3.4127801249   -0.5957302756    0.5744454116
 H   -2.3805449374   -0.0783042413    1.9215541507
 H   -2.2736594014   -0.1070072126   -1.8905995099
 H   -0.5567752416   -0.5638150249   -1.9622631445
 H   -2.8699154763   -2.4451593832   -1.1937034113
 H   -1.3100341939   -2.9357186685   -1.8730447537
 H   -1.7836511746   -2.5708702696    1.0260527499
 H    0.8567492493   -2.2232746392   -0.4726876163
 H    0.6728446242   -2.3745543077    1.2799834866
 H    1.0397993151   -4.4315417498    0.2238263774