17

 C   -0.0168398445    1.5230548432    0.1188576424
 C    0.0076017975    0.0406899099   -0.0671162231
 C   -0.0002373501   -0.7707702818   -1.1755943771
 C   -0.0355490061   -0.8204956837   -2.6753827650
 C   -0.0078661846   -2.3267615068   -2.9251460660
 C    0.0362918765   -3.0345227976   -1.7798863890
 C    0.0423503393   -2.0916423864   -0.6679677634
 N    0.0754668745   -2.1437251091    0.6561879821
 N    0.0526859844   -0.8270531478    0.9968917450
 H    0.9032743299    1.8918119615    0.5875116299
 H   -0.1184063383    2.0199290400   -0.8481408413
 H   -0.8569372058    1.8412413287    0.7470050515
 H   -0.9348605787   -0.3635079442   -3.1100866292
 H    0.8203337345   -0.3244030117   -3.1527084159
 H   -0.0230506348   -2.7443837514   -3.9241892167
 H    0.0628137186   -4.1123489077   -1.6918298101
 H    0.0683945277   -0.5832244250    1.9728639960