19

 C    0.8906692647    0.9922432839   -0.3392325218
 C    0.2623344619   -0.3745757308   -0.0624369012
 C   -1.2636735874   -0.3042988610    0.0926614857
 O   -1.7889053877    0.1670941608   -1.1425580769
 C   -3.1732709054    0.4757346243   -1.0923144789
 C   -3.6016605957    1.0074381902   -2.3782262552
 C   -3.9827273983    1.4481881282   -3.4281349513
 C   -1.8329422004   -1.6051431432    0.4703811486
 C   -2.2942430723   -2.6725726904    0.7758127157
 H    1.9732390229    0.9006298209   -0.4661694478
 H    0.4729982855    1.4333445271   -1.2470019688
 H    0.7098478591    1.6866720384    0.4891071207
 H    0.4828986832   -1.0726098476   -0.8768909719
 H    0.6726283561   -0.8121523068    0.8537747521
 H   -1.5071473892    0.4224073867    0.8885171215
 H   -3.7584634789   -0.4226781894   -0.8440828983
 H   -3.3699388332    1.2163801824   -0.2984743750
 H   -4.3145745472    1.8363497921   -4.3591979031
 H   -2.7014901377   -3.6153082059    1.0474760157