18

 C   -0.3052168018    1.5131852453   -0.1166339052
 C    0.0102485231    0.0237161321   -0.0781473920
 C    1.3491654918   -0.4392257645   -0.6997826502
 O    1.7974533442   -0.9938937891    0.5596862647
 C    0.5802386041   -0.6165025404    1.2187170589
 C    0.8416379109    0.2963209847    2.4274452419
 O   -0.3687847553    0.7314979138    3.0201569007
 C    1.7073686471   -0.3890446314    3.4069150625
 N    2.3360039432   -0.9465883524    4.1999106571
 H    0.5586475212    2.1222325002    0.1695478725
 H   -0.5885307480    1.8106565038   -1.1314471826
 H   -1.1295910990    1.7619929581    0.5564786459
 H   -0.8450953540   -0.5430804519   -0.4531991275
 H    1.2807697015   -1.2071116921   -1.4783118025
 H    2.0104361665    0.3646817648   -1.0462774458
 H    0.0216773156   -1.4968574761    1.5705362836
 H    1.3589400222    1.2007004161    2.0950762347
 H   -0.7924544931   -0.0275302709    3.4380551733