20

 C    0.0626924816    1.5585404190    0.1997703769
 C   -0.0244194702    0.0337543265    0.0085204897
 C    0.6620680154   -0.4579381766   -1.2311639423
 C    0.1280637580   -0.7562442888   -2.4498290453
 C   -1.2557048032   -0.7330022601   -2.9966520125
 O    1.0990995166   -1.1520933511   -3.2956065549
 N    2.3249252057   -1.1232139060   -2.6327423115
 C    2.0606683144   -0.7120519701   -1.4162100317
 C    3.1664728825   -0.5770439353   -0.4184951687
 H    1.1032781997    1.8929431288    0.2574141479
 H   -0.4061536972    2.0843733275   -0.6376156648
 H   -0.4410160661    1.8659094964    1.1217185878
 H    0.4093664881   -0.4632657525    0.8850011992
 H   -1.0783816826   -0.2660148756   -0.0133598967
 H   -1.3555386232    0.0180594051   -3.7879045315
 H   -1.5202141950   -1.7028699876   -3.4300564597
 H   -1.9741669484   -0.4968670871   -2.2089958502
 H    3.2724099443    0.4587391003   -0.0790025868
 H    2.9745243936   -1.1921176434    0.4674765106
 H    4.1110710860   -0.8944791195   -0.8641914154