23

 C   -0.3316652598    1.4643059856    0.0204391439
 C    0.0738439999   -0.0100127995   -0.1133074043
 C    0.7305719206   -0.5583290660    1.1393139681
 O    1.9472571354    0.0988135050    1.4423210486
 C   -0.0040785985   -1.0610489575    2.3675667721
 C   -1.4658116411   -1.4883916158    2.3040002974
 C   -1.5705559011   -2.5517077941    1.1767050033
 C   -0.1243222193   -3.0426368500    0.8920803674
 C    0.8163061934   -2.0148945155    1.5077005925
 H    0.5398925924    2.0982872084    0.2147201812
 H   -0.7980701834    1.8287682227   -0.8995745073
 H   -1.0456703605    1.6088921727    0.8386596207
 H   -0.8030437265   -0.6031708362   -0.3808773914
 H    0.7878759605   -0.1168063883   -0.9394272793
 H    1.7309584318    0.9583119647    1.8192071573
 H    0.3864806760   -0.7176589082    3.3202097048
 H   -1.7365005137   -1.9284658553    3.2704711432
 H   -2.1572377835   -0.6543586283    2.1388133368
 H   -2.2243899755   -3.3791384411    1.4664395738
 H   -2.0164485490   -2.1187322444    0.2778152906
 H    0.0554786931   -4.0069334659    1.3798947660
 H    0.0484061089   -3.1980354509   -0.1786220625
 H    1.7948468400   -2.3442334322    1.8388725672