10

 N    0.0258592424   -1.1768249362   -0.0042486885
 C   -0.0039777760   -0.0191119912    0.0025382883
 C   -0.0276473188    1.3952201874    0.0107446919
 C   -1.1440484211    2.2188983787    0.0301466557
 N   -0.6726709678    3.4797190688    0.0307422827
 N    0.6751641127    3.5539836061    0.0134565587
 C    1.0746200461    2.2928174969    0.0014514795
 H   -2.1967944166    1.9884696558    0.0427582140
 H   -1.2058781224    4.3335731111    0.0424012282
 H    2.1255430714    2.0485033326   -0.0136358104