17

 O   -0.0086714508   -0.0032285597    0.0402437693
 C   -0.0319577647    1.1856886665   -0.0180366737
 C   -1.0882754972    2.3004643471    0.0471149723
 C   -0.0410857575    3.0132939974    0.9616055291
 C    1.0306719764    2.3336843504    0.0278301049
 C    0.7227746045    3.0244830211   -1.3307755325
 C   -0.8455476957    2.9981749917   -1.3100401295
 C    2.3955195965    2.1293013650    0.4127392560
 C    3.5390320957    1.9413202384    0.7346987971
 H   -2.1112680838    2.1090361123    0.3615002340
 H   -0.0493038033    4.1055047737    0.9519129434
 H   -0.0127612854    2.6297345074    1.9820512175
 H    1.1285938789    4.0385518012   -1.3508785651
 H    1.1500285254    2.4707494834   -2.1694681780
 H   -1.2673811420    2.4359282964   -2.1465458285
 H   -1.2756740174    4.0028276213   -1.3250035848
 H    4.5470337805    1.7708156865    1.0214232486