18

 C   -1.2009829214    0.7130126767   -0.9321639964
 N   -0.4660647616   -0.4382229740   -0.4670156425
 C    0.7580938056   -0.6428925887   -0.7472008170
 C    1.7210350600    0.2421759411   -1.5082013705
 N    1.3254557860   -1.8528558738   -0.3470849781
 C    0.6287271696   -2.8263379486    0.3635038884
 N    1.2412115685   -3.5559955062    1.2072653103
 C   -0.8198467212   -3.0647769953   -0.0236121894
 O   -1.5729014657   -3.6438255644    0.7174593052
 H   -0.6173508131    1.4482260225   -1.5021771693
 H   -2.0301959263    0.3815666641   -1.5693600061
 H   -1.6513702346    1.2232016870   -0.0732823346
 H    2.7254231072    0.1772811726   -1.0787929701
 H    1.7899805350   -0.0787049043   -2.5530862828
 H    1.4121304594    1.2866667449   -1.4891243686
 H    2.3242233745   -1.8752143893   -0.1948732667
 H    0.5800107836   -4.2425338127    1.5781309639
 H   -1.1014514157   -2.7714346014   -1.0488994558