18

 C   -0.0654800241    1.6668280793    0.0216533125
 C    0.0163082813    0.1421652125    0.1263124603
 C   -1.3442893137   -0.5253874158   -0.0709937669
 N   -1.8882780565   -0.3138006327   -1.4234041698
 C   -2.3821424859   -1.4230260421   -1.8017501187
 N   -2.3340405401   -2.4885281035   -0.9049291392
 C   -1.3778212491   -2.0919846082    0.1391013622
 C   -0.0777435614   -2.7594848634   -0.0389517325
 N    0.9243551073   -3.3169406769   -0.1859506878
 H    0.9239953465    2.1176673583    0.1397718980
 H   -0.4684150260    1.9640561491   -0.9495712079
 H   -0.7175558678    2.0832793154    0.7977241459
 H    0.7133987317   -0.2501826595   -0.6221267799
 H    0.4139372681   -0.1477818101    1.1070006572
 H   -2.0572773321   -0.0918858369    0.6443338443
 H   -2.8777245965   -1.5710146095   -2.7568482141
 H   -2.2645177190   -3.4263191093   -1.2756140685
 H   -1.7508363525   -2.3470975566    1.1344623150