20

 C   -0.1116259294    1.5877603360    0.6017066928
 N   -0.1400830560    0.2557431976    0.0245766618
 C    0.9329842281   -0.6069009392    0.5099664812
 C   -1.3975163329   -0.3415799760   -0.0975304600
 C   -1.8136594927   -1.4086020911   -0.8858075358
 C   -0.9953911555   -2.2123675478   -1.8476281965
 C   -3.1946751570   -1.5140903381   -0.6080496811
 N   -3.6252362511   -0.6017227764    0.2561871961
 N   -2.5065956486    0.0939669861    0.5670463565
 H    0.8771180287    2.0273215466    0.4403466629
 H   -0.8508836271    2.2243773846    0.1077803718
 H   -0.3029130000    1.6020048913    1.6910978466
 H    0.8655118732   -0.7992167653    1.5944228230
 H    0.9075161959   -1.5655493239   -0.0091985167
 H    1.8977307672   -0.1317818668    0.3052839119
 H   -0.4673919294   -3.0477012895   -1.3684430630
 H   -1.6296286890   -2.6438294291   -2.6278733115
 H   -0.2400110618   -1.5899303200   -2.3397348408
 H   -3.8964864927   -2.2191445456   -1.0325743784
 H   -2.5729606299    0.8562921269    1.2180755591