17

 C   -0.0604757203    1.5543147756    0.0338302933
 C    0.0358786368    0.0444322810    0.0391100104
 C   -1.1913805232   -0.6661654497   -0.5063943946
 C    1.3291087180   -0.6687620912   -0.2568610979
 O    2.5376208813    0.0709846473   -0.1163693073
 C    2.6066950337    0.3947836110    1.2025550320
 N    1.6905771225   -0.0095850418    1.9861315227
 C    0.7478505342   -0.7215326970    1.1551228437
 H    0.7995251951    2.0347507716    0.5024272591
 H   -0.1372013427    1.9289787162   -0.9928694113
 H   -0.9550590698    1.8774869994    0.5772954580
 H   -1.3972048091   -0.3552257301   -1.5369400570
 H   -1.0651931612   -1.7536828003   -0.5052391708
 H   -2.0744632407   -0.4337533229    0.0991198307
 H    1.4133136840   -1.4716646951   -0.9795004127
 H    3.4704727303    0.9870658445    1.4790041774
 H    0.2631484211   -1.5809868186    1.6044024541