21

 C   -0.1953837503    1.2097427963   -0.3807046372
 C    1.2257310299    1.1095646479    0.1162913509
 C    0.3481054321   -0.1178786176    0.0881341974
 C   -0.1453305132   -0.7350658696    1.3657331603
 C   -1.4264567614   -1.6393546159    1.3354842657
 C   -0.6515144768   -2.7757584466    2.0618656077
 C    0.0633837682   -3.7434558846    1.1105600690
 O    1.1675381658   -2.8234932904    0.9320109477
 C    0.6507619306   -1.9324264443    1.9466512426
 H   -0.9179170263    1.7156867583    0.2518333777
 H   -0.3621543061    1.3530235026   -1.4427386253
 H    2.0319364650    1.1818331410   -0.6052239974
 H    1.4562921392    1.5486530318    1.0817826044
 H    0.5782279315   -0.8450440871   -0.6843240654
 H   -0.2510899244    0.0380549125    2.1366571569
 H   -2.2744411463   -1.2346133544    1.8919595440
 H   -1.7725353440   -1.9075053994    0.3326453409
 H   -1.0610977456   -3.1657295532    2.9922383969
 H    0.4016643351   -4.6787118412    1.5765355374
 H   -0.4437302613   -3.9771777030    0.1657283231
 H    1.3801374783   -1.7518852431    2.7418533427