15

 O    0.1820550563    1.3117751131    0.3631292950
 C   -0.0043682368   -0.0375222039    0.0276050579
 C   -1.4768891173   -0.4614383793   -0.0899047842
 C   -1.4869027427   -1.3630461531   -1.2959431991
 C   -0.3402524848   -1.3324676734   -2.0095616517
 C   -0.0407309893   -2.0133948122   -3.2110812014
 C    0.2525253781   -2.5826225127   -4.2303410913
 C    0.5894246397   -0.3684183506   -1.3492154453
 O    1.5963669739    0.1371596794   -1.7823533587
 H    0.9988003672    1.5822969324   -0.0811753858
 H    0.4998650087   -0.7020147683    0.7521664951
 H   -1.8660352414   -0.9600543744    0.8034004814
 H   -2.0999592439    0.4258532285   -0.2586017202
 H   -2.3508244735   -1.9600664813   -1.5657903301
 H    0.5090260757   -3.0824834644   -5.1316087218