14

 N    0.0533937895    1.3797516195    0.1804705413
 C    0.0121565885   -0.0011983768    0.0354657454
 C   -1.0524974872   -0.8398698244    0.0007422139
 O   -0.6088764915   -2.1651839909   -0.0655366468
 C    0.7230167027   -2.1419543067   -0.0780275395
 N    1.3687482010   -3.3378279443   -0.2130162234
 C    1.1933871049   -0.8459873707   -0.0150632157
 C    2.5396773608   -0.4423078289   -0.0028098708
 N    3.6512719757   -0.1057668850    0.0039298443
 H    0.8773427157    1.8041129421   -0.2238636897
 H   -0.7831954711    1.8560241865   -0.1252633299
 H   -2.1186307086   -0.7099695510    0.0279399118
 H    0.8578120874   -4.1417813165    0.1211578493
 H    2.3423339622   -3.3308328830    0.0525892596