19

 O    0.1401805748    1.4170934319    0.0793010788
 C    0.0337022997    0.0047525376    0.0092140855
 C    0.7098124843   -0.6010396437    1.2746873805
 C    0.0373403916   -1.9821454343    1.5225724622
 C   -1.3534190006   -1.8169823085    0.9339299371
 C   -2.1957548187   -0.6059709538    1.2867578033
 C   -1.3527898464   -0.5942265243    0.0532896157
 O   -1.9933486076   -1.2634000856   -1.0484533866
 C   -1.9584621554   -2.5119887864   -0.2917541724
 H   -0.2917706677    1.7864364108   -0.6972783288
 H    0.5215344465   -0.3790406215   -0.9005891953
 H    1.7944455489   -0.6701172073    1.1622986409
 H    0.5228115440    0.0859303102    2.1064886917
 H    0.5672512625   -2.7682873437    0.9722306284
 H    0.0586438604   -2.2637336264    2.5805365335
 H   -3.2729409064   -0.6598350677    1.1681188045
 H   -1.8561557787   -0.0031381804    2.1213439163
 H   -1.2789844665   -3.2330694844   -0.7618453654
 H   -2.9556117345   -2.9565477526   -0.1920078900