18

 O    0.0189400728   -0.0441093403   -0.0868006847
 C   -0.0316351603    1.1716389645   -0.0169457680
 N   -1.2247537748    1.8458738024   -0.0039579002
 C   -1.3970745472    3.2899285024   -0.0957495091
 C   -0.1712905404    4.0042235909    0.4572284954
 C    0.3083788505    3.5313011138    1.8732516449
 C    1.5562761510    2.9385321063    1.2196486286
 C    1.1675872590    3.5119626658   -0.1326324684
 C    1.2042656476    2.0201128135    0.0561363910
 H   -2.0317614653    1.2502716662   -0.1171206550
 H   -1.5767147376    3.6039116092   -1.1361865859
 H   -2.2850240772    3.5721848621    0.4834377717
 H   -0.3087139351    5.0847032862    0.3916001742
 H    0.5488878269    4.3802162673    2.5171569113
 H   -0.3469928142    2.8452817678    2.4177405864
 H    2.5381170738    2.8691182104    1.6715060362
 H    1.7678566357    4.0228459522   -0.8750262457
 H    2.0657979747    1.5049585694   -0.3530079326