22

 C    0.9050849532    1.3703575169   -0.0590679585
 C   -0.0932102432    0.2194617257    0.1350336411
 C    0.2979837876   -1.0011327295   -0.7100732387
 N   -0.2646639252    0.0114000615    1.5695457381
 C   -0.0417098884   -1.1058287347    2.0969583924
 O   -0.1964888126   -1.2576092287    3.4377733776
 C    0.0133411618   -2.5592358498    3.9258849025
 C    1.4216239851   -3.0272328323    4.1812846761
 C    0.5087615376   -2.6507526939    5.3303703309
 H    1.9073039636    1.0666720467    0.2632462887
 H    0.9584213947    1.6669826131   -1.1114217832
 H    0.6063467785    2.2355435773    0.5375024339
 H   -1.0694911211    0.5740122591   -0.2258644306
 H    1.2873301576   -1.3840922437   -0.4340232685
 H   -0.4258217139   -1.8168690992   -0.6116154832
 H    0.3376125249   -0.7200283719   -1.7667073036
 H    0.2790613629   -2.0219452317    1.5877987961
 H   -0.7245574946   -3.2815231812    3.5837488746
 H    1.6564668501   -4.0728637477    4.0161136044
 H    2.2198533050   -2.3350510266    3.9387516357
 H    0.7058093101   -1.7099301599    5.8306744600
 H    0.1116123662   -3.4334509097    5.9660279740