14

 O    0.0331688112   -0.0270243564   -0.0965035269
 C   -0.0280052348    1.1610888043    0.0971895004
 O   -1.2436080043    1.7626024974    0.1383351569
 C   -1.3560087288    3.0785773500    0.7035153486
 C   -0.8759883536    4.1528213359   -0.2262403176
 C    0.4070701734    4.2037414188   -0.6092926058
 C    1.4093166776    3.2499069479   -0.1642209363
 C    1.2075510863    1.9781175785    0.2332765284
 H   -2.4162820747    3.1890851134    0.9345858558
 H   -0.7895892139    3.1114546570    1.6451076407
 H   -1.5858746077    4.8980420984   -0.5699603619
 H    0.7499992148    5.0123533063   -1.2488145818
 H    2.4380900926    3.6044219249   -0.1767187700
 H    2.0615341219    1.3699870034    0.5118315295