18

 O    0.0603553491    1.4146869542    0.1339397750
 C    0.0415009284    0.0129330250   -0.0223234164
 C   -1.3797010492   -0.5321325436   -0.0270345184
 C   -1.4658145719   -2.0512454602   -0.1770786560
 C   -2.8492492164   -2.5718539754    0.1408507037
 N   -3.3254020310   -3.5932033069   -0.4302707519
 O   -3.5090891399   -1.9303695193    1.1587895770
 C   -3.2916784615   -0.5256026241    1.2968907501
 O   -1.9511802768   -0.1703346972    1.2375959198
 H   -0.4578674935    1.6052565222    0.9244263809
 H    0.5232175140   -0.2126354057   -0.9790854164
 H    0.6115486783   -0.4955225955    0.7722518373
 H   -1.9516702903   -0.0312795539   -0.8247755627
 H   -1.1904756412   -2.3819013996   -1.1799020997
 H   -0.7680696353   -2.5103590625    0.5351320985
 H   -4.2511501118   -3.8063220678   -0.0518132147
 H   -3.8666652054   -0.0085604428    0.5107549935
 H   -3.6693045158   -0.2578510868    2.2847634202