17

 C    0.3664102899    1.4667554764   -0.0592506482
 C   -0.1098212416    0.0066065549   -0.0307303124
 O   -1.5197106333   -0.0534557706    0.0362557380
 C    0.4422322653   -0.8310256280   -1.1959791244
 C    1.7733896774   -1.4038020010   -0.6547383865
 N    1.5480606616   -1.4333535108    0.7849561941
 C    0.4820666602   -0.7044520084    1.2010861339
 O    0.0304601920   -0.6103281561    2.3260734840
 H    1.4531672173    1.5413090404   -0.1775794268
 H   -0.1136143383    1.9853259783   -0.8939779115
 H    0.0879811395    1.9688490010    0.8717321972
 H   -1.7315012807   -0.0377751929    0.9816635812
 H   -0.2643992399   -1.6412545798   -1.3928974202
 H    0.5811720280   -0.2601605134   -2.1163531005
 H    1.9815452551   -2.4059985249   -1.0412350886
 H    2.6274321836   -0.7632111469   -0.9123870670
 H    2.1234365538   -1.9459633282    1.4342528078