17

 C   -0.2238584473    1.4580516169    0.2940666976
 N   -0.0655794530    0.0191473648    0.3835921435
 H   -0.8850453218   -0.6556918512    0.3655294529
 C    0.9628981892   -0.5815795283    0.9364736679
 N    2.0284032581    0.0276384586    1.4410806419
 C    0.9211538579   -2.0779925598    1.0188559505
 O    1.9509126092   -2.5684346094    1.8223399826
 C   -0.5012906799   -2.5372869754    1.5994633746
 O   -1.4951327354   -2.0407456403    1.0241998461
 O   -0.3823443772   -3.3277289478    2.5390510882
 H    0.6162791417    1.9079306875   -0.2465530025
 H   -1.1378113417    1.6752233383   -0.2591987553
 H   -0.3018065729    1.9268089737    1.2838937272
 H    2.0944741640    1.0247506684    1.5530166610
 H    2.6808289338   -0.5883542057    1.9114737591
 H    0.9749826397   -2.4715537110   -0.0063890293
 H    1.4293381055   -3.0950214892    2.4768321042