17

 C   -0.4705451242    1.3147714767   -0.1784682812
 C   -0.0130740224   -0.1226148834    0.0143464109
 C    1.2188933941   -0.6441868962   -0.8441913273
 O    1.8650488571    0.2463755604   -1.7060265986
 C    1.9508714135   -0.9724629427    0.4690733331
 O    2.0552660985    0.2504502076    1.1877367565
 C    0.7994442981   -0.4551809064    1.2678500102
 C    0.3670270479   -0.9258999057    2.5976096678
 O   -0.7784386112   -1.1886214875    2.8704897565
 H    0.3380360018    2.0211009162    0.0298789638
 H   -0.8031452099    1.4759812779   -1.2077946240
 H   -1.3027496225    1.5490975148    0.4920381217
 H   -0.8507573770   -0.8188199046   -0.0797980010
 H    0.9657942792   -1.5327207668   -1.4262679327
 H    2.2152784044    0.9609075717   -1.1599178210
 H    2.6716557260   -1.7490669873    0.7024156684
 H    1.1983293466   -1.0327702146    3.3275190471