23

 C    0.0548710428    1.5054383334   -0.1260486985
 C    0.0199371398   -0.0192592957    0.0596736237
 C    0.7671376795   -0.4427534101    1.3335507419
 C   -1.4039809481   -0.5556263607    0.0386321300
 C   -2.3274306315   -0.4592912885   -1.2346390898
 C   -3.1272312327   -1.5593163925   -0.4599912868
 C   -1.7286771883   -2.0969599391   -0.0074496978
 C   -3.5346163228   -0.7700291584    0.7920754554
 C   -2.4175976031   -0.1164124742    1.1193062301
 H    1.0866560362    1.8698332013   -0.1655238733
 H   -0.4440281402    1.8077562074   -1.0521169511
 H   -0.4452975285    2.0180613522    0.7033869327
 H    0.5430239410   -0.4692903526   -0.7962683564
 H    0.7767402257   -1.5310595709    1.4492905567
 H    1.8061192221   -0.0980310329    1.3089307401
 H    0.2988503344   -0.0176096970    2.2284664239
 H   -2.8341169800    0.4902933114   -1.4229161793
 H   -1.8418120796   -0.8311387897   -2.1439456852
 H   -3.8683834274   -2.1938221858   -0.9451176316
 H   -1.1861280086   -2.6245336877   -0.8000662349
 H   -1.6849869795   -2.6527089381    0.9322968437
 H   -4.5062904170   -0.7704380219    1.2656277692
 H   -2.2273743242    0.5652982901    1.9362278872