19

 O    0.0842751942    1.4280042662   -0.1020869264
 C    0.0257894755    0.0183029958    0.0063951329
 C    0.6193680216   -0.4927142100    1.3485967092
 C   -0.5745004969   -0.5421541897    2.2868241228
 N   -1.4147941018    0.6772701272    2.1986491825
 C   -1.8175735575   -0.5567199151    1.4744148066
 C   -1.4240967962   -0.4994931391    0.0270158469
 C   -2.3452116024   -0.2571651295   -1.1005068182
 N   -1.8692289783   -1.6264520078   -0.8099388778
 H   -0.4264420181    1.7570041413    0.6543776933
 H    0.5728294137   -0.3738318455   -0.8572808975
 H    1.0287420829   -1.5032984043    1.2339736061
 H    1.4204690400    0.1690280620    1.6882485008
 H   -0.5077163076   -1.0560890579    3.2398109002
 H   -1.9717306684    0.7769366956    3.0427995495
 H   -2.7149202914   -1.0880431722    1.7699689428
 H   -3.4044554942   -0.0961962615   -0.9190909937
 H   -1.9473633876    0.2674106445   -1.9649459946
 H   -1.1350728975   -1.8816304201   -1.4672141353