20

 C   -0.1306168976    1.3779812128   -0.0682660789
 O   -0.2093681399   -0.0243516554   -0.1820411011
 C    0.8097702507   -0.5653759063   -0.9958267125
 C    0.6636406828   -2.0716335926   -0.9862499634
 C    0.8608778900   -2.7182139404    0.3701757152
 C   -0.3182753875   -2.6784306661   -1.9434434924
 C    1.1744783030   -2.8439321094   -2.2027337141
 C    1.7912044802   -2.1733789759   -3.3123380662
 N    2.2952994353   -1.6344184399   -4.2041723408
 H    0.8213802043    1.6980190742    0.3834776270
 H   -0.2285717373    1.8727034521   -1.0470770936
 H   -0.9534295689    1.6993422752    0.5745249637
 H    0.7387385055   -0.1715520696   -2.0215971512
 H    1.8035211381   -0.2808358897   -0.6084561788
 H    0.1489023841   -2.2993054948    1.0861264809
 H    0.7088046838   -3.8007311064    0.3248961544
 H    1.8719891147   -2.5333330628    0.7495847112
 H   -0.8604127259   -3.5680599122   -1.6436476223
 H   -0.8615976657   -2.0155787258   -2.6065815176
 H    1.6006466301   -3.8202842470   -1.9958301096