17

 C   -0.0420372179    1.4844673912    0.0669163994
 C    1.3780571912    2.0876866594   -0.0008440511
 C    2.2182266805    1.3848794315   -1.0242844461
 C    3.2999520051    1.7176968048   -1.8097817405
 C    3.6551138065    0.5125941342   -2.4626800611
 N    2.8652081746   -0.4972380172   -2.1175364265
 N    1.9932255861    0.0551806556   -1.2401075326
 C    0.9528067404   -0.6678408519   -0.6476217382
 C   -0.0172731300   -0.0252436902    0.0041858326
 H   -0.5406879224    1.8240978405    0.9798480634
 H   -0.6460429273    1.8663629176   -0.7698002700
 H    1.3348192667    3.1593969572   -0.2125974370
 H    1.8577686320    1.9815561179    0.9827099297
 H    3.7701310760    2.6842249837   -1.8957645712
 H    4.4541015661    0.3460867421   -3.1704828911
 H    1.0235956279   -1.7383403619   -0.7838515125
 H   -0.8238057653   -0.5920135646    0.4533882226