10

 O   -0.0041822601   -0.0565221915    0.0031750863
 C    0.0339538110    1.1425462218    0.0092380606
 O   -1.1833772780    1.8316486834    0.0281813646
 N   -1.3010745557    3.2076099574    0.0365200150
 C   -0.2064330427    3.8894052217    0.0257003649
 C    1.1117469540    3.3180279170    0.0056291046
 C    1.2277129769    1.9778580799   -0.0025235702
 H   -0.3550611857    4.9644496477    0.0329497977
 H    1.9772844767    3.9717877932   -0.0025169288
 H    2.1770567337    1.4567390094   -0.0176408747