22

 C    0.1135643784    1.5689994161   -0.1044665711
 C    0.0386460553    0.0410075665   -0.0482873887
 C   -1.3979602341   -0.4815833870    0.0738609011
 C   -1.4602502942   -2.0110271436    0.1464484817
 C   -2.8921773091   -2.5964931486    0.0663310000
 C   -3.8042813724   -2.1287096490    1.2065427506
 O   -3.5467648914   -2.2132404802   -1.1390094162
 C   -2.7826111442   -4.0779010847    0.1088063829
 N   -2.6759938291   -5.2288387361    0.1140661059
 H    1.1480119201    1.9139504706   -0.1954497703
 H   -0.4457335885    1.9613905783   -0.9609101073
 H   -0.3094056947    2.0200398183    0.8000174742
 H    0.5029567665   -0.3833344354   -0.9482688586
 H    0.6328242152   -0.3253511491    0.7992773781
 H   -1.8608353072   -0.0443886580    0.9669385276
 H   -1.9916753648   -0.1386498296   -0.7814224024
 H   -0.8795649452   -2.4414324268   -0.6808257535
 H   -0.9860603217   -2.3724833698    1.0667201732
 H   -3.9493139400   -1.0491972770    1.1352787905
 H   -4.7785018065   -2.6149296407    1.1265941662
 H   -3.3651972640   -2.3707708157    2.1771717798
 H   -3.0296554684   -2.5410139684   -1.8839671237