15

 N    0.0701533260    1.4421827091    0.0944304211
 C    0.0163531683    0.0228897626    0.0215281736
 C   -1.1181825057   -0.7035507300    0.0791179856
 O   -1.1571116526   -2.0435433880    0.0919875649
 C    0.0242714711   -2.8246820562   -0.0177577498
 O   -0.1185731106   -4.0196219633   -0.0348109485
 C    1.2423583887   -2.0716806163   -0.0761268542
 C    1.2687852344   -0.7031433040   -0.0422154930
 N    2.4133710892    0.0473625869   -0.1019398654
 H    0.3393383150    1.8548201547   -0.7949487541
 H   -0.8222072842    1.8382870245    0.3654506787
 H   -2.1074215031   -0.2609374362    0.1404269780
 H    2.1548004442   -2.6532308659   -0.1265957390
 H    3.2837302903   -0.4266055484    0.0821706746
 H    2.3341692090    0.9721107206    0.2981012075