18

 O    0.0696620815    1.3480737905    0.0710998233
 C   -0.0561985961   -0.0581814360    0.2136554856
 C   -1.4117349676   -0.5811556844   -0.2749865222
 C   -1.5006426936   -2.0892388495   -0.1825262602
 C   -1.8653094132   -2.7561863766    1.1344709378
 O   -2.2091003566   -1.9601333383    2.2264846151
 C   -2.8324448527   -2.8037308462   -0.0171031910
 O   -4.0015656505   -2.0619527594    0.2120466862
 H   -0.5388069320    1.7592887064    0.6930484519
 H    0.7512100199   -0.4900450143   -0.3883729296
 H    0.1012804007   -0.3775085138    1.2538289764
 H   -2.2000664754   -0.1258119814    0.3341542739
 H   -1.5659372394   -0.2453417160   -1.3081541664
 H   -0.7774603372   -2.6268213092   -0.7922607716
 H   -1.3436163496   -3.6639789493    1.4239803135
 H   -3.1327635246   -1.7062024754    2.0921749400
 H   -2.9937516944   -3.7397351575   -0.5484972366
 H   -4.1630318191   -1.4884608897   -0.5441383258