17

 C   -0.0045581439    1.4914715713    0.0960649605
 C    0.0132489850    0.0046340971    0.0030776249
 C   -0.0004789781   -0.7342091915   -1.1312302219
 C   -0.0345087887   -0.2542219934   -2.4613838479
 C   -0.0633754661    0.1329809194   -3.6014056698
 C    0.0257241596   -2.1922297982   -0.8011328981
 O    0.0215130907   -3.1120599251   -1.5801880999
 C    0.0593786151   -2.3038665122    0.7292962194
 C    0.0503814341   -0.8556901403    1.2446042175
 H    0.8806212899    1.8543029934    0.6338497532
 H   -0.0317189887    1.9566142017   -0.8910650412
 H   -0.8753816675    1.8309622794    0.6712210011
 H   -0.0888473164    0.4652786518   -4.6096294652
 H   -0.8035337852   -2.8859430024    1.0649099159
 H    0.9514279815   -2.8616973665    1.0279078226
 H    0.9345608899   -0.6148657218    1.8484741301
 H   -0.8145833314   -0.6385540727    1.8842391388