23

 C   -0.1064172274    1.6057612675    0.0692476502
 C   -0.0436354890    0.0743832582   -0.0082433766
 C   -1.4498340860   -0.5271581688    0.0390369276
 O   -2.0591454546   -0.1597607708    1.2690961312
 C    0.6952569674   -0.4377739001   -1.2556848041
 C    2.1735083614   -0.0526568161   -1.3129535607
 C    2.9210279550   -0.6698256313   -2.4896937649
 C    4.3822803927   -0.2776471373   -2.6343492278
 O    2.3856842268   -1.4274314770   -3.2663619131
 H    0.8869140093    2.0498562429    0.1821076854
 H   -0.5582258671    2.0221830467   -0.8398963590
 H   -0.7150695371    1.9155079327    0.9213973335
 H    0.4818316275   -0.2947729182    0.8845311205
 H   -2.0355550132   -0.1588529899   -0.8201276255
 H   -1.3836381100   -1.6227695724   -0.0550122386
 H   -2.9651198527   -0.4808038650    1.2640951545
 H    0.6240302767   -1.5300026174   -1.3059412937
 H    0.1954758804   -0.0684198382   -2.1601735266
 H    2.3096685604    1.0355763862   -1.3638498201
 H    2.6929312674   -0.3587650840   -0.3925497633
 H    4.9340461709   -0.4908183504   -1.7121686601
 H    4.8310247738   -0.8197504887   -3.4675109960
 H    4.4679524074    0.8005741416   -2.8121407629