18

 N    0.8154572484    0.2851602461    0.6953350838
 C   -0.1571368503    0.2497298303   -0.2627553100
 O   -0.1652104543    1.0067028536   -1.2174013792
 C   -1.3159123204   -0.7214927921   -0.0272371155
 N   -2.5380908816    0.0184125380    0.2656755443
 C   -1.4963435276   -1.9017163322   -1.0434211922
 C   -0.2562452804   -2.5896472049   -0.4265579180
 C   -1.1427614653   -2.0773800453    0.7382296644
 N   -2.3224138733   -2.6606101068   -0.0199829433
 H    1.6015841943    0.8992992944    0.5499890975
 H    0.8856003090   -0.4222472211    1.4058262051
 H   -2.4346115839    0.5311956037    1.1378743426
 H   -2.6650951376    0.7199613952   -0.4602244306
 H   -1.7847539119   -1.8299083596   -2.0924396155
 H   -0.2397035378   -3.6731854744   -0.5354769373
 H    0.7199127151   -2.1294637883   -0.5809620397
 H   -1.0184269219   -2.2365636183    1.8130773445
 H   -3.1407937805   -2.0833418984    0.1974700491