14

 O   -0.9367347064    1.2234355248   -0.1112187002
 C    0.1990697087    0.8540663081    0.0851325775
 C    1.3781713822    1.7366893195   -0.0231680697
 C    1.3702786184    3.0488192726   -0.3282782402
 C    2.7446473438    3.6265778386   -0.2689036818
 N    3.3075382957    3.5159146318    1.1090852652
 C    3.6585033653    2.5094474485    0.0710934351
 C    2.7858299801    1.2686417566    0.1901316852
 O    3.1549931955    0.1354615427    0.3774602872
 H    0.4339425035   -0.1930249595    0.3596023811
 H    0.4780340093    3.6220453930   -0.5511932390
 H    3.0351012030    4.4610803508   -0.8951849536
 H    4.0933352769    4.1619922255    1.1928189061
 H    4.6787111842    2.4274991271   -0.2830155030