21

 C   -0.4694324743    1.2384725279   -0.0293931078
 O    0.1523499843   -0.0285758299    0.0146257462
 C    0.6554190710   -0.5858732262   -1.1655095144
 C    0.5709679270    0.1216104448   -2.5055067689
 C    1.9055198525   -0.0173421037   -1.7905383407
 O    2.4520082429    1.1088195080   -1.1686520213
 C    0.4997748514   -2.0797106359   -1.1494658035
 C    0.5489672889   -2.8467014155    0.1469437244
 C   -0.7532972664   -2.7179627539   -0.6059033264
 H    0.2302939354    2.0286374898   -0.3237320596
 H   -1.3352569412    1.2471617737   -0.7058741877
 H   -0.8186304806    1.4363382784    0.9872834364
 H    0.3696250319   -0.4761225600   -3.3887972356
 H    0.1566145173    1.1226323882   -2.5355997727
 H    2.6357504399   -0.7214571328   -2.1909978699
 H    2.8079125381    1.6832049451   -1.8553141778
 H    0.9515421202   -2.5634767565   -2.0107891634
 H    1.0537015091   -3.8064993903    0.1523291357
 H    0.6515369231   -2.2699414198    1.0578840236
 H   -1.5003789782   -2.0566541382   -0.1833008590
 H   -1.1496203822   -3.5880641232   -1.1176184277