18

 C   -0.0993173045    1.5271274533   -0.0085678046
 C   -0.0192940185    0.0056696267   -0.0009203047
 O   -1.2941778240   -0.5844224368   -0.1699119362
 C    1.1251983569   -0.5681144543   -0.8895952944
 O    1.5194737853    0.2684248247   -1.9525744739
 C    2.0205709835   -0.6715728526    0.3754315160
 C    0.7216912451   -0.5790689780    1.2257506102
 O    0.7041116685    0.2435042356    2.3672053436
 H    0.8736902994    1.9899036330    0.1662906165
 H   -0.4574677352    1.8764060089   -0.9828622463
 H   -0.7860155498    1.8590906481    0.7731838001
 H   -1.7509061214   -0.1115776634   -0.8739218908
 H    0.8275813195   -1.5627180008   -1.2483525286
 H    2.2493323115   -0.1537516293   -2.4161168369
 H    2.6519913556   -1.5551491408    0.4919538667
 H    2.6222463131    0.2330502305    0.4969145194
 H    0.3139507099   -1.5755293648    1.4401576505
 H    1.1441044850   -0.2233693000    3.0838358632