17

 C   -0.7517055559    1.0502510954    0.3034403014
 N    0.0590389464   -0.1487190083    0.1077099829
 C    1.3255442258   -0.0226864609   -0.5568849214
 C    1.2868332145   -0.3684704132    0.9103372715
 C    1.7825006996    0.6434770230    1.8727339643
 O    1.7765280600    1.8483068495    1.6960163068
 C    2.3411454714    0.0687820791    3.1991451562
 N    2.7597114543    1.0447335182    4.0327112063
 O    2.3866605375   -1.1271528318    3.4189788531
 H   -0.1748628268    1.9638201219    0.4864112791
 H   -1.3576318427    1.1840320608   -0.5979586372
 H   -1.4291128138    0.8839624337    1.1464052936
 H    1.5865974856   -0.8098533328   -1.2596714896
 H    1.6856208729    0.9755980583   -0.8019045615
 H    1.4287506997   -1.3932279680    1.2294154556
 H    2.6806809939    2.0035459627    3.7347435028
 H    3.1551095174    0.8075251924    4.9262431763