13

 C   -0.0284044948    1.4839293410    0.0058670980
 N   -0.0069901210    0.0206274788    0.0042308822
 C   -0.0043229703   -0.6567425237    1.2281215147
 O   -0.0184127975   -0.0971471177    2.2965754999
 C    0.0106276458   -0.7254320385   -1.1783739374
 O    0.0288642905   -1.9378934271   -1.2044919779
 C    0.0056107333    0.0625317459   -2.3973223370
 C    0.0024990865    0.6510923380   -3.4458418534
 H    0.8574045590    1.8855463821   -0.4912213700
 H   -0.9214439102    1.8596383459   -0.4985386776
 H   -0.0373153771    1.7956266491    1.0494881337
 H    0.0124874989   -1.7449712691    1.0914608265
 H   -0.0004575830    1.1654409154   -4.3764957917