19

 O    0.2706690117    1.2135200521   -0.4680623746
 C    0.0425031009   -0.0451144073    0.1612716718
 C   -1.3905482166   -0.4867734733    0.1476957817
 C   -2.0803738925   -0.9626222756   -1.1213777669
 C   -1.9680355383   -1.9251211004    0.0143584164
 O   -1.3071549663   -3.1227689396   -0.1898780365
 C   -2.9695102404   -1.6457715916    1.1027017093
 C   -2.2888126408   -1.1693817486    2.3663260323
 C   -2.4292231894   -0.2109631522    1.2157361373
 H   -0.2695114548    1.8667314333   -0.0122216343
 H    0.6516717176   -0.7633266961   -0.3985751690
 H    0.4177530302   -0.0357675475    1.1976118229
 H   -3.0426855086   -0.5518770229   -1.4157356480
 H   -1.4069151440   -1.1692991685   -1.9478694233
 H   -1.0077001280   -3.4482290624    0.6667593710
 H   -4.0087104084   -1.9561530443    1.0996657021
 H   -2.9492139845   -0.9970738909    3.2110703635
 H   -1.3079050386   -1.5484540591    2.6432734299
 H   -3.0443102792    0.6796900547    1.2876605244