15

 C    0.0047183886    1.4777775306    0.1434960328
 C   -0.0141690588   -0.0083595212   -0.1969611024
 N   -1.3679876026   -0.5398842180   -0.0850136532
 C   -1.6457880187   -1.8568726317   -0.0258638351
 N   -2.8246313376   -2.4249417507   -0.1344076343
 C   -2.4968410595   -3.7384058087    0.0522295245
 N   -1.2373521546   -4.0081387295    0.2554701819
 O   -0.6416546090   -2.7124156856    0.1989133876
 H    1.0209118540    1.8708471485    0.0563130806
 H   -0.6312818291    2.0494259894   -0.5418399005
 H   -0.3490785886    1.6506204884    1.1637382826
 H    0.3903773457   -0.1725491825   -1.2062171186
 H    0.6211466622   -0.5673662057    0.4950737816
 H   -2.1328405369    0.0300940985   -0.4117593561
 H   -3.2288408950   -4.5341569218    0.0351520386