18

 C   -0.0207136463    1.5032894056   -0.0151472646
 C    1.5124141811    1.8055770877   -0.0287930092
 C    2.0530396820    0.3763573817    0.0177920893
 C    1.1519840434   -0.4480385221   -0.9677787354
 C    1.4400237480   -1.8907127508   -0.5645396768
 O    1.4286614570   -1.7681907883    0.8738581875
 C    1.1564904619   -0.3802036507    1.0427155564
 C    0.0224681777   -0.0240120581    0.0358504522
 H   -0.5269993523    1.9330022286    0.8548209397
 H   -0.5314372283    1.8752946308   -0.9084183840
 H    1.8283351935    2.3405489824   -0.9294376604
 H    1.8325408895    2.3982552948    0.8338028717
 H    3.1343079951    0.2287062299    0.0321621705
 H    1.0956631774   -0.2103501775   -2.0314202081
 H    0.6680766230   -2.5999984696   -0.8880739419
 H    2.4177556373   -2.2550132342   -0.9036389019
 H    1.1169649088   -0.1318976646    2.1038644883
 H   -0.9214290290   -0.5709654257    0.0682315666