19

 C   -0.1590468451    1.4514931801   -0.1087827057
 O   -0.1498602854    0.0372920000   -0.0756172239
 C    0.6530953481   -0.5412397486   -1.0536315660
 C    0.1832855944   -0.4828635563   -2.5330787718
 C    0.3862895972   -2.0229801545   -2.6484017708
 C    0.7521426963   -2.1078446549   -1.1269966462
 C    2.2591065724   -1.9857260792   -0.9102801284
 O    3.1530370939   -2.7774524835   -0.8253516560
 C    2.2003985282   -0.4451139743   -0.8423992428
 H    0.8435811984    1.8702335764    0.0619238723
 H   -0.5368516958    1.8353235236   -1.0673524150
 H   -0.8224567265    1.7862692359    0.6914287293
 H   -0.8696901628   -0.1995050723   -2.6029870369
 H    0.7647711428    0.1453740918   -3.2124390966
 H   -0.5228137313   -2.5723123868   -2.8963738290
 H    1.1786023377   -2.3506359788   -3.3250125244
 H    0.1790341952   -2.7933633031   -0.5036053512
 H    2.8074104403    0.1030385205   -1.5682185961
 H    2.4439631020   -0.0946833060    0.1665302691