20

 C    0.1196559221    1.6697727678   -0.0519683934
 C   -0.0468622928    0.1487049405   -0.0069102504
 C    0.6105497229   -0.5679919085   -1.1764347116
 C    0.4812144918   -2.0983616705   -1.1783034839
 C    0.4940209440   -2.4333156975   -2.6702454933
 N   -0.1444272644   -3.6882301825   -3.0299615343
 C   -0.1314366458   -1.1700323028   -3.2853657658
 O   -0.6552233534   -1.0680137884   -4.3583697892
 O   -0.0243211717   -0.1383322204   -2.4119242263
 H    1.1774636796    1.9531466300   -0.0205113233
 H   -0.3107677403    2.0788653406   -0.9695945130
 H   -0.3776393758    2.1424835918    0.7997260619
 H    0.3884948320   -0.2546101095    0.9163480636
 H   -1.1111487320   -0.1165765014    0.0037966698
 H    1.6678736086   -0.2753259914   -1.2439302239
 H    1.2738990648   -2.5874193658   -0.6098835755
 H   -0.4812878642   -2.3924241336   -0.7408133761
 H    1.5328569160   -2.4679371091   -3.0288981933
 H   -1.1158291337   -3.6670844195   -2.7270358372
 H   -0.1836458778   -3.7473080100   -4.0451920448