20

 C   -0.0535133067    1.4409701936    0.0432920955
 C    0.0799946016   -0.0508809862   -0.0228022695
 C    0.5484821880   -0.9284636986   -1.1926077078
 C    0.0760429787   -1.9004141768   -0.1133430960
 C    0.6268290471   -1.0435678768    1.0666234474
 C   -0.7492153521   -1.0840566161    1.6844904099
 C   -1.4107202465   -1.9323456421    2.7121375689
 C   -1.4292750254   -0.4088352175    2.8228588020
 N   -1.1455758816   -1.0009874306    0.2343860137
 H    0.9230036215    1.9197848860   -0.0876669929
 H   -0.7179969493    1.7999706489   -0.7493572857
 H   -0.4642526860    1.7583770124    1.0060952968
 H   -0.0587276659   -0.8817198934   -2.1013492241
 H    1.6181756318   -0.9192149349   -1.4188429462
 H   -0.0385546045   -2.9842880159   -0.1421219404
 H    1.6215987475   -1.0699006854    1.5242831110
 H   -2.3398914206   -2.4226028777    2.4403113102
 H   -0.7929185378   -2.4883752572    3.4101840500
 H   -0.8250370544    0.0553706116    3.5960785761
 H   -2.3709865156    0.0924975566    2.6236511709