21

 C    0.2112127977    1.4028213683   -0.2058117910
 C   -0.0787977575   -0.0774658540    0.0435345509
 C   -1.5868886659   -0.3700168787    0.2590080726
 C   -1.6452201603   -1.0871789124    1.5824541792
 C   -0.4468177262   -1.2212495641    2.1482578079
 C    0.6625416195   -0.6554577453    1.3020561838
 C    1.6488515594   -1.7025582851    0.7194150343
 C    1.6910591626   -1.3261096614   -0.7661786014
 O    0.3860306657   -0.8589183294   -1.0678467804
 H    1.2833335515    1.5782979024   -0.3425391740
 H   -0.3085140604    1.7458984843   -1.1057225336
 H   -0.1245616961    2.0120283926    0.6401981637
 H   -2.1845657216    0.5503157520    0.2673011900
 H   -1.9627743131   -0.9824074489   -0.5686639339
 H   -2.5770875817   -1.4475546840    2.0059031086
 H   -0.2556171113   -1.7059481060    3.1002070046
 H    1.2187300181    0.1277283436    1.8303666669
 H    2.6339593131   -1.6756296084    1.1923021234
 H    1.2413993251   -2.7108702899    0.8379239285
 H    2.4459906398   -0.5438382100   -0.9510152654
 H    1.9077824116   -2.1664614054   -1.4315594947