20

 C    0.0677975589    1.5686388731   -0.0838306173
 C    0.0030789364    0.0447806885    0.0443989880
 C    0.6839425839   -0.5227676888    1.3048127317
 C   -0.0109235319   -0.1119294134    2.6008147894
 C    0.8686856050   -2.0527584805    1.1822320370
 O    2.1346692675   -2.1866946040    0.5552907469
 C    2.9063736944   -1.1629565243    1.1286953701
 O    2.0529142300   -0.0569412438    1.3363011336
 H    1.1031334933    1.9118135334   -0.0139743580
 H   -0.3365253202    1.8912039770   -1.0480491777
 H   -0.5097817064    2.0720318697    0.6977673561
 H   -1.0419021810   -0.2918264067    0.0325838632
 H    0.4925935073   -0.4138567541   -0.8227615012
 H   -1.0410229343   -0.4843459804    2.6225550603
 H    0.5216584980   -0.5179309462    3.4655058253
 H   -0.0398976052    0.9753998408    2.7029255765
 H    0.8693442511   -2.5317701883    2.1741323028
 H    0.1186921725   -2.5340104556    0.5513020345
 H    3.3365001235   -1.4905185679    2.0934108772
 H    3.7100510572   -0.8958886786    0.4344321013