20

 C   -0.0965676878    1.5180160325    0.2348206309
 C    0.0846486062    0.0010304626    0.2247473300
 N   -1.2115672013   -0.6651029005    0.2629991726
 C   -1.8217884970   -0.9703005216   -1.0278942201
 C   -1.2382169747   -2.0510375659   -0.1866983678
 N    1.2002180401    2.1838293713    0.2549164002
 C    1.7850271990    2.5032075341   -1.0442813646
 C    1.2181901100    3.5746068639   -0.1800140191
 H   -0.7097778212    1.8241768764   -0.6333328709
 H   -0.6486905811    1.8049307509    1.1362418433
 H    0.6806758043   -0.2955540284   -0.6585645114
 H    0.6543167296   -0.2956647058    1.1119733250
 H   -2.8978456157   -0.8357673086   -1.0899480888
 H   -1.2746831843   -0.6948071920   -1.9288626353
 H   -0.3038744002   -2.4945089275   -0.5281109588
 H   -1.8798058771   -2.7207179699    0.3789788063
 H    2.8596447772    2.3694751363   -1.1289066593
 H    1.2203178917    2.2375390695   -1.9373035418
 H    0.2773777117    4.0216910505   -0.4981545434
 H    1.8708263505    4.2381228222    0.3802641730