23

 C    0.1015297393    1.4607266230    0.2474931171
 C    0.0747940043   -0.0457002969   -0.0214194805
 C    0.6927590579   -0.4613172711   -1.3635302153
 C    0.0101406390    0.1541230101   -2.5823428414
 O    2.0799096709   -0.1061382399   -1.4109633666
 C    2.8378380063   -1.2861828615   -1.2102930259
 C    1.9307964314   -2.3784896150   -1.7772935215
 C    2.1210881114   -3.7694779159   -1.2007264607
 O    0.6381823107   -1.8871342651   -1.4315007389
 H    1.1195516763    1.8493694794    0.1529722199
 H   -0.5379740967    2.0125264471   -0.4484526965
 H   -0.2529359397    1.6772328440    1.2596666180
 H    0.6288965071   -0.5762231393    0.7607775315
 H   -0.9517580346   -0.4283871133    0.0108441604
 H    0.1492416632    1.2376947311   -2.5983457660
 H    0.4445871871   -0.2617729281   -3.4945917202
 H   -1.0610620354   -0.0654733886   -2.5697898529
 H    3.7900903194   -1.1820839480   -1.7375973597
 H    3.0390976928   -1.4635433836   -0.1419312157
 H    2.0384948227   -2.4092117094   -2.8737739224
 H    2.0206858144   -3.7503826272   -0.1114521011
 H    1.3724329864   -4.4572222436   -1.6028462012
 H    3.1123654756   -4.1572623081   -1.4570421803