17

 C    0.0050334964    1.5305127062   -0.0807394089
 C    0.0033479620    0.0197648222    0.0427182760
 O    0.0021629510   -0.5332726658    1.1301900002
 C    0.0028375741   -0.7432239308   -1.2179923871
 C    0.0016837753   -2.1204198686   -1.3725137967
 C    0.0016400368   -3.2461862936   -0.3961721643
 N    0.0015653678   -2.3108267746   -2.7308819299
 C    0.0021008985   -1.0792585372   -3.3348021266
 N    0.0028853668   -0.1165234341   -2.4550782393
 H    0.8843381322    1.8653446938   -0.6396832935
 H   -0.8653631721    1.8674592394   -0.6519591182
 H   -0.0007601871    1.9704387356    0.9170035213
 H   -0.8780568900   -3.8885226973   -0.5240749338
 H    0.8906615991   -3.8779702667   -0.5120461319
 H   -0.0069531295   -2.8338512019    0.6119008228
 H    0.0008048604   -3.2042593333   -3.1964404112
 H    0.0018104984   -0.9663138135   -4.4089010390