22

 C   -0.6856006099    0.7086947641    0.5654254862
 N    0.6477825058    0.3746258200    0.0671916188
 C    1.3801663238   -0.5220194724    0.9349713535
 C    0.8787997832   -1.9680743567    0.9299989697
 O    0.1231421061   -2.4195909106    0.1029693560
 O    1.4235802584   -2.6719203024    1.9362868870
 C    1.0977462000   -4.0886058920    2.0163544902
 C    2.2767781644   -4.7538960664    2.7102721706
 C   -0.2240249709   -4.2647313302    2.7556836734
 H   -0.5908551986    1.2764318429    1.4982660562
 H   -1.1891566015    1.3515116513   -0.1621821993
 H   -1.3303201303   -0.1636150190    0.7566003356
 H    0.5530185945   -0.0717102097   -0.8399477770
 H    2.4366545802   -0.5546651632    0.6358881178
 H    1.3686087296   -0.1458500024    1.9633791375
 H    0.9942464343   -4.4557556927    0.9914208130
 H    2.4041483839   -4.3597054982    3.7233324867
 H    2.1108798533   -5.8330455381    2.7793465925
 H    3.2026852646   -4.5818260794    2.1549842621
 H   -0.4667100377   -5.3285310270    2.8416166654
 H   -0.1605720991   -3.8435609897    3.7641273602
 H   -1.0339841641   -3.7716393880    2.2139168241