25

 C   -0.7701640625    1.2076524228   -0.0494145343
 C    0.1122402346   -0.0392382846   -0.0580789452
 C    1.2677158984    0.0192729812   -1.0768682459
 O    2.3434608716   -0.7433333960   -0.5355848553
 C    1.9115129533   -1.3717586355    0.6717472636
 C    3.1369378524   -1.6906989897    1.5122935595
 C    0.8418883160   -0.4182376465    1.2647547844
 C    1.4894911698    0.8026580614    1.9392633539
 C   -0.0871200570   -1.1327444995    2.2507729555
 H   -0.1910945053    2.1153245963    0.1461296003
 H   -1.2641313471    1.3361384177   -1.0186548416
 H   -1.5567402283    1.1383069321    0.7094996734
 H   -0.5223589599   -0.8974440391   -0.3164978637
 H    0.9715699850   -0.3854215431   -2.0542804898
 H    1.6151820640    1.0495271584   -1.2367946258
 H    1.4036058865   -2.3224658773    0.4256255056
 H    3.7070513918   -0.7874472976    1.7422866072
 H    2.8482213939   -2.1760263412    2.4502151818
 H    3.7937265689   -2.3736067984    0.9661315233
 H    2.2002644746    1.3037257752    1.2753919162
 H    0.7325674625    1.5330332414    2.2399707341
 H    2.0300414512    0.5073547510    2.8436009273
 H    0.4549739460   -1.4540061321    3.1470856634
 H   -0.8958169152   -0.4717387628    2.5810804852
 H   -0.5442449351   -2.0200090742    1.7989821270