20

 C    0.0256933373    1.5736459075   -0.0215386848
 C    0.0688328645    0.0622171373   -0.0726101130
 C    0.6579243632   -0.7693094228   -1.2093143027
 C   -0.0983893495   -1.8215779822   -1.9665459479
 C    1.9491779456   -0.1056105174   -1.6772395967
 O    2.4636176689   -0.0391132193   -0.3222813453
 C    1.3126130586   -0.7524055954    0.1652526258
 C    1.5448721189   -1.7649455470    1.2391540110
 H    1.0069980620    1.9994517226   -0.2441423253
 H   -0.7006716697    1.9818921771   -0.7329617566
 H   -0.2604187287    1.9170627834    0.9784593556
 H   -0.8162211284   -0.4274817594    0.3328399941
 H   -0.6827454203   -1.3846685928   -2.7858828419
 H    0.5766308386   -2.5673296548   -2.4025600324
 H   -0.8010465623   -2.3499323921   -1.3138089022
 H    2.5733601356   -0.7663106579   -2.2919164217
 H    1.8864859098    0.8813411228   -2.1517284144
 H    1.8787536003   -1.2773227155    2.1624726405
 H    0.6210692200   -2.3069812733    1.4618725115
 H    2.3124320156   -2.4869358708    0.9425513163