21

 C    0.0021087473    1.5915092571   -0.0794267253
 C    0.1016124474    0.0671285293   -0.0213112527
 C    0.7382707109   -0.5935779195   -1.2381629153
 C    2.2442960328   -0.6125089580   -1.3493842731
 C    1.5143562057   -1.8068244627   -0.7838247902
 C    1.3857322887   -1.9148170490    0.7278662461
 C    0.8908667168   -0.5123817835    1.2091207173
 C    1.9826835578    0.3327350710    1.6840076637
 C    2.8790838805    1.0136589501    2.1093075927
 H    0.9901037348    2.0496615909   -0.1731856125
 H   -0.6007280311    1.9012273359   -0.9394513721
 H   -0.4699488225    1.9955652660    0.8223055183
 H   -0.9166177644   -0.3370468496    0.0608152205
 H    0.1572296120   -0.6114851580   -2.1545825223
 H    2.6563139222   -0.7202899828   -2.3471871981
 H    2.8390684337    0.0078435657   -0.6888283302
 H    1.5056272525   -2.7256634720   -1.3600608736
 H    0.6265296621   -2.6662234203    0.9735627887
 H    2.3115975265   -2.2072713683    1.2312217672
 H    0.1974949873   -0.6341315173    2.0487016851
 H    3.6702374590    1.6162632947    2.4814920160