17

 C   -0.0655227606    1.6116916725   -0.0210739580
 C   -0.0437056457    0.0808485644   -0.0051427024
 C    0.7490678605   -0.4916633827   -1.1836929330
 C    0.7358098329   -2.0438882656   -1.2399846555
 O   -0.5747776257   -2.5776035891   -1.2996316649
 C    1.5252324451   -2.4901325780   -2.4166051043
 N    2.0902762197   -2.7949833545   -3.3765335687
 C    1.3543527163   -2.6027775896   -0.0176830692
 N    1.8554693050   -2.9965891555    0.9441708353
 H    0.9468288296    2.0256505971    0.0354117081
 H   -0.5314193251    1.9960125958   -0.9350776853
 H   -0.6321351061    2.0000209632    0.8297636240
 H    0.3978870468   -0.2740333696    0.9329137384
 H   -1.0650257307   -0.3121215362   -0.0348222874
 H    0.3356510397   -0.1394040324   -2.1373852696
 H    1.7922964538   -0.1584856223   -1.1527433746
 H   -0.9808709454   -2.2733352773   -2.1208488128