18

 C   -0.0027666040    1.5217975756   -0.2534101886
 C   -0.0366438189    0.0809165944    0.2702961226
 C   -1.4171155512   -0.5280669402    0.1613428076
 C   -1.8909853116   -1.1861238031   -1.0897186698
 C   -1.6020007493   -2.0630960976    0.1425113030
 C   -0.4521684191   -2.9270754374    0.1300167699
 C    0.5068426752   -3.6511453055    0.1204738229
 C   -2.7507299395   -2.5746379031    0.8534742369
 N   -3.6804761907   -2.9619530878    1.4219497952
 H    1.0014977046    1.9449170890   -0.1595292378
 H   -0.2905245107    1.5670413053   -1.3088567154
 H   -0.6896400048    2.1655686731    0.3063084976
 H    0.6785821398   -0.5372806117   -0.2817278624
 H    0.2828551049    0.0585058591    1.3189637743
 H   -2.1847448654   -0.0227873248    0.7412586027
 H   -2.9295450779   -1.0921850727   -1.3835159553
 H   -1.1869805963   -1.3035266203   -1.9059248979
 H    1.3499066950   -4.2971112324    0.1149503044