21

 C   -0.0677295106    1.7696995753    0.3973947445
 C   -0.0746725461    0.2683766191    0.0737822634
 C    0.7256103026   -0.5682084173    1.0905038271
 N    2.1403584139   -0.2090628734    1.0915168620
 C    2.6000694273    0.6716593878    2.1635618384
 C    2.9344034135   -0.7769897825    2.1767374958
 C   -1.5168886820   -0.2436578572    0.0763483240
 N   -1.9477566619   -0.7980330636   -1.0937752774
 O   -2.2273335564   -0.1727594010    1.0625444974
 H    0.9538929519    2.1549580846    0.4202986737
 H   -0.6259974278    2.3340310714   -0.3564713003
 H   -0.5413890776    1.9470162309    1.3669431531
 H    0.3800135783    0.1125696471   -0.9117909783
 H    0.2572362558   -0.4651989927    2.0833862172
 H    0.6562887962   -1.6265069238    0.8097960229
 H    3.3468641757    1.4092848217    1.8834151116
 H    1.8659733000    1.0183125116    2.8888148889
 H    2.4227649739   -1.3964528580    2.9119188148
 H    3.9290089028   -1.1197137174    1.9056212487
 H   -1.3759242242   -0.8287756065   -1.9185744547
 H   -2.8957111152   -1.1346533961   -1.1437779726