18

 C   -0.2851286634    1.5053795766    0.0308364936
 C   -0.0456129169   -0.0027197952    0.1074058096
 N    0.5380584534   -0.3563943125    1.3990919504
 C    0.0597537322   -1.2950681113    2.0655640407
 O   -0.9943439469   -2.1726356760    1.8035503225
 C   -0.8536215141   -2.8321489450    3.0992958869
 C    0.3475753804   -1.9343059328    3.3950040157
 C    1.6109560748   -2.1560084201    4.0974192615
 O    0.6080589983   -1.2618342107    4.6005717535
 H    0.6439796028    2.0510601409    0.2175908772
 H   -0.6630611439    1.7840723190   -0.9578600951
 H   -1.0180620856    1.8210824920    0.7794682721
 H   -0.9763955287   -0.5491850984   -0.0926599461
 H    0.6738028893   -0.2943790492   -0.6686627230
 H   -1.7255332843   -2.6580285176    3.7349568651
 H   -0.6625026460   -3.9014816562    2.9811566421
 H    1.7520032107   -3.0710288559    4.6705745184
 H    2.5134854979   -1.6783405578    3.7220485949