14

 C   -0.2525990418    1.4927823415    0.0464601216
 C    0.0655859283    0.0177195924    0.0277244477
 O    1.2826895435   -0.2802019574   -0.7636084742
 C    1.9525953846   -0.7146319868    0.3504078724
 N    3.1510174641   -1.0321090729    0.5426989447
 C    0.7612837228   -0.5883430872    1.2785438412
 O    0.9189017820    0.2622355294    2.3837530491
 H    0.5731288170    2.0632031410    0.4762769611
 H   -0.4491895011    1.8504463703   -0.9681467639
 H   -1.1433490740    1.6721054268    0.6565050002
 H   -0.7626795340   -0.5802529157   -0.3613991667
 H    3.7112710702   -0.9450777855   -0.3067961611
 H    0.3384579857   -1.5566837797    1.5761095311
 H    1.8401284525    0.1977727838    2.6612057068