19

 O   -0.1244049787   -0.0977106114   -0.2543222246
 C   -0.0278600497    1.0956970485   -0.0657042267
 C    1.2987017853    1.8314621602   -0.0158478454
 C    2.5094203336    0.9302794922   -0.2688787669
 C    3.8185864293    1.6851249666   -0.1848058629
 C    4.4893135408    1.9042427389    1.1500011125
 C    5.0978129149    0.9599976950    0.1411624443
 C   -1.2063152713    1.9279424191    0.1342946929
 C   -2.1678704221    2.6329051351    0.3003591950
 H    1.2518524486    2.6544131852   -0.7427900854
 H    1.3703796122    2.3252979630    0.9632902719
 H    2.5049601473    0.1107431394    0.4585768586
 H    2.4054680163    0.4557343119   -1.2515175844
 H    3.9104666748    2.5039140884   -0.8953513002
 H    4.9850387072    2.8506111995    1.3359650094
 H    4.0221197348    1.4693033194    2.0281681781
 H    5.0370718923   -0.1042969188    0.3440879124
 H    6.0078163667    1.2628873731   -0.3647957047
 H   -3.0288232624    3.2395049246    0.4448642761