15

 N   -0.0827149179   -1.1472806085    0.0006297180
 C   -0.0434643981    0.0080452828    0.0006065941
 C    0.0105219641    1.4516594629   -0.0396476071
 O    0.5968728071    2.1055421534    1.0984156898
 C    1.3125406146    2.1488805570   -0.1145918745
 C    2.7579441854    1.6668915407   -0.2328667320
 N    3.1654113458    2.9870870194   -0.8485029517
 C    2.3778641887    3.1089427155   -2.0834883168
 C    1.7073952635    3.4282396401   -0.8022474662
 H   -0.8786695682    1.9324724552   -0.4422812472
 H    3.2239310658    1.5435177392    0.7464311949
 H    2.9636902401    0.7940389257   -0.8590086869
 H    2.6852431155    3.9443681763   -2.7046466416
 H    2.1018118524    2.2098539961   -2.6311669259
 H    1.4042339511    4.4247468542   -0.5011678369