17

 C   -0.1044393368    1.6154155128    0.0697687059
 C    0.0227895677    0.1266236319   -0.0102804720
 C    0.0605526001   -0.6971484061   -1.1232877505
 C    0.0141857749   -0.4032370959   -2.5873285280
 O   -0.4352103074   -1.5780690989   -3.2533240111
 N    0.2082940206   -1.9655647629   -0.6764681712
 N    0.2394962097   -2.0494223942    0.6778055788
 C    0.1429427257   -0.7871903144    1.0646195080
 O    0.1534539474   -0.4361697625    2.3705374750
 H    0.8692176440    2.1163907393    0.1406258729
 H   -0.6165965066    2.0233318177   -0.8080493326
 H   -0.6775946724    1.9054448465    0.9553363765
 H   -0.6559982727    0.4506608276   -2.7701690626
 H    1.0132262364   -0.1103313128   -2.9489986367
 H   -0.2752640400   -1.4700682211   -4.1949868492
 H    0.1560700490   -2.7965784001   -1.2390318504
 H    0.2115639205   -1.2536842667    2.8803790473