20

 C   -0.1085828065    1.4725149850    0.0199055034
 C    0.0156171910   -0.0168095426   -0.0437061297
 C    0.0513833410   -0.7875932776   -1.1308078042
 C    0.0935426076   -2.2612318537   -0.8219491876
 C    0.4277879547   -2.2867343937    0.6860918368
 C    0.0441414991   -0.8740434483    1.2333274684
 C    1.0349282325   -0.3711080075    2.3033314162
 C   -1.3109228374   -0.8915606270    1.8152725284
 N   -2.3757969328   -0.8930349292    2.2670158723
 H    0.7491236797    1.9321216437    0.5252696769
 H   -0.1803376013    1.9037162816   -0.9816354594
 H   -1.0031638694    1.7670647725    0.5827068714
 H    0.0109761916   -0.4047346342   -2.1454130876
 H   -0.8769569701   -2.7297343259   -1.0345950963
 H    0.8351494337   -2.8046734121   -1.4174212366
 H   -0.0699484363   -3.0907995260    1.2314503895
 H    1.5060467137   -2.4119638661    0.8235433173
 H    2.0344501220   -0.2927847780    1.8655605443
 H    0.7453780380    0.6087716694    2.6913139583
 H    1.0771726091   -1.0676803305    3.1453993381