13

 C    0.0005199098    1.4615426818    0.0091115516
 O    0.0249723534    0.0364363222    0.0048615673
 C   -1.1595843565   -0.5802753078    0.0124074509
 C   -1.3491121259   -1.9403622875    0.0103212918
 O   -2.6825070434   -2.2055130091    0.0198121533
 N   -3.3772960002   -1.0242888414    0.0281253593
 C   -2.4858366564   -0.0608353876    0.0240717844
 C   -0.4396662590   -3.0152390350    0.0005045157
 N    0.3238172812   -3.8861971815   -0.0076594997
 H    1.0424770389    1.7802474926    0.0019846767
 H   -0.5067155426    1.8490722522   -0.8821896528
 H   -0.4928976914    1.8439613556    0.9103208657
 H   -2.8166446277    0.9665191854    0.0293359458