18

 C    0.0269864764    1.4796903639   -0.0638839296
 C   -0.0051890696   -0.0138427224    0.0381723226
 N    0.5710467551   -0.9454495930   -1.0458182007
 C    0.0548538070   -1.9191307905    0.0101509844
 C    0.6845621147   -0.9670497403    1.0755782447
 C    2.2010397910   -0.9272258810    1.2103421291
 O    2.6879369353   -2.0462020397    1.9408796019
 C   -1.1911567484   -1.0104490350    0.0562844280
 O   -2.3782633974   -1.0408458519   -0.0506078476
 H    1.0506278115    1.8474915070   -0.1812655912
 H   -0.5636824037    1.8239415925   -0.9188359356
 H   -0.3999394340    1.9271709905    0.8389584957
 H   -0.0276974410   -0.9556089913   -1.8768600769
 H    0.1574384723   -2.9969727963   -0.1019814657
 H    0.2097518508   -1.0059920259    2.0594922959
 H    2.6738570465   -0.8436086272    0.2263688905
 H    2.4852997528   -0.0474520347    1.7980547278
 H    2.6050087607   -2.8211539446    1.3765886065