17

 O   -0.1894643096    1.3154765506   -0.0403599434
 C   -0.0297298552   -0.0561361584    0.0915099137
 C   -0.6369722823   -0.7934303702    1.2683038113
 C   -1.2370599177   -0.9354983818   -0.1149524394
 O   -2.4055208004   -0.2050566832   -0.4000821522
 C   -1.1408403391   -2.2225794372   -0.8861686170
 O   -2.1772932017   -3.1278373802   -0.4765439369
 C   -3.2777503658   -3.2064657110   -1.2526561744
 O   -4.2392357039   -3.8418864931   -0.9411508577
 H   -1.1237360597    1.4607381430   -0.2468351099
 H    0.9321268989   -0.3958360810   -0.2826582969
 H   -0.1124233012   -1.6426260075    1.6930958436
 H   -1.1888535125   -0.1884676215    1.9802111389
 H   -3.0858383563   -0.4521837672    0.2357594232
 H   -1.2248097147   -2.0236345272   -1.9620920197
 H   -0.1897842289   -2.7257990487   -0.6953763028
 H   -3.1808886601   -2.6338709954   -2.1945925005