18

 C   -0.2106387527    1.0749208324   -0.0000890562
 O    0.8730376800    1.8314649113    0.5058641293
 C    1.9955941592    0.9747299671    0.6610276055
 C    2.3982110813    0.6875321340    2.1298877831
 C    1.9263601395   -0.7265954860    2.4230672135
 N    0.4763128723   -0.8952527308    2.2215058326
 C    1.4166260775   -1.3581357687    1.1774733742
 C    1.5401965844   -0.3745866842    0.0231622998
 O    0.3329071001   -0.0574247976   -0.6482204193
 H   -0.8757844433    0.7708992980    0.8175104690
 H   -0.7481025177    1.6751846243   -0.7431484913
 H    2.8283840240    1.4300325874    0.1152122046
 H    3.4865726535    0.7464461791    2.2389324081
 H    1.9504834366    1.4271882864    2.7989547726
 H    2.4168567300   -1.3115640332    3.1947527417
 H    0.1450514292   -1.6985434379    2.7494165193
 H    1.5069630839   -2.4224490520    0.9874127996
 H    2.2432262923   -0.7532294997   -0.7249002961