16

 C   -0.1884317595    1.5073745755   -0.0427890018
 C    0.1717288750    0.0305329905    0.0293336677
 O    1.2997976230   -0.3785165657    0.1066378400
 N   -0.9604422559   -0.8028585582   -0.0031667703
 C   -1.0076299063   -2.2008100690    0.0463763804
 O   -0.0419765839   -2.9153141080    0.1263744189
 C   -2.4456640459   -2.7518320827   -0.0126598735
 N   -2.5451324924   -4.1965617040    0.0342779575
 H    0.7313874092    2.0902164434   -0.0225212709
 H   -0.7400666911    1.7321885269   -0.9620685285
 H   -0.8193917747    1.7972839382    0.8044960587
 H   -1.8527834801   -0.3350009956   -0.0696931958
 H   -3.0179061701   -2.3188720706    0.8193021980
 H   -2.9220487680   -2.3823306265   -0.9311139830
 H   -1.9950902393   -4.5859246838   -0.7270153635
 H   -2.0805363901   -4.5278578803    0.8757791162