19

 C   -0.0700780050    1.6159833563    0.5071434023
 C    0.0111715438    0.1447682352    0.1068011565
 C    1.1628878028   -0.2145890067   -0.8881436146
 C    1.9745440243   -0.8684272028    0.2720268409
 C    0.7237329082   -0.7456120833    1.1436298618
 O    0.7325693222   -0.5147605541    2.5318094271
 C    0.1700165761   -1.7583210183    2.0724078108
 C   -1.3051084404   -1.8868856356    2.2420010044
 O   -1.8831397771   -2.9422757229    2.3052875674
 H    0.9105866133    2.0030740787    0.8039265648
 H   -0.4333381543    2.2216877472   -0.3290547635
 H   -0.7485314466    1.7571963199    1.3536733671
 H   -0.9753620405   -0.2130958593   -0.2016199305
 H    0.8585466964   -0.9331106288   -1.6515913419
 H    1.6376546028    0.6376044070   -1.3785684076
 H    2.3628314640   -1.8752438685    0.1046332531
 H    2.7864618757   -0.2373345964    0.6436290909
 H    0.7510133086   -2.6542504861    2.2859679278
 H   -1.8355972943   -0.9108913114    2.3032995231