19

 O    0.2464383946    1.4377343113   -0.1684747258
 C    0.0958761271    0.0450819907   -0.0658434600
 C    0.0588195169   -0.6345799037    1.3175685597
 C   -1.4641639946   -0.2763632232    1.5322331888
 C   -1.3104613921   -0.5843059972   -0.0090074975
 C   -0.7571697075   -1.8491518099    0.7428745133
 C   -1.8130941989   -1.7282109370    1.8373715603
 C   -2.0185408943   -2.4620133208    3.1192582316
 C   -3.1148788865   -2.4217461472    2.0570954435
 H   -0.3501807942    1.8540161843    0.4631709553
 H    0.7872787269   -0.3872665497   -0.7958893786
 H    0.8217656745   -0.6851005417    2.0956472791
 H   -1.8711211425    0.6293028011    1.9866125696
 H   -2.1131405254   -0.5773441209   -0.7477247807
 H   -0.3368019666   -2.7404100187    0.2751991876
 H   -1.4978387255   -3.4023550484    3.2719902433
 H   -2.1755941703   -1.8907263165    4.0291021368
 H   -3.9971367776   -1.8238145152    2.2643380640
 H   -3.3191535041   -3.3354599473    1.5074604397