17

 O   -0.0202722195   -0.0101688960    0.0371279225
 C    0.0114499090    1.1861131659    0.0070910368
 O   -1.1293504464    1.9327786738   -0.0010284213
 C   -0.8662506090    3.3574534172    0.0182749197
 C   -0.1057083995    3.6982548095    1.3060573822
 C    1.2453865354    2.9331389383    1.2717569249
 C    1.2496239759    2.0798611004   -0.0074011700
 O    1.1939940060    2.9342095642   -1.1544400343
 C   -0.0219035804    3.6823464050   -1.2092561931
 H   -1.8431449838    3.8406238488   -0.0305309977
 H    0.0429402250    4.7803138147    1.3661693949
 H   -0.7138068199    3.4020358997    2.1644799921
 H    2.0967200783    3.6173320216    1.2252935914
 H    1.3749193514    2.2984782373    2.1530223685
 H    2.1443766969    1.4685534266   -0.1143656541
 H   -0.5658424520    3.4155660273   -2.1239379069
 H    0.2100185527    4.7550476558   -1.2414635255