15

 O   -0.8241850285    1.0140798346    0.5155601243
 C    0.0965121868    1.1199912176   -0.2393467674
 C    1.3634086295    1.9714295333    0.0044581337
 O    2.4621096735    1.1200988183   -0.2290229844
 C    3.4709833710    1.9445590718   -0.8115151292
 C    2.6527244392    2.9014937434   -1.6833999062
 O    1.3795449054    2.9521971337   -1.0295176461
 C    1.4096701449    2.6020450554    1.3264483267
 C    1.4583873862    3.1111038985    2.4125417105
 H    0.1416920886    0.6251082627   -1.2321962341
 H    4.0264675556    2.4803131741   -0.0313894258
 H    4.1519590131    1.3019075023   -1.3714944081
 H    3.0758805295    3.9091888484   -1.7280464965
 H    2.5216351305    2.5195301537   -2.7023125246
 H    1.4895832746    3.5594336824    3.3753788673