22

 C    0.0272674109    1.5547010792    0.0062822008
 C    0.0422098630    0.0253044515    0.0276533557
 C   -1.3592627777   -0.5167686219   -0.2741672381
 C    1.0909371395   -0.7189013996   -0.8096318549
 C    1.2608340800   -1.7760189987    0.2083524028
 N    2.3918246079   -0.8432473877   -0.0597245502
 C    2.1359221210   -0.1918204238    1.2658655566
 C    0.6926062243   -0.7265071231    1.2560737033
 C   -0.0727023341   -0.9814340419    2.5281546923
 H    1.0246945056    1.9908281488    0.0869373791
 H   -0.4095529499    1.9156311712   -0.9319095532
 H   -0.5861787247    1.9536468449    0.8230218413
 H   -1.6856454545   -0.2132863690   -1.2752120701
 H   -1.3896230186   -1.6099419470   -0.2322267231
 H   -2.0931988179   -0.1279188651    0.4404469569
 H    1.1583081632   -0.7925930390   -1.8885300240
 H    1.3341628252   -2.8549102736    0.1634319766
 H    2.7586833745   -0.6943397314    2.0123384335
 H    2.3136043615    0.8876445308    1.3163630010
 H   -0.2992919089   -0.0386868920    3.0409194196
 H   -1.0222342664   -1.4931271709    2.3424449557
 H    0.5097184160   -1.5995422118    3.2201299884