15

 O   -0.0943130072   -0.0504432728   -0.2667027147
 C   -0.0243966460    1.1295956806   -0.0415007474
 C   -1.2024077035    2.0607877102    0.1783235134
 C   -0.8272700561    3.2635537945    0.6482365410
 C    0.6496880651    3.2040692680    0.8511773189
 C    2.0455855761    3.8697523701    0.8993290614
 C    2.1824749557    2.3289925220    1.1785927551
 O    1.0444982111    2.4314956478    2.0945916915
 C    1.2005801684    2.0556661404    0.0032195837
 H   -2.2187897701    1.7213641149    0.0169860238
 H   -1.4811842100    4.0762507885    0.9404111371
 H    2.4464049624    4.2751000116   -0.0328619533
 H    2.2440849987    4.4999718097    1.7662287323
 H    3.0565115590    1.7699451734    1.5099946485
 H    1.5418693465    2.3094705013   -1.0054952812