19

 C    0.0864301235    1.5544443731    0.0930075135
 C   -0.0237119825    0.0284337876    0.0174809013
 C   -1.4629285966   -0.5084881694   -0.0931907822
 C   -2.1721179779   -0.0416764410   -1.3732288715
 C   -1.4663339911   -2.0502628868   -0.0006446458
 C   -2.8556824096   -2.6167803876    0.1754994124
 O   -3.3632754015   -3.4554859711   -0.5235865407
 H    1.1255260314    1.8605120006    0.2485650546
 H   -0.2621733003    2.0377851831   -0.8243732315
 H   -0.5047637210    1.9533339745    0.9251648896
 H    0.5602151871   -0.3407664861   -0.8367379469
 H    0.4410497118   -0.4056962436    0.9119757260
 H   -2.0270921948   -0.1241433831    0.7705616015
 H   -1.6182046088   -0.3645385262   -2.2626607217
 H   -3.1811759192   -0.4597197491   -1.4472046012
 H   -2.2636303925    1.0469107046   -1.4108260985
 H   -1.0085991405   -2.5067960969   -0.8843450797
 H   -0.8832962469   -2.3561908732    0.8805626278
 H   -3.4119064005   -2.1854011796    1.0431250430