14

 O   -0.1800505726    0.1092604587   -0.3366933868
 C    0.0461453310    1.1888239202    0.1400760896
 C    1.3601711206    1.9269633406   -0.0001054452
 O    2.4516881691    1.1593971101   -0.5365255529
 C    2.6212484451    2.0734583344   -1.6116816433
 C    1.4234208359    2.1221588074   -2.4863742796
 C    1.4194251865    2.9243048655   -1.1847465873
 C    1.2356519376    4.3291229712   -1.1004699673
 N    1.0797157019    5.4734031031   -1.0163812754
 H   -0.7244674436    1.7648719381    0.7008747593
 H    1.6417525461    2.4028713745    0.9470115917
 H    3.6278982781    2.3672660044   -1.8817910914
 H    1.5107526925    2.7407100760   -3.3731078962
 H    0.7871011616    1.2469168757   -2.5706354151