18

 O   -0.0758672934    1.4720694225    0.0283053177
 C    0.0413344225    0.0590927109   -0.0079907679
 C   -1.3708036696   -0.5145702907   -0.0141682431
 C   -1.3881392532   -2.0414371123   -0.0023528603
 O   -0.7931498003   -2.5941505087    1.1586939728
 C   -2.8337360809   -2.5815584292   -0.1728930318
 O   -3.4543038501   -2.1335000634   -1.3622905053
 C   -2.8508556068   -4.0550057775   -0.0851653937
 N   -2.8756569205   -5.2100242621   -0.0810688763
 H    0.8088906925    1.8466685071    0.0675013796
 H    0.5789950680   -0.2768104402   -0.9101503355
 H    0.5932625581   -0.3258006177    0.8615668134
 H   -1.9106059327   -0.1363513252    0.8660674965
 H   -1.9121329202   -0.1510688187   -0.8923636710
 H   -0.7899226457   -2.4290117731   -0.8378352751
 H   -1.1966538743   -2.1823058291    1.9318221601
 H   -3.4483163984   -2.1857635137    0.6456423069
 H   -3.0449268949   -2.5869301589   -2.1085650070