20

 C    0.1160098297    1.3013778225   -0.4311326994
 C    0.0246477126   -0.1384922226    0.1168180883
 C    0.6762075157   -0.2354187209    1.5022135397
 C   -1.3975978862   -0.6375519500    0.1088441504
 C   -2.2468329067   -0.8419246406    1.1788642935
 N   -3.4564268767   -1.2614955341    0.6998665365
 C   -3.4166295353   -1.3497292731   -0.6755474324
 C   -2.1548909836   -0.9651151120   -1.0590051100
 O   -1.7335274408   -0.8969918768   -2.3604821065
 H    1.1582335489    1.6328340895   -0.4988477445
 H   -0.3337965208    1.3789193218   -1.4257118462
 H   -0.4217904075    1.9925740391    0.2263493953
 H    0.6144868274   -0.7812217966   -0.5585945840
 H    0.6428844420   -1.2586190322    1.8878720091
 H    1.7227589448    0.0824230601    1.4613610766
 H    0.1635861416    0.4143798770    2.2206736879
 H   -2.0803316588   -0.7250468096    2.2371218679
 H   -4.2521707286   -1.4932157622    1.2655161090
 H   -4.2652432858   -1.6672411523   -1.2567288830
 H   -0.7734034620   -0.8422636968   -2.3644815380