20

 C    0.0348450447    1.4935037119   -0.0883228674
 C   -0.0483015458   -0.0019428195    0.0827401578
 C   -1.3968915549   -0.7004547500   -0.1371892035
 C   -1.3414739543   -1.9148406598    0.7725636573
 C   -2.4311736780   -2.9363957802    0.7772759912
 O   -2.1266131072   -3.9573226297    1.7094247575
 C   -0.2206480430   -1.9242659184    1.5029512176
 C    0.6687579103   -0.7833473116    1.1394610991
 N    1.1639687849   -0.7596349356   -0.2627913256
 H    1.0437154781    1.8473325152    0.1369390428
 H   -0.1979347574    1.7839096781   -1.1198091430
 H   -0.6733824123    2.0058339761    0.5723734575
 H   -2.2284659362   -0.0355377516    0.1364762623
 H   -1.5556587812   -0.9677942667   -1.1912996620
 H   -3.3895699324   -2.4423623104    1.0203570802
 H   -2.5518353274   -3.3453967087   -0.2424879417
 H   -2.8543561502   -4.5851196973    1.7147002703
 H    0.0354305938   -2.6816840628    2.2318375975
 H    1.3378879818   -0.3376979687    1.8689722294
 H    0.9250436766   -1.6432262902   -0.7103625574