20

 C   -0.1252045908    1.4466800244   -0.3188505103
 C   -0.0036372217   -0.0416004088   -0.0529895530
 O    0.6316057378   -0.6342498423   -1.1986765129
 C    0.8334567399   -1.9611946555   -1.1630939575
 N    0.5013178516   -2.6659305289   -0.1600660128
 C    1.5044469163   -2.4084491880   -2.4433986670
 C    2.8300986053   -1.7490288827   -2.7496277114
 C    1.1597432189   -3.7209186263   -3.0051268433
 O    0.6052088280   -2.5249511233   -3.5581285673
 H    0.8596282352    1.8997261073   -0.4649617620
 H   -0.7264001541    1.6354883631   -1.2126335091
 H   -0.6072081282    1.9373393844    0.5319479973
 H    0.5976366358   -0.2558336630    0.8368076410
 H   -0.9793346433   -0.5156903999    0.0950817079
 H    0.7509118920   -3.6405648844   -0.3108059296
 H    3.5633231511   -1.9708432525   -1.9669706850
 H    3.2157652937   -2.1068001106   -3.7072477032
 H    2.7045462666   -0.6648922450   -2.8017387770
 H    1.8885018482   -4.2347734189   -3.6309003099
 H    0.4481542676   -4.3695526590   -2.4966284651