18

 C   -0.0913054720    1.6104827919    0.0192623763
 C    0.0741192945    0.0958699526    0.0316037297
 C    1.1330852635   -0.5977538986   -0.8719372922
 O    1.2629751334   -0.6612827714   -2.0629416434
 C    1.7745450096   -1.2945990807    0.2859806490
 C    2.1575214528   -0.2477929547    1.3313237914
 C    0.7250472758   -0.6367592383    1.2303573346
 C   -0.0481558462   -1.2806508726    2.3444205209
 H    0.8324147916    2.1265851096    0.2972589143
 H   -0.3701927526    1.9474885914   -0.9839321484
 H   -0.8765732619    1.9311799268    0.7118728562
 H   -0.8847673015   -0.3826775937   -0.2108144884
 H    2.2140664401   -2.2848984264    0.2954375403
 H    2.7027174193   -0.6605600159    2.1750382471
 H    2.5113056513    0.7306659920    1.0204804498
 H   -0.4920516597   -0.5247065299    3.0029372778
 H   -0.8631369071   -1.9016168130    1.9563980829
 H    0.5969916291   -1.9147988389    2.9608689121