17

 C    0.0324703631    1.5555035024   -0.0021417366
 C   -0.0280553509    0.0329860355   -0.0532191067
 N    0.7576759757   -0.4753355983   -1.1735399227
 C    0.8080988443   -1.8525893747   -1.3436449363
 C    0.3739945087   -2.9055652106   -0.5550453569
 C    0.7865312104   -4.0617375626   -1.2576132933
 N    1.4172674033   -3.7767974552   -2.3869397133
 N    1.4205986441   -2.4160095097   -2.4185417785
 H    1.0665376787    1.9012578838    0.0835621353
 H   -0.4021634416    2.0000027662   -0.9052027027
 H   -0.5329558541    1.9318729590    0.8546038702
 H    0.3958844587   -0.3888000134    0.8649960968
 H   -1.0767181605   -0.3040567974   -0.1017691265
 H    0.5615053888    0.0233551180   -2.0329862417
 H   -0.1683442166   -2.8465007492    0.3731001328
 H    0.6352666392   -5.0949371215   -0.9788663456
 H    1.9061380386   -1.9446570124   -3.1619795543