16

 C   -0.0461990281    1.4497202073   -0.2642964055
 C   -0.0862884888   -0.0147930424   -0.0061583822
 C   -1.0927687668   -0.9376861319    0.0424014919
 C   -2.5785955879   -0.7563233396   -0.1481972197
 C   -2.9494216577   -0.0482460522   -1.3727482299
 C   -3.2579704081    0.5405820747   -2.3738557734
 C   -0.4073399680   -2.1435808222    0.3544429898
 N    0.8838981188   -1.9737925489    0.4821266794
 O    1.0900699113   -0.6164230190    0.2514055689
 H    0.8002784817    1.7004487132   -0.9098830603
 H   -0.9687828900    1.7707215847   -0.7506435168
 H    0.0714781390    2.0118698047    0.6692385149
 H   -3.0536566050   -1.7447066915   -0.1514779975
 H   -3.0115508799   -0.2276180516    0.7121213039
 H   -3.5328887772    1.0498864189   -3.2642585451
 H   -0.8236829934   -3.1335692846    0.4854059015