22

 C   -1.4149027781   -0.8987778426   -0.0389801220
 C    0.0953111930   -0.7384079656    0.1719042792
 C    0.6374411315   -1.8161555728    1.1117640319
 O    0.0101515386   -1.6550610347    2.3773481234
 C    0.8458744176   -0.7557586771   -1.1788695570
 C    2.3006640760   -0.3727896133   -1.0892869184
 C    2.6847551558    1.0289156848   -0.6932709406
 N    3.1486978789   -1.2883865087   -1.3720660920
 O    4.4724488328   -0.8260253795   -1.2498418487
 H   -1.8222373253   -0.0724963678   -0.6306900927
 H   -1.6368139199   -1.8317909258   -0.5713482711
 H   -1.9332157519   -0.9265817529    0.9218025363
 H    0.2720414550    0.2277404354    0.6636512080
 H    0.4251778506   -2.8110395886    0.6847968567
 H    1.7300038455   -1.7257285596    1.1971177977
 H    0.3355910502   -2.3443069848    2.9629785180
 H    0.7746006753   -1.7509591357   -1.6303139160
 H    0.3422736806   -0.0548433050   -1.8582721594
 H    3.1288366602    1.0420053040    0.3083317684
 H    3.4454607197    1.4180512486   -1.3755235721
 H    1.8189940379    1.6942201060   -0.6951463557
 H    4.9791064761   -1.5962454644   -1.5271750439