21

 C   -0.0550701940    1.5707920767    0.0103399310
 C    0.0481130180    0.0653759685    0.0840847800
 C    1.3540530864   -0.6780583613   -0.1602463981
 O    2.5273976045    0.0861001498   -0.1150979608
 C    2.9967769003    0.1088469259    1.2485938531
 C    3.8724699040    1.3316475629    1.4470527643
 C    1.7183328466    0.0339914395    2.1148020511
 C    0.7323311700   -0.7040298030    1.2026586584
 O    0.1503700513   -1.8860104773    1.6686017006
 H    0.9161193404    2.0414121551    0.1776983919
 H   -0.3978942597    1.8796829102   -0.9826996997
 H   -0.7644692335    1.9677596969    0.7450029118
 H   -0.8121926067   -0.4775477939   -0.3030531082
 H    1.3828855389   -1.5504041066   -0.8061266487
 H    3.5919238903   -0.8020248033    1.4216157400
 H    3.2970022663    2.2511300499    1.2999634697
 H    4.2870703612    1.3412041431    2.4600331410
 H    4.7032389810    1.3288227276    0.7359351703
 H    1.8761832032   -0.5455182735    3.0273787047
 H    1.3742297115    1.0348764961    2.3987814285
 H   -0.6480164702   -1.6530968134    2.1548130890