19

 O    0.0052688384    1.3920254195   -0.1120581529
 C    0.0281807500   -0.0130887416   -0.0364212540
 C    0.0500397520   -0.6443591207    1.3934126440
 C   -1.4333507097   -0.2217113032    1.5203540441
 C   -1.4125072160   -0.6121518170    0.0046991248
 C   -1.0588663065   -2.0809493098    0.1168653475
 C   -2.0106596970   -3.2305178052    0.1106867114
 C   -0.9740691465   -3.0701300448   -0.9978108656
 O   -0.0098336817   -2.0494287632    1.0988304692
 H    0.8930808845    1.7142841761    0.0735967449
 H    0.7267210070   -0.4590784498   -0.7559906650
 H    0.8191616432   -0.4530977442    2.1414337339
 H   -2.0614244545   -0.8090308007    2.1927097451
 H   -1.5607010561    0.8483196666    1.6708314612
 H   -2.1850109012   -0.3207175441   -0.7049467875
 H   -1.8383334622   -4.0150656033    0.8393386684
 H   -3.0543134283   -3.0449635965   -0.1226298923
 H   -1.3119719025   -2.7759535433   -1.9865176271
 H   -0.1302976231   -3.7512338848   -0.9890431903