20

 C    0.0051445243    1.4676733223   -0.1153809241
 C    1.5698268326    1.4428134899   -0.0892544020
 C    1.5326909460   -0.0844487910    0.0573157821
 C   -0.0087774253   -0.0584037823    0.0316194152
 C    0.7740873161   -0.6957873375   -1.0734840580
 C    0.7356804384   -0.3895427297   -2.5973607369
 C    0.6675869518   -1.9068203116   -2.8304830684
 N    1.8919801142   -2.4872586350   -2.2238950716
 C    0.7107088567   -2.1815613294   -1.3687951246
 H   -0.4127752401    1.9828859000    0.7521607969
 H   -0.4701050180    1.8684572728   -1.0173287377
 H    2.0868094518    1.8251588523   -0.9754133573
 H    1.9728380860    1.9478319652    0.7912493466
 H    2.2031651679   -0.6771544445    0.6687978661
 H   -0.7175923689   -0.6275131743    0.6238140991
 H   -0.1772832539    0.1322474022   -2.8971779667
 H    1.6084777492    0.1075701986   -3.0286064237
 H    0.1377909293   -2.4284561192   -3.6177044058
 H    1.8625170408   -3.4901720045   -2.4122164604
 H    0.2310883713   -2.9574997643   -0.7835234188