22

 C    0.0662775728    1.9433279368   -0.2140062290
 N    0.2335823981    0.4947038280   -0.1714723367
 C    1.5109204294   -0.1481661463   -0.4199882404
 C    2.7806084208    0.6532329162   -0.1890501987
 O    2.6542619755    1.2388845548    1.1032715397
 C    1.7921544893    0.4211016224    1.9204927715
 C    2.6195366885   -0.6616314427    2.6337468839
 C    1.1221101279    1.3378097367    2.9439436968
 C    0.8495344161   -0.2470760441    0.9168514702
 H    0.9150986034    2.5240546888    0.1642323879
 H   -0.1199024704    2.2294144695   -1.2546698803
 H   -0.8256495011    2.2086995640    0.3624128340
 H    1.5270167858   -0.9501469369   -1.1541134031
 H    3.6551482226   -0.0137259990   -0.2517367210
 H    2.9296370355    1.4698785854   -0.9049689464
 H    3.3844936237   -0.1910449236    3.2579214567
 H    1.9864297056   -1.2841975464    3.2744002195
 H    3.1183717851   -1.3177409057    1.9141592527
 H    0.5257486163    2.1127735335    2.4608619481
 H    0.4678539939    0.7577038515    3.6018634327
 H    1.8817639259    1.8252887024    3.5624426289
 H    0.3105575153   -1.1313746252    1.2492249431