13

 N   -0.1829956428    1.3043066127    0.0618034486
 C   -0.4434684347    0.1317941102   -0.3051663484
 O   -0.2077062104   -0.8969400519    0.5644065038
 C   -0.6870288032   -2.1219591368    0.2345662483
 C   -1.8340987667   -2.5679808663   -0.3879660280
 C   -1.6970130648   -3.9757010090   -0.3584743362
 N   -0.5755603464   -4.3677227011    0.2336678354
 N    0.0333525927   -3.2112777833    0.5833450856
 H   -0.3776457355    1.9597843104   -0.6923719803
 H   -0.8356136919   -0.2114637661   -1.2680254741
 H   -2.6495631280   -1.9772791224   -0.7693059314
 H   -2.3840839599   -4.7156048152   -0.7423078341
 H    0.9166881515   -3.2236804812    1.0653228108