22

 C   -0.0228502839    1.4857976546   -0.0109718147
 C   -0.0225381444   -0.0240062916   -0.0624261421
 C    0.7344489315   -0.7091942162   -1.1328527714
 N    1.2864252769   -0.6274974500    0.2683289678
 C    1.2142778598   -2.1503980048    0.3213594333
 C    2.3207077344   -2.8226425557    1.0728416782
 C   -0.1244896435   -2.7775494248    0.0214058321
 C    0.7249403746   -2.2515981522   -1.1115990640
 C    1.1967311499   -3.0739783171   -2.2750656962
 H    0.9130712157    1.8879667880   -0.4083532579
 H   -0.8542477964    1.8922422568   -0.5967726520
 H   -0.1277738432    1.8350500879    1.0211964254
 H   -0.9232047912   -0.4780679551    0.3366114986
 H    1.2156827454   -0.1583270543   -1.9377328616
 H    2.2057447512   -2.6675070608    2.1524721022
 H    2.3252750322   -3.9009621589    0.8861318386
 H    3.2930976155   -2.4135578595    0.7807133105
 H   -0.0987185280   -3.8611681017    0.1030575236
 H   -1.0856899105   -2.3606741067    0.3019378374
 H    0.4494348257   -3.0967615060   -3.0781230045
 H    2.1243684142   -2.6712296890   -2.6984920545
 H    1.3885213941   -4.1090265528   -1.9749930088