17

 N   -0.1111642976    1.2849076344   -0.0039899819
 C   -0.1044236601    0.0402413057   -0.1963372138
 O   -1.0828929202   -0.7265271972    0.3510223720
 C   -0.9700869278   -2.0959393369    0.1585745698
 C   -1.1340958524   -2.7821787095   -1.1674086465
 C   -2.0611464289   -3.1053674519   -0.0116003772
 N   -1.5299539275   -3.9801309067    1.1126611717
 C   -0.1411502737   -4.4044459894    0.8362841593
 C   -0.3880661214   -3.0106821087    1.2590889242
 H    0.6750513813    1.7154830391   -0.4864448181
 H    0.6171479389   -0.5388837017   -0.7853839127
 H   -1.6317265762   -2.1558035795   -1.9023661692
 H   -0.4092182837   -3.4656132955   -1.5956863399
 H   -3.1345818490   -2.9950210944   -0.0831016286
 H    0.2261260350   -5.0873500335    1.5976094116
 H    0.1792721629   -4.6560911528   -0.1678834218
 H   -0.1204285198   -2.6156808116    2.2338019611