23

 C   -0.0331095258    1.5272622146    0.0379409974
 C   -0.1603598180    0.0131136887   -0.1497153703
 C    0.8431091316   -0.5473408461   -1.1626918537
 C    0.7151863024   -2.0522288087   -1.3492337289
 O    1.6807198911   -2.4771228097   -2.2961510473
 C    1.6774007222   -3.8561383074   -2.5226757449
 C    0.6270759339   -4.4345474398   -3.5059794958
 O    1.6693726638   -4.9650586855   -4.3504886424
 C    2.6960439208   -4.3035490993   -3.5815390166
 H    0.9663783821    1.7985792250    0.3950964646
 H   -0.2014162274    2.0579266597   -0.9055518191
 H   -0.7601310328    1.9013306398    0.7652934080
 H   -0.0215626591   -0.4879602116    0.8174968230
 H   -1.1809802194   -0.2305406553   -0.4734513451
 H    0.7061291461   -0.0614623619   -2.1365521469
 H    1.8678685326   -0.3208675365   -0.8434752167
 H    0.8723685244   -2.5762913654   -0.3907017274
 H   -0.3003528631   -2.3096299021   -1.6940195633
 H    1.7375465823   -4.4090606098   -1.5742578755
 H   -0.0393523358   -5.2212574602   -3.1342655331
 H    0.0374434563   -3.6568167991   -4.0100674779
 H    3.1411609563   -3.4554069263   -4.1168554199
 H    3.4837302053   -4.9945823034   -3.2623314283