21

 C   -0.2381862646    1.5522449072    0.0374115835
 C    0.0500072873    0.0421769162   -0.0185009884
 C    0.9285740128   -0.4083411895   -1.1711750041
 C    1.9080299403   -1.2283816654   -0.7737882663
 C    1.9325106208   -1.3863404620    0.7077296603
 C    2.1934467235   -0.0939515804    1.4622231233
 O    2.8036349507    1.0151108584    0.8754970495
 C    0.7645396994   -0.5222701485    1.2242081719
 C   -0.0898997844   -0.9360871817    2.3983961840
 H    0.6817799856    2.1254241080    0.1685722144
 H   -0.7371088179    1.8887468052   -0.8777342298
 H   -0.9008196922    1.7841863448    0.8775890173
 H   -0.9210564354   -0.4700648499   -0.1151289994
 H    0.7418917548   -0.0997305081   -2.1946367658
 H    2.6342895953   -1.7012981482   -1.4261063837
 H    2.2137380971   -2.3344740663    1.1550273057
 H    2.5475344573   -0.2082272984    2.4829751118
 H    2.7608639722    0.8923318018   -0.0823789320
 H   -0.6456993235   -0.0821804673    2.8046304459
 H   -0.8204774574   -1.7015916576    2.1102405092
 H    0.5171472285   -1.3474010986    3.2113795829