19

 C   -0.0986098392    1.5973800010   -0.0620126712
 C   -0.0110001216    0.0666901552    0.0133530304
 C   -1.4123345248   -0.5495950680    0.1467029819
 C    0.7524067360   -0.4847389126   -1.2114220124
 O    2.0232280131    0.1527766052   -1.2520964610
 C    2.7514720868    0.0438146291   -2.3875804282
 O    3.8496987182    0.4972222229   -2.4827388273
 C    0.9277107263   -2.0019924203   -1.2019259010
 O    1.9865301099   -2.5486240744   -1.3601421074
 H    0.8908503147    2.0497629296   -0.1428422458
 H   -0.6918616621    1.9117328375   -0.9293054277
 H   -0.5870516599    1.9902030400    0.8347455679
 H    0.5791914897   -0.2014499463    0.8989805350
 H   -2.0050741844   -0.3908986520   -0.7619579663
 H   -1.3912372239   -1.6225890103    0.3540632945
 H   -1.9467390992   -0.0709322611    0.9722629381
 H    0.1710831094   -0.2420084584   -2.1189308801
 H    2.2098079614   -0.4687793201   -3.2034335478
 H   -0.0094557103   -2.5805461470   -1.0690712516