16

 C   -0.0463227750    1.4274690108    0.0659188309
 C   -0.0090714600   -0.0627082959   -0.0511911779
 N   -0.0638181250   -0.6788573065   -1.1635370952
 C    0.0289284849   -2.1543281941   -1.0729311792
 C    1.1477821096   -2.5154956915   -0.0446726032
 C    0.1312149415   -2.1107809101    1.0612029380
 O    0.0909930108   -0.6713587173    1.1695178946
 C   -0.9412226056   -2.5743952701    0.0378676296
 O   -1.9804371833   -3.1581917194    0.1132422232
 H    0.8534735243    1.7885778633    0.5738101998
 H   -0.1143154366    1.8703676470   -0.9265108365
 H   -0.9057695990    1.7364011198    0.6690487220
 H   -0.0030827313   -2.6082638061   -2.0613387725
 H    1.3721128010   -3.5835949610   -0.0148470355
 H    2.0616435315   -1.9220791061   -0.1025144047
 H    0.1742387821   -2.5142771726    2.0707583867