18

 N    0.0511086675    0.8240126954   -0.9978296262
 C    0.0715321939   -0.1102177528   -0.0166979553
 O    1.0804512323   -0.3724966639    0.6260375589
 C   -1.2368243378   -0.8543394834    0.2707108848
 C   -2.4414420145   -0.4485487278   -0.5434451325
 C   -2.7343207273   -1.3484829243   -1.4851399235
 C   -1.7973804984   -2.5292264526   -1.4544917377
 C   -1.0959648343   -2.3853919339   -0.0816919322
 O    0.2123003867   -2.8898687323   -0.1074632646
 H    0.9228571819    1.2523865231   -1.2649356577
 H   -0.7499015222    0.9194735474   -1.5989261051
 H   -1.3877705799   -0.7338496214    1.3484474538
 H   -2.9781145881    0.4787117328   -0.3712902977
 H   -3.5470347796   -1.2578536896   -2.1981505952
 H   -2.3110929678   -3.4901446134   -1.5601395596
 H   -1.0509757612   -2.4780192712   -2.2581420708
 H   -1.6979769373   -2.9270366981    0.6643990512
 H    0.7755065561   -2.2845031738    0.4012871193