22

 C   -0.2168689913    1.5415034793   -0.0295038902
 C    0.0717540545    0.0436085906    0.0115819597
 C    0.8673358260   -0.4987316991   -1.2009209141
 C    1.6379107633   -1.7484715978   -0.6928967144
 C    1.2704190718   -1.9068721594    0.8025841653
 C    2.3290004534   -2.6039657305    1.6523514654
 C    0.8877847666   -0.4626561882    1.2351625628
 C    2.0720098330    0.3643579088    1.4803013538
 N    3.0110791662    1.0148339988    1.6617236415
 H    0.7110080850    2.1219091658   -0.0452902912
 H   -0.7890623288    1.7965745581   -0.9272697864
 H   -0.8009405951    1.8630663348    0.8392608912
 H   -0.8829576983   -0.4946696483    0.0676676798
 H    0.2008856802   -0.7243999336   -2.0378065275
 H    1.5680310646    0.2651148625   -1.5532776776
 H    1.3932141028   -2.6537058956   -1.2551464160
 H    2.7177602488   -1.5979283782   -0.7925075412
 H    0.3358633699   -2.4781740037    0.8706382374
 H    3.2702251157   -2.0452659174    1.6468412896
 H    2.0050939912   -2.7085453070    2.6932346233
 H    2.5308449225   -3.6077437517    1.2648762118
 H    0.2874447681   -0.4599762682    2.1513015169