23

 C   -0.0540404358    1.5750227866    0.0033499159
 C    0.0360775350    0.0480468559    0.0138152499
 C    0.7134543177   -0.5067083288   -1.2529014097
 C    0.9157754628   -2.0198103639   -1.1528140558
 O    1.5932981825   -2.3861330495    0.0441851102
 C    0.8580467602   -2.0134860199    1.2125380600
 C    1.5551572874   -2.6336745621    2.4133767055
 C    0.7866280973   -0.4764570387    1.2592128035
 O    2.0994868234    0.0666388503    1.3500413578
 H    0.9465029763    2.0149316729    0.0362847729
 H   -0.5625413881    1.9351598001   -0.8971410316
 H   -0.6089822504    1.9432227660    0.8731692569
 H   -0.9826713130   -0.3652045109    0.0633163470
 H    0.1173255495   -0.2711655939   -2.1422039286
 H    1.6870388401   -0.0186213243   -1.3877380693
 H   -0.0589525784   -2.5348700295   -1.1940118342
 H    1.5286175436   -2.3964575106   -1.9770530196
 H   -0.1676339684   -2.4126989090    1.1332439679
 H    2.5496031160   -2.2013584667    2.5461929804
 H    0.9774796963   -2.4467400161    3.3236872645
 H    1.6536143951   -3.7134371619    2.2760890390
 H    0.2609614752   -0.1559106793    2.1670451648
 H    2.6471166657   -0.4669318867    0.7598661126