17

 O   -0.0743806334   -0.0484614774   -0.0092619976
 C    0.0246745073    1.1429755294   -0.1536280071
 C    1.3212128093    1.9000433632   -0.0463707202
 C    1.5289898175    2.7800586804    1.2273111276
 C    2.1801795847    3.7145895282    0.1846338303
 C    3.6350100012    3.3298167333   -0.1206159490
 C    3.7103174517    1.8349631802   -0.3607062954
 C    2.5877878726    1.1192478506   -0.3173326917
 O    1.3266435495    3.1248214535   -0.8430345559
 H   -0.8533439061    1.7962215218   -0.3508893554
 H    0.5904494142    3.1946083769    1.6011895188
 H    2.1286865923    2.3606974448    2.0354980143
 H    2.0297897265    4.7928735058    0.2783796416
 H    3.9837765185    3.8793326227   -1.0045730694
 H    4.2909135499    3.6282379189    0.7084349570
 H    4.6768325286    1.3851097878   -0.5665581995
 H    2.5312179857    0.0461633199   -0.4534366184