20

 C    0.1788079294    1.3947833548    0.3069393812
 C    0.0984147494   -0.0862003318   -0.0789211334
 C    0.6016332233   -0.3909386245   -1.4896149947
 O   -0.1330708704    0.2783600743   -2.4883844636
 C    2.1663192352   -0.3240747048   -1.6619156486
 N    2.1487513419   -1.7724115919   -1.8556364225
 C    0.6947915695   -1.9062768277   -1.8276162552
 C    3.1093709828   -2.7127216494   -1.9722515491
 O    2.8975443192   -3.9016712389   -2.1019600853
 H    1.2005511042    1.7818283100    0.2231961910
 H   -0.4714591039    2.0158565244   -0.3200270464
 H   -0.1458369245    1.5445440771    1.3401742309
 H    0.6812107910   -0.6840292424    0.6317003175
 H   -0.9394945107   -0.4329248214   -0.0077283839
 H   -0.1414014716    1.2198020237   -2.2856599384
 H    2.4706684131    0.2414496661   -2.5497501285
 H    2.7397808708    0.0146051632   -0.7917082857
 H    0.3220629466   -2.5990124058   -1.0669280830
 H    0.2555687565   -2.1549182933   -2.7983926360
 H    4.1270229482   -2.2710594915   -1.9296906862