15

 C   -0.0280397409    1.4241112227    0.1312385691
 N   -0.0143795805   -0.0150199703   -0.0552724443
 C    0.6186701862   -0.5994738003   -1.0925856397
 N    1.1673045351    0.0640146646   -2.0468525646
 C    1.7718759375   -0.6209425826   -3.1096391827
 O    2.2878168601   -0.0371727483   -4.0396089664
 C    1.7408976466   -2.0951609746   -3.0144016190
 C    1.1529670786   -2.6797689157   -1.9709548630
 O    0.5646950907   -1.9639901886   -0.9683108513
 H    0.9162079441    1.7963056162    0.5464511304
 H   -0.1885986264    1.9085025864   -0.8327421423
 H   -0.8438262094    1.6826269260    0.8092989673
 H   -0.3047629577   -0.6194023507    0.6948396485
 H    2.2004898719   -2.6821495187   -3.7980950213
 H    1.0669382840   -3.7436183860   -1.7895953007