17

 C   -0.4744935035    1.1500729241   -0.1495457649
 O    0.5351309360    0.1816098542    0.0963938515
 C    0.9277988674   -0.5162476236   -1.0297220388
 C    1.8958164601   -1.7059266730   -0.8305139671
 C    0.7361366116   -2.5206227339   -0.1991514124
 C    0.1805179029   -1.8401971894   -1.4820906494
 N    1.4583829201   -2.2747953260   -2.1728632157
 C   -1.1193685887   -1.9761592668   -2.0883497184
 N   -2.1721589628   -2.0467436871   -2.5623314904
 H   -0.1486501663    1.8803062394   -0.9039474741
 H   -1.4077595838    0.6835169327   -0.4901900727
 H   -0.6550215125    1.6676987249    0.7940749570
 H    1.1658536986    0.1515321320   -1.8725552394
 H    2.9429385567   -1.6793209121   -0.5352794954
 H    0.8331896117   -3.6033067894   -0.2662990676
 H    0.3402472684   -2.1624870699    0.7481979638
 H    1.6836553339   -1.6094910862   -2.9221183861