23

 C   -0.2808989248    1.5451245828    0.0448192993
 C    0.0678273676    0.0601053970   -0.0100443357
 C    0.6675521715   -0.5769271603   -1.2668396635
 C    2.1847081960   -0.4236280669   -1.3383352375
 C    2.8908534425    0.6829954483   -0.5585225279
 C    2.4582659693    0.4299171721    0.9133080901
 C    1.2715150647   -0.5396489722    0.8029641937
 C    1.5867296615   -1.4539395955   -0.4239240184
 C    1.8257114095   -2.9334504070   -0.4238856074
 H    0.5637464903    2.1890550314   -0.2128152474
 H   -1.0897987940    1.7712221236   -0.6594942682
 H   -0.6278895187    1.8317207222    1.0445477857
 H   -0.8278264487   -0.5137351675    0.2570865459
 H    0.1092625939   -0.8546294909   -2.1560062963
 H    2.6203004360   -0.7673029174   -2.2717770353
 H    3.9767977978    0.6017966059   -0.6750622420
 H    2.6134466405    1.6822564383   -0.9089223831
 H    3.2714086914   -0.0461083540    1.4731547900
 H    2.1996221778    1.3513357269    1.4446945479
 H    1.0041373174   -1.0237019445    1.7440173469
 H    0.9979203850   -3.4784823666    0.0454558635
 H    1.9330649865   -3.3134063365   -1.4457050916
 H    2.7414007073   -3.1942542991    0.1213847013