19

 C   -1.4433504890   -0.1150716421    0.1079444378
 C    0.0615704543    0.1343065350   -0.0053545275
 C    0.8512424375   -0.4700167897    1.1807712313
 C    2.2405843353    0.1686473481    1.4010645553
 O    2.1521158537    1.5830553452    1.5611747105
 C    2.9259805659   -0.4613635002    2.5320130441
 C    3.4483743048   -0.9642387901    3.4907977689
 C    0.6113105009   -0.3704367139   -1.3257930835
 O   -0.0522750340   -0.8500535497   -2.2098712782
 H   -1.8435613100    0.3505454961    1.0133031276
 H   -1.9709303530    0.2912298228   -0.7577149006
 H   -1.6613419077   -1.1868648882    0.1478901476
 H    0.2632886314    1.2158558899    0.0108299641
 H    0.2679714099   -0.3270471839    2.0981316145
 H    0.9712642519   -1.5532254513    1.0593261756
 H    2.8525962201    0.0341352039    0.5014309786
 H    1.8187564282    1.7544850750    2.4493144877
 H    3.9301221011   -1.4095991631    4.3263307277
 H    1.7149989386   -0.2703040638   -1.4457363915