16

 C   -0.2492704758    1.5171307217   -0.0030893105
 C   -0.0027901230    0.0316354037    0.0944062651
 O    0.1057406868   -0.5667304414    1.1373702524
 C    0.0615423714   -0.7201426787   -1.2545674204
 O    0.6951228164    0.0542111306   -2.2391177136
 C    0.4524352653   -2.2097302733   -1.1226330063
 O   -0.9465203686   -2.5954519625   -1.3918549568
 C   -1.2932818569   -1.3009666114   -1.6439047320
 N   -2.3230597224   -0.7631177778   -2.1165597147
 H    0.5861116226    2.0002545139   -0.5174131399
 H   -1.1441097561    1.7006747457   -0.6086958979
 H   -0.3752234739    1.9339293225    0.9962463966
 H    0.0558562428    0.2199148615   -2.9421754947
 H    1.1115469070   -2.5682424780   -1.9141611994
 H    0.7598276337   -2.5327776432   -0.1297099075
 H   -3.0467430392   -1.4438860433   -2.3517703103