23

 C   -0.0103121571    1.5472175863    0.0548603698
 C    0.0023788707    0.0307278537   -0.0315890831
 C    0.2377499684   -0.6594957282   -1.4130190828
 C   -0.6931808852   -1.8054591811   -0.9182414876
 C    0.0763438413   -2.8003702889   -0.0342861394
 C    1.2306414329   -2.0921560513    0.7130456654
 C    0.9077607240   -0.6148670790    1.0390238807
 C   -1.3686542660   -0.7195799804   -0.0335067945
 O   -2.0347468184   -1.0418531406    1.1604556614
 H    0.9882929928    1.9674731303   -0.1137414635
 H   -0.6864181550    1.9798226841   -0.6907264157
 H   -0.3470862324    1.8809020480    1.0434842740
 H   -0.2224720237   -0.0877405260   -2.2238131770
 H    1.2617763678   -0.9113339851   -1.6986319585
 H   -1.3207090847   -2.3177093898   -1.6516050774
 H   -0.6262146904   -3.2696026498    0.6683497510
 H    0.4776116600   -3.6190223307   -0.6411388967
 H    1.5043238059   -2.6399994342    1.6207025209
 H    2.1187147407   -2.1159178731    0.0739663766
 H    1.8415799042   -0.0480733258    1.1297616337
 H    0.4108674335   -0.5225760732    2.0148805846
 H   -2.0962682097   -0.1522832736   -0.6225602510
 H   -1.4513211998   -1.5729753916    1.7110044693