19

 C   -0.2609889114    1.3148183257   -0.0045794352
 O    0.2570646047    0.0112237433    0.1492503726
 C    0.7547491581   -0.5313781735   -1.0332243987
 C    1.1761697616   -2.0251297450   -0.9578117310
 C   -0.1384636835   -2.6515365390   -0.4824223269
 O   -1.0826694603   -1.9728354739   -1.3566063405
 C   -0.2255682169   -1.1085357006   -2.1033416335
 C    0.9434675798   -2.0653392086   -2.4980866534
 O    2.0258109105   -1.5139961099   -3.2097465725
 H    0.4994619565    2.0091169793   -0.3945908248
 H   -1.1280697110    1.3331495214   -0.6802698232
 H   -0.5774725872    1.6563869801    0.9835457209
 H    1.5302648145    0.0957228550   -1.4843974255
 H    2.1071317086   -2.3531704029   -0.4991583290
 H   -0.1904306149   -3.7329146601   -0.6491322318
 H   -0.3700827374   -2.4239490554    0.5615232840
 H   -0.8044948274   -0.5187043204   -2.8135630008
 H    0.6163275479   -3.0284607751   -2.9095076546
 H    1.7431804078   -1.3744852804   -4.1192305960