15

 O   -0.0115428532    0.0200401022    0.1984910284
 C    0.0034233113    1.1940760418   -0.0047181420
 O   -1.1551993086    1.9385918970   -0.1599861197
 C   -0.7661488397    3.2473366375   -0.5390148822
 C    0.0321288281    4.1298791975    0.4883674215
 C    0.9312725233    3.1014899348    1.1891965814
 C    1.1531235255    2.1866863834   -0.0714905024
 C    0.6483819849    3.2193551780   -1.1359435491
 O    0.8860445745    4.5432427404   -0.6198209558
 H   -1.5578541857    3.7462998671   -1.0909225771
 H   -0.3994145501    4.9540252347    1.0529118028
 H    1.8592785293    3.5696428582    1.5204953131
 H    0.4647908584    2.5783676495    2.0265562559
 H    2.1318437878    1.7315263181   -0.1863398192
 H    0.8930149842    3.0762450398   -2.1865829554