15

 O    0.0494969005    1.2833892201   -0.0676972323
 N    0.0717935120   -0.1174953325   -0.0459562895
 C   -1.1020271920   -0.6207156687    0.0084190815
 C   -1.2567502994   -2.1377698270    0.0382345424
 N   -2.7010652432   -2.3265865909   -0.1481550826
 C   -3.3199817744   -1.1116461509   -0.0194643628
 C   -2.4587906777   -0.0525536238    0.0328934033
 C   -2.8603666163    1.3001081084    0.0699447474
 C   -3.2641429614    2.4346878361    0.1133191995
 H    0.9865261502    1.4978593102   -0.1206921847
 H   -0.6824239214   -2.6275579101   -0.7526273150
 H   -0.9293375613   -2.5475119169    1.0024621680
 H   -3.1403870291   -3.1473089391    0.2382244244
 H   -4.4008671637   -1.0581900248   -0.0101738767
 H   -3.5931448628    3.4429756299    0.1460917969