16

 C    0.6204967395   -0.2088708812   -0.4499633538
 C   -0.3107908533    0.8498164831    0.0970352644
 O    0.0027287297    2.0109135060    0.2232019680
 C   -1.7317170550    0.4413075040    0.4245018579
 O   -2.0882555080   -0.9410294712    0.3792408005
 C   -2.1189247147   -0.2811877651    1.6531293777
 C   -1.1533885186   -0.7812653528    2.6984475139
 O   -1.5918821466   -2.0121565829    3.2438932483
 H    1.6337254217    0.1895642061   -0.5101515303
 H    0.5936708042   -1.1249372207    0.1437203410
 H    0.2783330112   -0.4883423475   -1.4543694438
 H   -2.4694149685    1.1287850657    0.0092341974
 H   -3.1290945467   -0.1095048496    2.0278939651
 H   -0.1382847345   -0.8572909979    2.2852332058
 H   -1.1191638946   -0.0696556868    3.5301965491
 H   -1.6623717457   -2.6382779193    2.5145488389