16

 O   -0.1951242684    1.4379604372   -0.0645159849
 N    0.0095565147    0.0556166929    0.0734547143
 C   -1.0944424614   -0.5890796024    0.0321086759
 C   -2.4718332261   -0.1273199823   -0.1200457209
 C   -3.3159295090   -1.1653242290   -0.0449555504
 C   -2.6139835846   -2.4819667046    0.1712560443
 C   -1.1142891630   -2.1147249039    0.1272138444
 C   -0.3709679615   -2.7027998219   -1.0712506008
 O   -0.8401964915   -3.4820764806   -1.8579469087
 H    0.7011813543    1.7840778634   -0.0009582664
 H   -2.7282310821    0.9120332615   -0.2642907658
 H   -4.3949532328   -1.0946824767   -0.1247967128
 H   -2.9002607477   -2.9326745540    1.1287440517
 H   -2.8543050191   -3.2115070242   -0.6092860240
 H   -0.5641271166   -2.4387401490    1.0180956316
 H    0.6697297649   -2.3291162063   -1.1675872276