18

 N   -0.0938021161    1.2699901007    0.1865802700
 C    0.0090756222    0.0241203232   -0.0271733632
 O    1.2300421447   -0.5583616173   -0.2296558302
 C    1.3153301451   -1.8555985994   -0.8413927625
 C    0.2212531083   -2.7915845524   -0.3672281091
 C   -0.0610861745   -2.7593555944    1.1745794082
 C   -1.3855349251   -2.0542406051    0.8816451268
 C   -1.1918582287   -2.2271698012   -0.6148080278
 C   -1.1982155741   -0.8437938992   -0.0262061918
 H    0.8299548743    1.7058201238    0.1395382239
 H    1.2784871799   -1.7399298399   -1.9340131430
 H    2.3084952466   -2.2271499842   -0.5716182080
 H    0.3837358470   -3.7952072205   -0.7643821480
 H   -0.2149238343   -3.7651002935    1.5716784815
 H    0.6621734405   -2.2331679057    1.8039493966
 H   -2.2947631291   -2.1408567852    1.4636772364
 H   -1.8868216717   -2.5409681709   -1.3835563782
 H   -2.1070984750   -0.2702550389   -0.1608637019