15

 O    0.6351824496    0.7242065080   -0.8185400143
 C    0.1294864425   -0.3665625639   -0.1145908072
 C    0.0752016374   -0.2615696343    1.4155355607
 O    0.5874956219    0.5251095947    2.1661479839
 C   -1.2582912261   -1.0151005598    1.5116515031
 O   -2.1730225555   -0.5886661977    2.4720546683
 C   -1.3974161931   -0.6014615820    0.0232428323
 C   -2.4769713079    0.1573975441   -0.5953478913
 O   -2.2219705078   -1.2238337347   -0.9285379448
 H    0.7934997387    1.4323986111   -0.1811392849
 H    0.6140569535   -1.2891547156   -0.4605383676
 H   -1.1277272531   -2.1031407823    1.5805352911
 H   -1.8179377130    0.2143850986    2.8743932346
 H   -3.3898993842    0.3350127284   -0.0312464025
 H   -2.2393280631    0.8727211952   -1.3795834414