16

 N   -0.1118008121    1.4332348303   -0.1233205107
 C   -0.0057526927   -0.0001345633   -0.0320154413
 C    0.7539150543   -0.7732001623   -1.1521565816
 O   -0.2453858627   -1.4291622895   -1.9165095318
 C   -1.2510826080   -1.8880835935   -1.0167688743
 C   -1.2810781198   -0.8727469987    0.1227621857
 O   -0.7596038768   -1.3925895567    1.4034619138
 C    0.3008782443   -0.5286730743    1.3738603225
 O    1.1121707247   -0.3208418648    2.2178373709
 H    0.6266935917    1.8692287113    0.4198621576
 H   -0.0222289130    1.7543731383   -1.0815131056
 H    1.3020029738   -0.0962918685   -1.8126651728
 H    1.4662296466   -1.4985235330   -0.7290005297
 H   -2.1904191632   -1.9414313405   -1.5722107248
 H   -1.0131767733   -2.8854171788   -0.6174577338
 H   -2.2209719339   -0.3496243060    0.2896348956