14

 O    0.0478208244    1.4340398127    0.0815979234
 C   -0.0076665920    0.0662864257    0.0447195859
 C   -0.2960383382   -0.7578113996   -1.1668517803
 C   -1.1857508794   -0.9521615623    0.0495756605
 N   -0.4583049450   -1.8297635422    0.9955727362
 C    0.6082463520   -0.7776108315    1.1557308080
 C   -2.5953541668   -0.7918574951    0.0438315409
 N   -3.7449384415   -0.6472283346    0.0640055583
 H    0.1484787243    1.7770164616   -0.8121246386
 H   -0.7731870781   -0.2135411777   -1.9775242204
 H    0.3460535555   -1.5821095674   -1.4688429680
 H   -0.9846170777   -1.9321451325    1.8581151049
 H    1.6267554611   -1.1463089666    0.9976049726
 H    0.5489959413   -0.2560490006    2.1152023767