14

 O    0.0397511123   -0.0656391088    0.0306102375
 C    0.0118756005    1.1328548294    0.0332616119
 N   -1.0714200878    1.9801535380    0.0622652870
 C   -0.7492579353    3.4039322869    0.0555549580
 C    0.7495098798    3.3434442933    0.0177731886
 C    1.9097322530    4.0748396975   -0.0098643438
 C    2.9287992102    3.0793915012   -0.0367692190
 N    2.4481794140    1.8390672360   -0.0267511602
 N    1.1177965842    2.0341464447    0.0065452007
 H   -2.0045407948    1.6089294402    0.0840706141
 H   -1.1702772314    3.9130643251   -0.8205611185
 H   -1.1256384003    3.9113493952    0.9527103842
 H    2.0301602399    5.1455666026   -0.0112093040
 H    3.9982045654    3.2328565687   -0.0631663364