17

 O   -0.0858704960    1.3251043015    0.0364919052
 C    0.0208914015   -0.0444514246    0.0156809374
 C    0.5873409464   -0.9757156069   -1.1151707179
 C    0.0312772868   -1.9304193988    0.0011987422
 O   -0.0603942783   -3.3012257488    0.0009639748
 C    0.7023225593   -0.9917940674    1.0609177186
 C   -1.1776213127   -0.9945603191    0.0730476220
 C   -2.4867593506   -1.0065691372    0.6984274847
 O   -2.3108349776   -0.9945030819   -0.7468150629
 H    0.7917866586    1.7084166883   -0.0633724225
 H    0.0538456153   -0.9713471128   -2.0666595987
 H    1.6746452136   -0.9687638004   -1.2406996709
 H    0.8214290757   -3.6732713394   -0.1046441882
 H    1.7958883360   -0.9857745885    1.0612234954
 H    0.2847787970   -1.0018421212    2.0699927138
 H   -2.8919242627   -1.9336925540    1.0995433989
 H   -2.9020719621   -0.0902313387    1.1136995482