21

 C   -0.1970204105    1.1850641796   -0.5643226997
 C   -0.1165297742   -0.0988441964    0.2610932992
 N   -1.4203381672   -0.7111887716    0.4548075947
 C   -1.6362645355   -2.0482248726    0.2419236211
 O   -0.8156727441   -2.8045517638   -0.2431365916
 N   -2.8922004935   -2.4809637229    0.7032098664
 C   -4.1648103585   -1.9266114890    0.2580116645
 C   -3.7669325004   -3.3325263886   -0.0818697112
 C   -3.4340392890   -3.7190420428   -1.5038918577
 H    0.7985802567    1.6228892253   -0.6868254728
 H   -0.6116496863    0.9841715704   -1.5564738184
 H   -0.8311975103    1.9349131865   -0.0777885357
 H    0.4952145622   -0.8505355135   -0.2416872183
 H    0.3553951002    0.1083898956    1.2320097020
 H   -2.1033979516   -0.2151791460    1.0046934771
 H   -4.8965569110   -1.7242164398    1.0364559183
 H   -4.1429808250   -1.2001909039   -0.5524765455
 H   -4.2182161665   -4.1289844523    0.5082744329
 H   -3.0674181270   -2.8637736218   -2.0774518378
 H   -2.6564436855   -4.4860026376   -1.5246106401
 H   -4.3293903629   -4.1097642046   -1.9987575074