23

 C    0.0908862629    1.5683708689    0.2195427470
 C    0.2504238395    0.0439640890    0.1963494654
 C    0.6021900743   -0.5075076439   -1.1943140457
 C    2.0466848969   -0.1914805576   -1.6126277792
 O    2.8517619749   -1.1935748649   -0.9890876321
 C    2.0733098893   -2.3684349062   -0.8141346047
 C    0.6392270339   -2.0538306231   -1.2965343252
 C   -0.4394685776   -2.8305932229   -0.5456208886
 O    0.5232476640   -2.3088870833   -2.7042749381
 H    1.0116201134    2.0822224798   -0.0736590979
 H   -0.7006303119    1.8912912296   -0.4660409870
 H   -0.1740505091    1.9177056301    1.2221778727
 H    1.0235371411   -0.2559126089    0.9152724398
 H   -0.6868048225   -0.4060763372    0.5409026590
 H   -0.1148180590   -0.1314563910   -1.9311170075
 H    2.1492472141   -0.2386184024   -2.7045042983
 H    2.4072846221    0.7817220414   -1.2678750668
 H    2.4972128038   -3.2003230422   -1.3962503889
 H    2.0933010406   -2.6558187141    0.2457666977
 H   -0.4015043334   -2.6585628908    0.5328605137
 H   -1.4321265057   -2.5553179737   -0.9131294996
 H   -0.3093753233   -3.9073374082   -0.7106579226
 H    0.6928516018   -3.2456900884   -2.8505300629