23

 C    0.0830048806    1.5063599286    0.2732005495
 C   -0.0541915422    0.0286397398   -0.1345648425
 C   -1.4689146021   -0.4609999216   -0.1284093450
 C   -2.2004400520   -0.9381831766   -1.1444176897
 C   -3.5224974533   -1.4385290370   -0.5850781965
 C   -3.1929541665   -2.7322774534    0.2347241289
 C   -2.3474950536   -2.1767033876    1.4221258738
 C   -2.3125867398   -0.6372280903    1.1352162400
 C   -3.7318138276   -0.4235397473    0.5630004707
 H    1.1327380900    1.8161587665    0.2707377122
 H   -0.4651187974    2.1529729521   -0.4190486137
 H   -0.3143512436    1.6818243740    1.2779831403
 H    0.3765338972   -0.1170668406   -1.1320780006
 H    0.5467815959   -0.5830206563    0.5542593537
 H   -1.8735112903   -1.0722352072   -2.1694853572
 H   -4.3361471594   -1.5573720985   -1.3017491999
 H   -4.1120246511   -3.2089676642    0.5904036637
 H   -2.6510651695   -3.4663441395   -0.3660537268
 H   -2.8328341069   -2.3752889011    2.3827050131
 H   -1.3431612751   -2.6056137061    1.4672702512
 H   -2.0227303935   -0.0311903806    1.9950851954
 H   -3.8970004137    0.5952264776    0.2037156185
 H   -4.5308087260   -0.7055422006    1.2580377009