17

 C    0.5780718364    1.3802483148    0.2518047128
 O    0.7573821493   -0.0163849447    0.1987835219
 C   -0.2517961516   -0.7284686846    0.8745224427
 C    0.0882579064   -2.2085939120    0.7564098688
 C    1.3632962487   -2.6354914862    1.5291649218
 N    0.8771530799   -3.5113046632    2.6125792611
 C   -0.3702694141   -3.6173433462    2.4320487754
 O   -0.9683374666   -2.9699749266    1.3987254888
 H    0.5865862228    1.7526146091    1.2879495859
 H    1.4060764350    1.8363561569   -0.2956553926
 H   -0.3706701476    1.6860742777   -0.2157576409
 H   -0.2963437538   -0.4434766131    1.9398726758
 H   -1.2432807258   -0.5318377068    0.4359241345
 H    0.1131595415   -2.4941590972   -0.2984425605
 H    2.0717287529   -3.1855138419    0.9021411439
 H    1.8955727816   -1.7731304979    1.9417617398
 H   -1.0496811749   -4.2024921881    3.0419218807