18

 C   -0.2857958736    1.5500253846    0.2197750083
 C   -0.0231795960    0.0968319732    0.0120703912
 C    0.2190067149   -0.6627749201   -1.1091657802
 N    0.3999528730   -1.9899111615   -0.7648930348
 C    0.2760730205   -2.0381114699    0.5381857044
 N    0.0221321144   -0.8066355510    1.0608952447
 C    0.2796594002   -0.2460513087   -2.5237858216
 C    1.2553852392   -0.8949835359   -3.4436161389
 N   -0.1788147484   -1.1888706724   -3.5642870882
 H    0.5147678745    2.0399906866    0.7881293404
 H   -0.3611953265    2.0596506237   -0.7430202494
 H   -1.2254218160    1.7243443829    0.7583163610
 H    0.3551176269   -2.9227062345    1.1525672696
 H   -0.1171195714   -0.5878716169    2.0334052128
 H    0.0015580885    0.7872424106   -2.7152234362
 H    1.6820621120   -0.3286842811   -4.2674965437
 H    1.9013643571   -1.6535038993   -3.0112207701
 H   -0.3603835693   -2.0786100603   -3.1007975392