18

 C   -0.1206528963    1.5623226962    0.0951272054
 C   -0.0064311620    0.0573734145   -0.0050857425
 O   -1.2012575377   -0.5569431030   -0.4257802000
 C    1.2749130830   -0.6025947485   -0.4059175272
 C    0.7629595060   -0.7427435976    1.0404145529
 C    1.4971547256   -0.0642843948    2.1786123182
 C    0.2240139254   -2.0933805908    1.3780233446
 O    0.3391442640   -2.6002887541    2.4684663941
 H    0.8127358002    2.0305032223    0.4131455255
 H   -0.3806151025    1.9782396964   -0.8861250557
 H   -0.9112541598    1.8403740644    0.7983867542
 H   -1.3478131893   -0.3137425813   -1.3469144028
 H    1.2066285985   -1.4798733330   -1.0413718929
 H    2.1645063336    0.0015626950   -0.5494480458
 H    2.0234109909    0.8340940225    1.8495892273
 H    0.8077768544    0.2136684380    2.9814227751
 H    2.2295144279   -0.7533857719    2.6073552802
 H   -0.2840718520   -2.6202850044    0.5470098795