22

 C    0.0977829650    1.5638281666    0.0210578284
 C    0.0034694728    0.0345457503   -0.0106589497
 C   -1.4278007192   -0.5228827763    0.0253187615
 C   -1.4395635750   -2.0519810599   -0.1309761735
 C   -2.8679252222   -2.6045246482   -0.2359475391
 C   -3.7835751935   -1.9903973303    0.7902035659
 C   -3.4705903798   -0.8988003106    1.4866365344
 C   -2.1867277697   -0.1294383630    1.3064565538
 H    1.1373574586    1.8940083187   -0.0704068087
 H   -0.4661258825    2.0118218504   -0.8052296268
 H   -0.2961574673    1.9788713355    0.9539726723
 H    0.4971565460   -0.3344798857   -0.9191354373
 H    0.5702718284   -0.3848831317    0.8325207434
 H   -1.9779420094   -0.0978464708   -0.8284591166
 H   -0.8552626499   -2.3467565031   -1.0104931634
 H   -0.9418641250   -2.5002664028    0.7400289877
 H   -3.2710950830   -2.4233659598   -1.2440024868
 H   -2.8593685434   -3.6961112858   -0.1206427008
 H   -4.7406090984   -2.4801284634    0.9558660780
 H   -4.1674549097   -0.5164034841    2.2294638647
 H   -1.5372561565   -0.2858955136    2.1830519339
 H   -2.4088659463    0.9447897875    1.3011574787