19

 O   -0.6795792415    0.7475020828    0.6755797435
 C    0.0397819232    0.9791737167   -0.2618276900
 C    1.3169082361    1.7843457433   -0.2051749931
 C    1.2806240061    2.9900069356   -1.1730591989
 C    0.2916100343    4.0766287262   -0.7824503549
 C    0.8466593847    5.2901794352   -0.7875113752
 C    2.3047352722    5.2314302886   -1.1006842360
 C    3.1375409955    4.4844222637   -0.0767778604
 C    2.6048054984    3.7536926895   -1.2843113513
 H   -0.2115931712    0.5976310348   -1.2811208678
 H    1.4920149092    2.1000377218    0.8260528126
 H    2.1368201918    1.1185151481   -0.5101219042
 H    1.0149710699    2.5968887147   -2.1672258538
 H   -0.7352894474    3.8545303553   -0.5137657046
 H    0.3329600154    6.2160702579   -0.5542674371
 H    2.7715341793    6.0019794926   -1.7039108683
 H    4.2057040957    4.6752274235   -0.0611802221
 H    2.6954232376    4.3081421969    0.8980894466
 H    3.3233776808    3.4214464830   -2.0243930951