21

 O    0.0061375614    1.3515736232   -0.2297093621
 C    0.0227315648   -0.0734449706   -0.1176945818
 C    0.9851382553   -0.6622561130   -1.1927733427
 C    2.3075029129   -0.7361010570   -0.4664584194
 C    2.1490434854   -0.6341019159    0.8546173987
 C    0.6945467730   -0.4752054762    1.2298854752
 C   -1.4077375968   -0.5488472074   -0.2525701486
 C   -2.5541320028    0.2511699317    0.3105645690
 C   -2.3748822642    0.1357896783   -1.1838443692
 H    0.9173015140    1.6523913572   -0.1436382927
 H    0.6613627381   -1.6609918380   -1.5168129696
 H    0.9934809002   -0.0265488978   -2.0842237647
 H    3.2532828131   -0.8882143284   -0.9750197149
 H    2.9458221392   -0.6903045373    1.5882779045
 H    0.5046042460    0.2881351846    1.9915350627
 H    0.2855873267   -1.4191092928    1.6160242208
 H   -1.4963889153   -1.6292606659   -0.1797870599
 H   -3.3714787972   -0.2859985346    0.7790946531
 H   -2.3160960706    1.2070597481    0.7609452230
 H   -2.0203183745    1.0166724011   -1.7049578639
 H   -3.0687742587   -0.4808444794   -1.7445603174