19

 C   -0.1260164225    1.4407143941   -0.1009707466
 C    0.0048869846   -0.0653431942   -0.0806951276
 C   -1.2508102411   -0.9132577698    0.2685766049
 C   -0.3890556884   -1.6057493099    1.3541060194
 N    0.7955670030   -0.7323629899    1.0591518428
 C    1.7225872059   -1.3660314693    0.0619624548
 C    0.9607534719   -0.7054452940   -1.0661677798
 N    1.0441569618   -0.5989605849   -2.3233609635
 O    2.1238604107   -1.3509856492   -2.8224372815
 H    0.8566594999    1.9198337016   -0.1356334570
 H   -0.6905162609    1.7560723350   -0.9852302990
 H   -0.6517749974    1.7930026386    0.7919899176
 H   -2.0725210781   -0.3108167817    0.6625061247
 H   -1.6339145620   -1.5459545643   -0.5338325758
 H   -0.7429886386   -1.4752262688    2.3804699331
 H   -0.1977384369   -2.6722198239    1.1921955277
 H    2.7567503830   -1.0209184798    0.1694021106
 H    1.7259418471   -2.4623718557    0.0627831358
 H    2.0794411381   -1.1693512738   -3.7673708005