15

 N    0.0458665522    1.4182510705    0.1574301337
 C   -0.0157421013    0.0304750661    0.0509858088
 C   -1.1460393530   -0.7048307821    0.0271535392
 N   -1.1138062251   -2.0970105315   -0.0235142080
 C    0.0385810298   -2.8417128247   -0.0293335842
 O    0.0715767263   -4.0554900963   -0.0599600318
 N    1.1867745948   -2.0560598508    0.0004251076
 C    1.2785840086   -0.6642784201    0.0144530258
 N    2.3640072757    0.0160005279   -0.0068784777
 H    0.9761449400    1.7484203176   -0.0732936954
 H   -0.6778395981    1.9182474328   -0.3380815985
 H   -2.1339287562   -0.2636734980    0.0486004576
 H   -1.9680741235   -2.6285005394   -0.0418170962
 H    2.0414027771   -2.5936129138   -0.0197030856
 H    3.1963930825   -0.5712816382   -0.0381490953