19

 C   -0.0817594630    1.5101451452   -0.1211037245
 C    0.0505802454   -0.0144081581   -0.1233901002
 C    0.8666935654   -0.5380183678   -1.3135071762
 O    2.1786676555   -0.0114221740   -1.2199976826
 C    2.9355646482   -0.1091246413   -2.4043863896
 C    4.2767675325    0.5647963393   -2.1636702398
 O    5.1658205437    0.5792429453   -2.9711741441
 C    0.9004273050   -2.0640365830   -1.2675390172
 O    0.0275493231   -2.7732271396   -1.6918964169
 H    0.9017920684    1.9847768451   -0.0909786835
 H   -0.6018466470    1.8619958283   -1.0186286095
 H   -0.6516923542    1.8460716190    0.7498212330
 H    0.5316252958   -0.3527047997    0.8025708439
 H   -0.9346090593   -0.4905979476   -0.1663735312
 H    0.3858494234   -0.2286592313   -2.2546862549
 H    3.1132141273   -1.1517807135   -2.7124138160
 H    2.4355203993    0.3948034008   -3.2483064618
 H    4.3580540517    1.0522685506   -1.1673774494
 H    1.8061556888   -2.4706879576   -0.7590247894