23

 C   -0.0917898894    1.6647392746   -0.1201096409
 C   -0.0588888083    0.1344647519   -0.0843444719
 C    0.8000120772   -0.4759913376   -1.1984792304
 C    0.8267867274   -1.9987638359   -1.1822606237
 C   -0.4678074327   -2.7716928191   -1.5661468708
 C    0.3818487906   -3.7527437919   -2.4411962395
 C    1.5682741244   -2.7375514938   -2.3303605200
 C    0.6657865114   -5.0535248590   -1.7446090426
 O    0.5015294612   -6.1476219667   -2.2213236981
 H    0.9146425370    2.0845906174   -0.0133615533
 H   -0.5018577712    2.0299704402   -1.0682756420
 H   -0.7091962367    2.0704614066    0.6872855504
 H    0.3215329556   -0.2022450889    0.8892309383
 H   -1.0824259304   -0.2553495072   -0.1602710929
 H    0.4275955654   -0.1346759460   -2.1753527586
 H    1.8280837033   -0.0958014933   -1.1160668511
 H    1.1963233106   -2.3450260587   -0.2096122825
 H   -1.0551806005   -3.2137856063   -0.7568321568
 H   -1.1378437694   -2.1735235696   -2.1904815434
 H    0.0089619608   -3.9683285337   -3.4436608774
 H    1.6459238514   -2.1277291439   -3.2348660106
 H    2.5558910865   -3.1517063254   -2.1088218820
 H    1.0587005257   -4.9399394336   -0.7044060603