23

 C   -0.0334084268    1.6110410657   -0.0628813907
 C   -0.0739278303    0.0995405581    0.0629433458
 C   -1.3154352632   -0.5248142656   -0.5353344715
 O   -1.3365537428   -0.2512476530   -1.9321610806
 C    1.2097798919   -0.6894753675   -0.0590774123
 C    0.5011439953   -0.6049792765    1.2754568023
 C    1.1077869710    0.1266476855    2.4539654806
 C    2.0821393045   -0.7493536075    3.2349897370
 O    2.5808935143    0.0159302533    4.3223716482
 H    0.9177811146    2.0289198371    0.2744341484
 H   -0.1757157512    1.8954818356   -1.1090734424
 H   -0.8327213208    2.0805916568    0.5237763479
 H   -1.3116659813   -1.6106045992   -0.3488305384
 H   -2.2103382280   -0.1090474255   -0.0429480724
 H   -2.1958421389   -0.5126963605   -2.2752682396
 H    1.1946568624   -1.6263488787   -0.6058636677
 H    2.1303434450   -0.1251903129   -0.1736792972
 H   -0.0359567988   -1.5072253717    1.5655042453
 H    1.6442195928    1.0234319175    2.1282827716
 H    0.3224920589    0.4653430621    3.1414503481
 H    1.5647232237   -1.6561224872    3.5903369681
 H    2.8953873511   -1.0799153566    2.5695148617
 H    3.2063254464   -0.5273109094    4.8103060579