18

 C   -0.0610918245    1.5378503149   -0.0210539496
 C    0.0547301165    0.0159532282   -0.0001753252
 N    0.7381069842   -0.4710596909   -1.2000050706
 C    0.9364813284   -1.9124733729   -1.1642402747
 C    1.9601064029   -2.2124416818   -0.0757366666
 N    1.5538138797   -1.5653558983    1.1630599014
 C    0.7691806617   -0.4536519454    1.2769680467
 O    0.5907064027    0.1000917901    2.3472224709
 H    0.9265193100    1.9919379083   -0.1399782039
 H   -0.6928277315    1.8626713768   -0.8545342643
 H   -0.4989593666    1.8869051194    0.9146995471
 H   -0.9649439003   -0.4115432152    0.0883973038
 H    0.2070711671   -0.2021313403   -2.0211791521
 H    0.0062483590   -2.4740539311   -0.9555848968
 H    1.3232408620   -2.2527939518   -2.1291742317
 H    2.0321913451   -3.2931124455    0.0907285232
 H    2.9467831616   -1.8519955679   -0.3982359697
 H    2.0276788222   -1.8158575867    2.0192753223