21

 C   -0.0969410238    1.5051613472    0.2307176024
 N   -0.1864975270    0.0651077825    0.3763897239
 C   -1.0592541685   -0.6888205976   -0.3510529545
 O   -1.8193942273   -0.1968863744   -1.1705643365
 C   -1.0584401199   -2.2163471868   -0.1031174654
 C   -2.4880398283   -2.5948931437    0.3365348625
 C   -0.7426355170   -2.8852654981   -1.4570370938
 C   -0.0496448807   -2.6911161116    0.9555368551
 H   -0.3303400964    2.0165725437    1.1714954441
 H    0.9039034240    1.8117271993   -0.0939255514
 H   -0.8241929650    1.7999481990   -0.5262411288
 H    0.4181677619   -0.3876645521    1.0382151913
 H   -3.2146616909   -2.2254828287   -0.3896501575
 H   -2.5861254335   -3.6826902077    0.4162262781
 H   -2.7312035930   -2.1615387520    1.3129426626
 H    0.2800004399   -2.6627924122   -1.7810936935
 H   -0.8420330348   -3.9728755552   -1.3764258595
 H   -1.4288602514   -2.5222842456   -2.2245807322
 H   -0.2509829678   -2.2561407870    1.9412988731
 H   -0.1149199059   -3.7781232961    1.0678245877
 H    0.9840619754   -2.4614028030    0.6724196123