16

 C    0.0644007091    1.5632011392    0.0985972917
 C    0.0041386762    0.0689727702    0.0532353987
 C   -0.0683684912   -0.6951170100   -1.0685421438
 N   -0.1057774371   -0.3454469972   -2.4164657013
 O   -0.1080553574   -2.0424602813   -0.7232512850
 C   -0.0599039029   -2.1095579581    0.6150746999
 C    0.0100018365   -0.8579274039    1.1644856354
 C    0.0755814686   -0.5694180556    2.5957444260
 O    0.0757830306   -1.4112515154    3.4689821928
 H    0.9794613754    1.9166497037    0.5868543839
 H    0.0414762795    1.9652684327   -0.9166584553
 H   -0.7804898653    1.9856018087    0.6539240789
 H   -0.9575617626   -0.6527550992   -2.8755377872
 H    0.6825605384   -0.7164884787   -2.9375963694
 H   -0.0815043439   -3.0909042157    1.0601400939
 H    0.1275445261    0.5120638609    2.8506405009