21

 O   -0.1337899949    1.3681204882    0.0501056939
 C    0.0171765301   -0.0296732491   -0.0001433827
 C   -0.4312715546   -0.7342146723   -1.2574817498
 C   -1.2881424240   -0.7608402662    0.0006910428
 C   -1.4516287195   -2.0159422117    0.8325142483
 O   -1.3766294678   -1.7622018974    2.2269176827
 C   -0.0653894561   -1.7462967578    2.7622981279
 C    0.8261328814   -0.5700010394    2.3389637184
 C    1.1687732953   -0.5559452089    0.8402717021
 H    0.6128267754    1.7607809169   -0.4163926500
 H   -0.7777286876   -0.1181340717   -2.0796721683
 H    0.0775535234   -1.6473346432   -1.5523223883
 H   -2.1552932572   -0.1078412661   -0.0142162240
 H   -2.4407398505   -2.4528404304    0.6567921783
 H   -0.7068263639   -2.7747751466    0.5440280463
 H   -0.2004789572   -1.7257775254    3.8488128524
 H    0.4476144683   -2.6924891638    2.5118437523
 H    0.3418522616    0.3755342982    2.6064460252
 H    1.7482086409   -0.6391815411    2.9306059120
 H    1.4489432400   -1.5646546730    0.5133549052
 H    2.0479890670    0.0756266908    0.6572627855