21

 C   -0.0574786028    1.5128091736    0.0321487934
 C   -0.0085252682   -0.0009124989   -0.0186612383
 C    1.1754596867   -0.6559763928   -0.6410708942
 N    0.9904087645   -0.6994827721    0.8197029588
 C   -1.3316665992   -0.6965026910   -0.0815817000
 C   -2.5550267172   -0.1303385278   -0.6879551104
 N   -2.5231311135   -0.2767560518    0.7809351928
 C   -2.7860572007   -1.7368146761    1.0373222012
 C   -1.5416817174   -2.1812527069    0.2271810228
 H    0.9449417122    1.9242143855    0.1869373835
 H   -0.4459259786    1.9361524452   -0.8996967337
 H   -0.7036670605    1.8447417829    0.8507170469
 H    1.0736603190   -1.6159140293   -1.1404414529
 H    1.9476895094   -0.0129257377   -1.0564353240
 H    1.5975869150   -0.0195681597    1.2705800493
 H   -2.5462838499    0.9062746193   -1.0076569584
 H   -3.2148372647   -0.7731174083   -1.2696042111
 H   -2.7128106240   -1.9455848131    2.1061410129
 H   -3.7651599091   -2.0688798612    0.6749601918
 H   -1.6980827340   -2.8395265378   -0.6326073433
 H   -0.7482648271   -2.5837301221    0.8561007629