17

 O   -0.4626792573    1.1231059334    0.0398514438
 C   -0.0498371772   -0.1705319491    0.0779795820
 C    0.8984964629   -0.8376421539   -0.9135618639
 C    0.2481302360   -2.1892773322   -0.4881186109
 C    0.6296280209   -2.3189889904    1.0142731273
 C   -0.2313231148   -1.0754375983    1.2510984676
 C   -1.0337702068   -1.4039228047   -0.0364914281
 C   -2.3987648042   -1.1169851107   -0.3627737972
 O   -2.9829106873   -0.1475853149    0.1171055890
 H   -1.4224840098    1.1149232309    0.2277283239
 H    0.6377102088   -0.5600728972   -1.9372127060
 H    1.9766562189   -0.7221476295   -0.7540397298
 H    0.2744418723   -3.0491415983   -1.1524969498
 H    0.1847618952   -3.2043492231    1.4749995854
 H    1.6941738000   -2.2573604627    1.2643825342
 H   -0.6693039550   -0.7168735686    2.1737986469
 H   -2.8996648425   -1.7656611809   -1.1088833144