23

 C   -0.1425794549    1.5133626877    0.1537738428
 C   -0.1161964340   -0.0154563465    0.0533797615
 C   -1.4821775044   -0.6148114658   -0.1099318904
 C   -2.5934183453   -0.3131582621   -1.1525919283
 C   -3.1848928988   -1.2126775434   -0.0385175856
 C   -4.6138098739   -1.5807513718    0.2345693023
 C   -4.7900081551   -2.3645676360    1.5394261565
 C   -1.9135053477   -2.1027295062   -0.1050345683
 O   -2.4837008392   -0.3617946323    0.9665578957
 H    0.8619253180    1.9116190977    0.3234494022
 H   -0.5319362855    1.9641990923   -0.7647702386
 H   -0.7840182933    1.8311560781    0.9801804068
 H    0.5027306699   -0.3358758370   -0.7942950622
 H    0.3387510068   -0.4450747900    0.9544659345
 H   -2.9621781694    0.7138264624   -1.1591722025
 H   -2.4874243531   -0.7362560927   -2.1556634117
 H   -5.2034714216   -0.6562302679    0.2670554502
 H   -4.9875002432   -2.1618500133   -0.6180589527
 H   -5.8467712830   -2.5704352509    1.7324792976
 H   -4.2627490805   -3.3232468112    1.5001980091
 H   -4.3891570610   -1.7968124673    2.3834399742
 H   -1.7439923137   -2.6922032971   -1.0106737982
 H   -1.6753828271   -2.6477538467    0.8098313654