20

 C    1.7579392919    0.2527342350   -1.1702017745
 C    1.3637906657   -0.8863540469   -0.2545435738
 C    2.2108637129   -1.2785438643    0.9306247327
 C    0.8359771441   -0.6971993378    1.1582072362
 C    0.7400858745    0.6857813222    1.7950567812
 O    1.3359930861    0.7677182472    3.0770836114
 C   -0.2737210257   -1.6653077778    1.5754773762
 C   -0.3629785789   -1.8293729079    3.0289473153
 N   -0.4203567812   -1.9133144010    4.1810783554
 H    2.3207384755    1.0296308867   -0.6462092444
 H    2.3998912232   -0.1206209409   -1.9752027178
 H    0.8836654669    0.7227906408   -1.6340883915
 H    0.9027507448   -1.7169452668   -0.7861561053
 H    2.3743491549   -2.3304295789    1.1410933530
 H    3.0509799950   -0.6416406038    1.1865788480
 H    1.2713407870    1.4185860995    1.1836932862
 H   -0.3160166413    1.0014285717    1.8226917172
 H    0.8499119141    0.1964529750    3.6825876111
 H   -1.2481177690   -1.3084907396    1.2177228389
 H   -0.1135185306   -2.6513725422    1.1265376046