21

 C    0.0230089385    1.6414473752   -0.0920701944
 C    0.1331522512    0.1270642376   -0.0661095321
 O    1.0229973380   -0.2981721858   -1.0993955913
 C    1.3231900366   -1.6617392735   -0.8389947522
 C    1.4419064290   -1.7872949560    0.6864081633
 C    1.1590112737   -3.1633967214    1.2506664565
 O    2.7113216929   -1.2617265022    1.1538741755
 C    2.0891907446   -0.0691105929    1.6712032966
 C    0.6916183171   -0.5239059377    1.2064421953
 H    0.9901863235    2.1135080435    0.0995060031
 H   -0.3279529279    1.9746209657   -1.0724799892
 H   -0.6901113708    1.9852646789    0.6635075805
 H   -0.8670178980   -0.3072707083   -0.2496239555
 H    0.5183232164   -2.3163152619   -1.2138924770
 H    2.2577841198   -1.9145768262   -1.3456757590
 H    1.8799248322   -3.8908498286    0.8613507446
 H    1.2447745949   -3.1570388047    2.3405236929
 H    0.1533866446   -3.5011261288    0.9797718693
 H    2.2143120934    0.0162100183    2.7576592032
 H    2.4846401974    0.8350941108    1.1950697433
 H   -0.0545798471   -0.6617773319    1.9896660665