20

 C    0.0046506925    1.5738058100    0.0449143220
 C    1.4676402365    2.0110662611   -0.1919332365
 N    2.1190982373    0.9106491551   -0.9445194520
 C    2.5791588602   -0.2584489202   -0.1779114208
 C    2.6624144501   -0.3393779466    1.3344185241
 O    1.4852611262    0.0383503642    2.0266555023
 C    0.3079580568   -0.5222368717    1.4694836756
 C    0.0580147143    0.0248314571    0.0608393953
 C    1.2535387917   -0.2791748755   -0.8509308787
 H   -0.4188316087    1.9914084434    0.9629874386
 H   -0.6189386577    1.9082182919   -0.7904093139
 H    1.5282653146    2.9172116179   -0.8019829602
 H    1.9848656278    2.2112125827    0.7504302947
 H    3.4169248012   -0.7656383483   -0.6560514809
 H    2.9335586025   -1.3793875824    1.5883030018
 H    3.4575876999    0.3091663029    1.7194978433
 H    0.3739495889   -1.6232666847    1.4482685902
 H   -0.5036756627   -0.2439923470    2.1492797879
 H   -0.8605665069   -0.4191951833   -0.3341060134
 H    1.0910270153   -0.8447651666   -1.7646479294