22

 C   -0.0460040212    1.2790314328    0.4969479669
 C   -0.0544074837    0.0836859407   -0.4588229282
 N   -1.3324449455   -0.6052230604   -0.4884302543
 C   -1.5254548856   -1.8323072369    0.0564052795
 O   -0.6454504538   -2.5116089834    0.5622654776
 C   -2.9943041843   -2.3283146814    0.0159718080
 C   -3.0223583491   -3.7610280820   -0.5204620134
 C   -3.5544556023   -2.2473308975    1.4394952575
 O   -3.8149859425   -1.4649644967   -0.7863177528
 H    0.9303065627    1.7738529865    0.4814831171
 H   -0.8016612786    2.0203707614    0.2146861391
 H   -0.2523496161    0.9560464487    1.5214151902
 H    0.2035921267    0.4111001161   -1.4737631667
 H    0.6836607144   -0.6604433259   -0.1505556005
 H   -2.1626223978   -0.1324680320   -0.8135668165
 H   -2.3455522868   -4.3890982903    0.0607566714
 H   -4.0370282780   -4.1658916366   -0.4681617189
 H   -2.6851808777   -3.7932478179   -1.5641156279
 H   -3.5983594239   -1.2053047709    1.7694201266
 H   -4.5662123878   -2.6610296071    1.4688955919
 H   -2.9119179455   -2.8047847166    2.1239174259
 H   -3.7334524938   -1.7509350308   -1.7025126326