17

 C   -0.0276411460    1.6004200571    0.0379533452
 C    0.0874038911    0.0760984680    0.0281932732
 O    0.8350483379   -0.3171261135    1.1719465841
 C   -1.3005323812   -0.5826006347    0.0850648335
 O   -2.3364596023   -0.0372622821   -0.1642152948
 C    0.7859408801   -0.3559752137   -1.2770369389
 O    0.2144169166   -0.3210683862   -2.3444402857
 C    2.2370039789   -0.8064114174   -1.2082937891
 O    2.7438990552   -1.0522549710   -2.4838208019
 H    0.9629794792    2.0575118958   -0.0245716073
 H   -0.6355791203    1.9248798096   -0.8071899092
 H   -0.5054500000    1.9201455581    0.9663482172
 H    0.7406567619   -1.2680716446    1.3060686543
 H   -1.2650944162   -1.6509740425    0.4126917179
 H    2.8222271479   -0.0409073579   -0.6769166308
 H    2.2859404546   -1.7076132784   -0.5731361436
 H    1.9995149527   -0.9159150465   -3.0914852541