20

 C   -0.0822211649    1.5797598214    0.0124108451
 C   -0.0283884611    0.0445630261   -0.0477591731
 C   -1.4669321130   -0.5225676659   -0.0247723573
 O   -2.1353686338   -0.1926699664    1.1699794840
 C    0.7297489866   -0.4654937621   -1.2853010453
 C    2.2312318133   -0.3148874535   -1.0759993604
 O    2.6531141068   -0.9445999376    0.1450779369
 C    1.7741928471   -0.8978128886    1.1686483066
 N    0.5888845711   -0.4571334241    1.1924099346
 H    0.9175883756    2.0179289033    0.0793466948
 H   -0.5764467883    1.9769272602   -0.8808443567
 H   -0.6534992951    1.8926902183    0.8881948394
 H   -2.0501071644   -0.1046108019   -0.8534297056
 H   -1.4131316923   -1.6149907090   -0.1665913474
 H   -1.4991946079   -0.3999613310    1.8700701742
 H    0.4992326078   -1.5256147541   -1.4456612042
 H    0.4298394222    0.0757892869   -2.1887864563
 H    2.8077869859   -0.7947428781   -1.8700491019
 H    2.5227538300    0.7412900284   -1.0324223975
 H    2.2276210945   -1.3249044023    2.0618309103