20

 C    0.1391335217    1.5805294897    0.2485224756
 C    0.0656649493    0.0648458520    0.0648216101
 O    0.6263970437   -0.4819662677    1.2560976322
 C   -1.4199310264   -0.3955766767   -0.0641372877
 C   -2.2459334362   -0.0305148564    1.0829994197
 N   -2.9080025675    0.2647803088    1.9827836760
 C    0.8103303203   -0.4683736189   -1.1552802634
 C    0.9574677082    0.2853179707   -2.4552206435
 C    2.1613352745    0.0412403817   -1.5814265156
 H    1.1776353464    1.9058198169    0.3364751476
 H   -0.3348470371    2.1125804794   -0.5799578469
 H   -0.3753096564    1.8549281235    1.1722326124
 H    0.7981994617   -1.4189145256    1.1123401703
 H   -1.8631594388    0.0277167930   -0.9721888188
 H   -1.4485801024   -1.4859898501   -0.1768626209
 H    0.6720544699   -1.5435315018   -1.2712504197
 H    0.8621086917   -0.2724576028   -3.3801111046
 H    0.5761764596    1.2985045296   -2.5095247881
 H    2.5825382572    0.8882835038   -1.0529700352
 H    2.8971455808   -0.6867957390   -1.9040004694