20

 C    0.0701055660    1.3745106703    0.0921973015
 O    0.0320265723   -0.0313048582    0.0773849063
 C   -1.2768516444   -0.5449761489   -0.0370644558
 C   -1.1834147612   -2.0663065054   -0.0656986114
 C   -2.5568299527   -2.7774859380   -0.0422039387
 C   -3.4095005945   -2.4889798545   -1.2959488289
 C   -2.3725674449   -4.2185532210    0.1277982634
 C   -2.2105729070   -5.4038498117    0.2472085753
 H    1.1175332580    1.6733622459    0.1801699045
 H   -0.3457804766    1.8061980857   -0.8325545516
 H   -0.4906292527    1.7911223792    0.9444980194
 H   -1.8956240476   -0.2150506036    0.8174549685
 H   -1.7571838599   -0.1545568201   -0.9496220788
 H   -0.6242278135   -2.3798239290   -0.9541639296
 H   -0.5998718943   -2.3857980922    0.8031885324
 H   -3.1098666051   -2.4075888028    0.8337195007
 H   -4.3517199753   -3.0411847392   -1.2546313650
 H   -3.6429318658   -1.4238186378   -1.3773461920
 H   -2.8765824047   -2.7964424421   -2.2009980357
 H   -2.0726781660   -6.4501738168    0.3633916356