14

 O    0.0616452162    1.3722730953   -0.1071910084
 C    0.0581083142    0.0179745796   -0.0207117647
 C    0.0132805469   -0.7126936281   -1.2160618180
 N    0.0052236693   -2.0362255804   -1.2651649921
 C    0.0420255613   -2.7209241659   -0.1051834551
 C    0.0880212275   -2.0736882577    1.1357292289
 C    0.0962066921   -0.6869001219    1.1795937749
 C    0.0327861174   -4.1485874244   -0.1739097172
 C    0.0262451753   -5.3520597989   -0.1952944515
 H    0.0938847398    1.7523942715    0.7772193478
 H   -0.0167662137   -0.1741578948   -2.1602481211
 H    0.1167262720   -2.6580894558    2.0475813709
 H    0.1316099800   -0.1623963210    2.1308694541
 H    0.0197765118   -6.4130807877   -0.2337772284