21

 C    0.1684260036    1.2757059401    0.2160857846
 O   -0.1656800621   -0.0579725430   -0.1252162266
 C    0.5084491919   -0.5286868315   -1.2346141884
 C    1.9271916760   -1.0454225418   -1.1408958339
 C    0.8054358165   -2.0006069124   -1.5173913455
 C    0.4511889463   -3.2089341952   -0.6966400572
 C    0.4182664444   -1.7720486891   -2.9648348843
 C   -0.9921382699   -1.2562066340   -3.0695865818
 C    0.1000664238   -0.2966491414   -2.6701946372
 H    1.2414033243    1.3785245458    0.4316493085
 H   -0.0956200286    1.9786272018   -0.5867668493
 H   -0.4041479768    1.5310193744    1.1107863108
 H    2.6838991576   -0.7594131427   -1.8671239717
 H    2.2942084805   -1.1578023214   -0.1243539212
 H    0.5264150868   -2.9902408098    0.3730898138
 H   -0.5744434114   -3.5358302858   -0.8990449735
 H    1.1188888177   -4.0506496617   -0.9147418618
 H    0.9594522652   -2.1463405465   -3.8269854355
 H   -1.3736728840   -1.1349460672   -4.0792428987
 H   -1.7406746665   -1.5550888484   -2.3411791058
 H    0.3671629346    0.5587541097   -3.2806475454