21

 C    0.4865119882    0.7114456352   -0.4291367918
 O   -0.0097973643   -0.5715882909   -0.0790670078
 C   -1.4123773329   -0.6095491199    0.1369536658
 C   -2.1620654213   -1.1524898418   -1.1204067012
 O   -1.5556223612   -0.9247649062   -2.3660733063
 C   -2.1317353720   -2.5938055529   -0.5020702650
 C   -1.0715916912   -3.5257383899   -1.0799325745
 C   -1.7534199289   -1.9373233170    0.8717734328
 O   -0.7306863374   -2.4960953938    1.6478076370
 H    1.5670460868    0.6126855081   -0.5584266201
 H    0.0387919818    1.0721881086   -1.3627503780
 H    0.2859582023    1.4412952113    0.3676829585
 H   -1.7530039978    0.3319644568    0.5849499067
 H   -3.1780639216   -0.7558285166   -1.1927412922
 H   -0.6279463525   -1.1689843258   -2.2668699662
 H   -3.1024363122   -3.0981470603   -0.5039790150
 H   -0.0740325453   -3.0752600588   -1.0641898932
 H   -1.0164051757   -4.4475384238   -0.4946875956
 H   -1.3103503013   -3.7855367811   -2.1154167852
 H   -2.6335547823   -1.8196488954    1.5115552403
 H    0.0940214786   -2.1323834958    1.2993131608