21

 C    0.0040965088    1.5559278381    0.2715855166
 C    1.5467268062    1.4683318597   -0.0723142188
 C    1.1860633686    0.2408430087   -0.9506628723
 C    0.5361122837    0.6744953767   -2.3240386386
 C   -0.8221931528   -0.0825011648   -2.3442381537
 C   -0.7475617636   -0.9313083237   -1.0400062902
 C    0.4551693488   -1.8847358856   -1.2377127178
 C    1.6107004097   -1.1958579878   -1.1694252696
 C   -0.0458229977    0.0313126081   -0.0620654679
 H   -0.2620684646    1.8369164411    1.2925338138
 H   -0.5377468062    2.2024403862   -0.4212515565
 H    2.0114536126    2.3290475212   -0.5602400570
 H    2.1295916186    1.2020853467    0.8137639122
 H    0.3925394122    1.7567737764   -2.3822622864
 H    1.1869685264    0.3927354607   -3.1545322060
 H   -1.6669749359    0.6128364205   -2.2980574306
 H   -0.9567934628   -0.7043092004   -3.2327341870
 H   -1.6830326944   -1.4158268844   -0.7546507242
 H    0.3453414921   -2.9277499894   -1.5118750800
 H    2.6040379464   -1.5762367435   -1.3764698231
 H    0.2360359540   -0.5101118444    0.8453952072