19

 C   -0.0353569802    1.4589511875    0.1955400443
 C    1.4808231351    1.6063560533   -0.1659962687
 C    1.3995742747    0.2148572326   -0.7870501388
 C    2.3321385778   -0.9613598606   -1.1133098862
 C    1.2448406615   -1.4553935284   -2.1128319879
 O    0.0773674415   -2.0195942178   -1.4646028899
 C   -0.5258657494   -0.7085526424   -1.2758321396
 C    0.0720909932   -0.0877772017   -0.0103091301
 C    0.5963541942   -0.0486521118   -2.1235662559
 H   -0.3303953608    1.7841729215    1.1944684467
 H   -0.6942970480    1.9425676717   -0.5312792567
 H    1.7838798785    2.4400744568   -0.8067777088
 H    2.1013506274    1.6167338311    0.7367358467
 H    3.2231252189   -0.6469805745   -1.6712558333
 H    2.6272257952   -1.6309440951   -0.3003636368
 H    1.5471196179   -2.0414549258   -2.9829159766
 H   -1.6008308756   -0.7184095744   -1.4749865358
 H    0.0611854349   -0.6853295717    0.9037292418
 H    0.5068951532    0.6254503493   -2.9716114244