17

 O    0.0192952866    0.0427473219    0.3583143178
 C   -0.0017684807    1.2133635526    0.0698804224
 C   -1.2306420228    2.0887211687   -0.0769056048
 C   -0.9498264280    3.3029349867   -0.5872713271
 C    0.4999466315    3.3543734139   -1.0039334864
 C    1.8030979928    3.9568224975   -0.3603500843
 C    1.4080997854    3.2767994994    0.9629815574
 C    1.1114773155    2.2124602388   -0.1689016075
 C    2.5025239888    2.5955211780   -0.7597248892
 H   -2.2100364243    1.7190180594    0.2040674597
 H   -1.6867186307    4.0744499238   -0.7887354399
 H    0.5785146441    3.2304422514   -2.0915224630
 H    2.2152264880    4.9581319669   -0.4968296285
 H    2.2196856256    3.0158231527    1.6454744859
 H    0.5427884390    3.6740507219    1.4942701443
 H    2.6469445151    2.4050565321   -1.8255476475
 H    3.3852242539    2.3250419643   -0.1767917793