16

 O    0.0955193952    1.3062890212    0.3036622254
 C   -0.0235818620   -0.0275020891    0.1329384099
 C   -1.0796616179   -0.8441254934   -0.0929688874
 N   -2.4491985665   -0.8074491984   -0.4033671732
 C   -2.9557074936   -2.1704525492   -0.0941032512
 C   -1.7365316840   -3.1186948942   -0.3103231587
 C   -0.5909985508   -2.1853952568   -0.0371867519
 C    0.7376343934   -2.1092768697    0.2077243443
 O    1.1052679155   -0.7933722288    0.3325068964
 H    0.6989768903    1.6638591115   -0.3594808145
 H   -2.9736875672   -0.0694592890    0.0479158492
 H   -3.2910188673   -2.2449828752    0.9512532975
 H   -3.8015250536   -2.4193935611   -0.7407257483
 H   -1.7849779797   -3.9923911035    0.3443444337
 H   -1.7118329740   -3.4827465604   -1.3446514982
 H    1.5332171222   -2.8257128439    0.3240456370