19

 O   -1.6549522668    1.6392147490    0.4159327288
 C   -0.5964790715    0.7566394670    0.1069818506
 C   -1.1266608471   -0.6057950714   -0.3133800634
 O   -1.9436907366   -0.3775405569   -1.4494864483
 C   -2.7757562576   -1.4509018182   -1.8110323275
 C   -3.7370014111   -0.9637809694   -2.9086487460
 O   -4.4990837699   -2.0540716538   -3.4111022797
 C   -4.5833588296    0.1321601403   -2.4315579640
 C   -5.3129673682    0.9913816793   -2.0130055100
 H   -2.2790270000    1.5645858134   -0.3170600566
 H    0.0428356011    1.1554738577   -0.6971321098
 H    0.0200036536    0.6535189000    1.0060899740
 H   -0.3048540054   -1.3003391405   -0.5500639516
 H   -1.7264923162   -1.0406447311    0.5009689178
 H   -2.1980219851   -2.2978501064   -2.2103381825
 H   -3.3575434469   -1.8108148996   -0.9467411703
 H   -3.1309132447   -0.6107746071   -3.7509131768
 H   -5.2232571833   -2.2122995299   -2.7955652848
 H   -5.9532535248    1.7620540874   -1.6596051500