18

 C    0.0008983831    1.4324565345    0.0060901762
 N   -0.1170950928   -0.0082978161   -0.0020893312
 C    0.1350947762   -0.8213967193   -1.0848353492
 N    0.2218584678   -2.0790807502   -0.8847632001
 C   -0.0131272270   -2.2754072595    0.5502653403
 C    0.0204908461   -0.8393141993    1.2047247569
 C    1.3403466034   -0.5833668739    1.9574562101
 C   -1.1191939037   -0.6144121009    2.1078495877
 N   -2.0043606432   -0.4312985367    2.8282942380
 H    1.0028370015    1.7862335064    0.2869745988
 H   -0.2252687219    1.8094371012   -0.9944042395
 H   -0.7269870951    1.8656482619    0.6997146467
 H    0.2271012727   -0.3605313749   -2.0646446944
 H   -0.9853696105   -2.7563565514    0.7020747285
 H    0.7505539296   -2.9208690936    0.9937163696
 H    2.1803932931   -0.7634389205    1.2805857707
 H    1.4011276438    0.4391925541    2.3382042669
 H    1.4218954270   -1.2665571818    2.8070624038