15

 O    0.1962380440    0.6591780853    1.0606494650
 C   -0.0772862271    0.2020790252   -0.2575124359
 C   -1.4047088603   -0.3989699047   -0.2995250236
 C   -2.5037485570   -0.8855857514   -0.3572780237
 C   -3.8210024485   -1.5046206930   -0.3970412533
 C   -3.8512483256   -2.8404848299    0.3911189923
 C   -5.1684306696   -3.4708263755    0.3515865799
 N   -6.2174859550   -3.9531325763    0.3066242883
 H    1.0735264323    1.0555356483    1.0510591449
 H   -0.0377942842    1.0290571614   -0.9851749544
 H    0.6655798205   -0.5438103322   -0.5844594045
 H   -4.5734281331   -0.8256330118    0.0198384910
 H   -4.1184355842   -1.6939306430   -1.4347901729
 H   -3.1113069553   -3.5323490407   -0.0232648252
 H   -3.5708214370   -2.6610483118    1.4337050120