19

 O   -0.0281807503    1.3941061656   -0.0922166590
 C    0.0283091168   -0.0111548114    0.0690487236
 C   -1.3387257855   -0.6264812159   -0.0505330095
 C   -2.2262199227   -0.5832910729   -1.3225574657
 C   -3.0480410686   -1.5913581301   -0.4795162454
 O   -4.0171391739   -2.3692527616   -1.0973246416
 C   -1.6746103438   -2.1333013129    0.0563075454
 C   -3.4607327924   -0.6824190809    0.6960961799
 O   -2.2033894457   -0.0357403727    0.9612253838
 H   -0.7350341325    1.6973047453    0.4901663848
 H    0.6837546520   -0.4013903604   -0.7156625820
 H    0.4629283095   -0.2906727343    1.0426999262
 H   -2.6860800898    0.3705551372   -1.5865314093
 H   -1.7552986593   -1.0520580809   -2.1877771780
 H   -4.4111354685   -2.9529515023   -0.4393522990
 H   -1.1613406605   -2.7481478668   -0.6844656546
 H   -1.6360246949   -2.5843675750    1.0511626781
 H   -4.2283988979    0.0485519819    0.4168263301
 H   -3.7976941320   -1.2392203419    1.5806354922