21

 C    0.0584728295    1.4728434951    0.2135268509
 C    0.0017521980   -0.0371469272   -0.0468160757
 N    0.6577927754   -0.4650406162   -1.2686235945
 C    0.0012964561   -0.7062065435   -2.5475628206
 C   -0.5215498665    0.5656840066   -3.2274322921
 C    1.1451026898   -1.3870423574   -3.3478268705
 N    2.3331795744   -0.8765707415   -2.6780400224
 C    2.0291018221   -0.5456100920   -1.3569771502
 O    2.8230419678   -0.3491224603   -0.4588026944
 H    1.1000711133    1.7985744957    0.2693430719
 H   -0.4433842030    2.0426892819   -0.5738157591
 H   -0.4268905924    1.7088432550    1.1664177577
 H    0.4893279896   -0.5575060043    0.7840884389
 H   -1.0362783019   -0.3858378513   -0.0878018255
 H   -0.8335821195   -1.4047325405   -2.4122017046
 H    0.2954571313    1.2711940118   -3.4068682056
 H   -0.9860282402    0.3180565155   -4.1880749429
 H   -1.2765007525    1.0606664720   -2.6100073756
 H    1.0672365898   -2.4817378092   -3.2822045546
 H    1.1199778607   -1.1037663873   -4.4043007366
 H    3.2221602081   -1.3321478330   -2.8137407845