19

 C    0.3215322784    1.4376671352    0.2059048594
 N    0.3662033410   -0.0009695222    0.0195811341
 C    0.6758265014   -0.5788600366   -1.1740448179
 O    0.9707818812    0.0429230473   -2.1757123885
 C    0.5927787278   -2.1207538046   -1.1611318550
 N    1.2997792759   -2.7301586048   -2.2527530017
 C    2.7507895614   -2.6438911399   -2.2770075397
 C    0.6287095131   -3.2589591148   -3.3187882508
 O    1.1399589371   -3.7451985241   -4.3028964514
 H    1.0345445358    1.7611247502    0.9718494090
 H    0.5894572654    1.8955583575   -0.7467632636
 H   -0.6808976717    1.7718469902    0.4948891029
 H    0.1461540699   -0.5948359059    0.8024783356
 H    0.9630557524   -2.5077453396   -0.2008666446
 H   -0.4661344437   -2.3975972809   -1.2298119123
 H    3.1775647325   -3.1128124068   -1.3821790638
 H    3.0959683888   -3.1730196178   -3.1650172497
 H    3.0730995914   -1.5993564312   -2.3267177063
 H   -0.4690226881   -3.2100607214   -3.1729579157