23

 C   -0.0169151301    1.5323855845    0.0842807292
 C    0.0105411290    0.0312165943    0.0126685690
 C   -0.9165254014   -0.8372523640    0.8228761425
 C    0.5742169034   -0.9673308056    1.0112751973
 C    1.3149048885   -1.7169492694   -0.1342233218
 C    2.7185553448   -2.2190479515    0.0440926850
 C    0.3769283398   -2.2061516467   -1.2082368778
 C    0.7354465065   -0.7382753994   -1.1497330944
 C    1.3998304399   -0.0249816633   -2.2946455073
 H    0.9707179638    1.9703321139   -0.0988077369
 H   -0.7090882110    1.9610249007   -0.6514582321
 H   -0.3444314322    1.8636218051    1.0751036245
 H   -1.4145099491   -0.3066218771    1.6305427918
 H   -1.5283932958   -1.6253106032    0.3984526036
 H    1.0508945374   -0.7624509094    1.9632208705
 H    2.7450379057   -3.1017059237    0.6959481300
 H    3.1654261154   -2.5045977659   -0.9136683972
 H    3.3621887404   -1.4563605448    0.4992739942
 H    0.8769505464   -2.7372225599   -2.0149920355
 H   -0.6157104139   -2.5932899252   -1.0062908319
 H    0.6631294373    0.3665105353   -3.0075815803
 H    2.0091501662    0.8199134459   -1.9550871339
 H    2.0576289689   -0.7041005707   -2.8466722784