20

 C   -0.3343850809    1.4904950325    0.0636326121
 C   -0.0034603430    0.0170702405   -0.0165289735
 C    0.6616192097   -0.6393044533   -1.1959792170
 N    1.3352174856   -0.5451396006    0.1130900036
 C    2.4988114427    0.3522048444    0.2325472952
 C    3.2625309734    0.5105518112   -1.0834544899
 C    2.3417511410    1.0469257499   -2.1893569253
 C    1.1404839061    0.1311611379   -2.3929785190
 O    0.6375672038   -0.0469418734   -3.4802528848
 H    0.3240316452    2.1269560479   -0.5290172113
 H   -1.3562873790    1.6505656306   -0.2939311198
 H   -0.2907010788    1.8358286158    1.1030209157
 H   -0.7525721970   -0.6006578582    0.4790279441
 H    0.3197233980   -1.6352023446   -1.4699647005
 H    2.1981532090    1.3407159877    0.6036299752
 H    3.1585278493   -0.0787096663    0.9934875475
 H    4.1189904332    1.1772379493   -0.9374791009
 H    3.6670069655   -0.4634951864   -1.3848144294
 H    1.9840047472    2.0507936573   -1.9235256346
 H    2.8485849889    1.1404230677   -3.1536313076