21

 C    0.0161309467    1.5690968332    0.0080309107
 C    0.0760547767    0.0378987548   -0.0097548266
 N    0.6871974001   -0.4861186954   -1.2382663605
 C   -0.0887541339   -0.1650499005   -2.4281972776
 C    0.9331745820   -1.9166977693   -1.1356679028
 C    1.9958812062   -2.1734313121   -0.0787414790
 N    1.6044532552   -1.5289040322    1.1603266663
 C    0.7866767147   -0.4463134079    1.2705907056
 O    0.5777194308    0.0913716030    2.3440735061
 H    0.9932746182    1.9874952629   -0.2520523020
 H   -0.7266911817    1.9543003497   -0.6936745583
 H   -0.2511434033    1.8947621332    1.0136450254
 H   -0.9607219530   -0.3478136971    0.0948072585
 H   -0.1530708632    0.9158936248   -2.5654479281
 H    0.4090411128   -0.5830086958   -3.3082860655
 H   -1.1192325386   -0.5685508437   -2.3942461275
 H    0.0135427355   -2.4839628584   -0.8878524894
 H    1.2933734632   -2.2859853417   -2.1006050401
 H    2.1013281564   -3.2505383848    0.0923577508
 H    2.9627473086   -1.7912397655   -0.4347543383
 H    2.0689090066   -1.7832650572    2.0200609623