16

 O    0.0021072821    1.4271944149    0.0615379363
 C    0.0198811744    0.0110101736    0.0087600881
 C   -1.4021359669   -0.5369508135   -0.0514249927
 C   -2.2599900786   -0.0801789244   -1.1971388812
 C   -1.5186448406   -1.4066114150   -1.2895656532
 C   -0.1977439126   -1.3271828074   -1.9608970443
 C    0.6481690221   -0.5350298431   -1.2846591451
 C    1.9541522138   -0.1434143524   -1.6713418344
 N    3.0268148428    0.2204943821   -1.9197207967
 H    0.9134514278    1.7392436447    0.0994957978
 H    0.5528813029   -0.3933780384    0.8826415274
 H   -1.8803519012   -0.8223346413    0.8764984252
 H   -3.3340185916   -0.1278302414   -1.0556172819
 H   -1.9107416525    0.7446821568   -1.8066613109
 H   -2.0845552920   -2.3299945521   -1.3049682089
 H    0.0281870001   -1.8168247931   -2.9011197755