18

 C   -0.1525671653    1.6409493865   -0.1126978002
 C    0.0189564216    0.1239300751   -0.0276441365
 C   -1.3457387080   -0.5830844640    0.0346248065
 O   -1.9547369752   -0.2072268458    1.2599760126
 C    0.8858778083   -0.4513500879   -1.1701458971
 O    1.6553939614   -1.5001172984   -0.5775530882
 C    1.6427620242   -1.3616396774    0.7880198171
 O    2.2500359564   -2.0826229261    1.5274460629
 N    0.8482373185   -0.2772523918    1.1050849257
 H    0.8191980936    2.1373041242   -0.0565208587
 H   -0.6359541710    1.9200088805   -1.0554597721
 H   -0.7806173097    2.0002791600    0.7058171346
 H   -1.9577183947   -0.2820356040   -0.8303893746
 H   -1.1907477285   -1.6709652437   -0.0189218343
 H   -2.7420261140   -0.7424392379    1.3926418987
 H    0.2931458374   -0.8693596773   -1.9885720643
 H    1.5627428601    0.3105553277   -1.5729964294
 H    0.4433430949   -0.2671693299    2.0293103973