21

 C   -0.0240060798    1.5919258355   -0.0047488897
 C    1.4963140439    1.9497797912   -0.0022268143
 C    2.1784530998    0.5790868054   -0.1790953152
 C    2.0276769019   -0.3153247657    1.0695687822
 C    2.3804591714   -1.7183480005    0.5669029266
 C    1.6515853992   -1.7394090331   -0.8143061433
 C    1.1625166609   -0.2865569746   -0.9737647176
 C    0.0292334694    0.0614352897    0.0143841510
 O    0.5969314765   -0.3105752370    1.2936855031
 H   -0.5542024802    1.9729823852    0.8708417322
 H   -0.5308737187    1.9662157708   -0.9011282876
 H    1.7543495498    2.6233076405   -0.8244564965
 H    1.8053291664    2.4406649391    0.9252458098
 H    3.1971441732    0.6108913044   -0.5704498784
 H    2.5293365685    0.0117839304    1.9829838274
 H    3.4632297551   -1.8475696378    0.4600687866
 H    2.0124147132   -2.4816408339    1.2560318290
 H    2.3314785309   -2.0138082888   -1.6259306760
 H    0.8217741362   -2.4519166634   -0.8345594655
 H    0.9569759092    0.0276667612   -1.9989076436
 H   -0.9232748567   -0.4575278085   -0.1136579902