18

 C   -0.0502389903    1.5756754519    0.0711621651
 C    0.0190370853    0.0596727893   -0.0412990494
 C    1.1133770658   -0.5731426708   -0.9780785271
 C    1.6734147717   -1.3035585046    0.2493579450
 O    2.0187020344   -0.3013361371    1.2195917512
 C    0.6470377248   -0.7079247116    1.1468594456
 C   -0.0083342791   -1.2148905605    2.3880762419
 C    2.3431967380   -2.5647373720    0.3117232515
 N    2.8623612930   -3.5984377875    0.3294427988
 H    0.9228329303    1.9820139363    0.3605555623
 H   -0.3385340531    2.0245184904   -0.8847594136
 H   -0.7882693670    1.8853064400    0.8188327747
 H   -0.9625648207   -0.3614121239   -0.2804869513
 H    0.6988698565   -1.2446393516   -1.7317642896
 H    1.8195722841    0.1182328332   -1.4428591011
 H   -0.2639618090   -0.3814242218    3.0516637098
 H   -0.9312942184   -1.7501646077    2.1459754798
 H    0.6622112737   -1.8889038619    2.9268075764