19

 C    0.4803873995    1.6359478072   -0.2433487199
 C    0.0505252031    0.2037082681    0.0997948252
 N    0.3476724078   -0.7362127548   -0.9714019659
 C    1.4356828124   -1.5500191835   -0.7687311997
 O    1.9087742105   -2.3119507481   -1.5806722009
 C    1.9216697857   -1.2827496130    0.6589624995
 C    0.8254856560   -0.4280301495    1.2717854363
 C    0.8957127366    0.2132521717    2.6019967712
 N    0.1010481142   -1.0163739189    2.4093332658
 H    1.5608948916    1.6893233952   -0.4084453559
 H   -0.0187462218    1.9798813832   -1.1554767673
 H    0.2181535775    2.3281439220    0.5623424826
 H   -1.0260429131    0.1974393193    0.3198767007
 H   -0.0454433229   -0.6512781141   -1.8961974608
 H    2.0705222064   -2.2149998205    1.2055739653
 H    2.8849510713   -0.7631479410    0.6032340729
 H    1.7845479180    0.0938529184    3.2159698213
 H    0.3715136400    1.1542473961    2.7524238455
 H   -0.8881007029   -0.7810867479    2.3605997240