18

 C   -0.0311751755    1.4589951622    0.2972491449
 C    1.4558361717    1.5956929378   -0.2002824223
 C    1.2261449334    0.2625179040   -0.9047566912
 C    1.8102399087   -1.0114814922   -1.5228273036
 C    0.5231061897   -1.7750837029   -1.6989953503
 C   -0.5699365924   -0.7546470134   -1.2284344359
 C    0.0339087482   -0.0884502228    0.0198398352
 C    0.2567187408    0.1946041114   -2.1440872453
 N    1.0554477420   -0.9231693480   -2.8151898395
 H   -0.2186784171    1.7392449608    1.3347101760
 H   -0.7407301553    1.9928364107   -0.3393124008
 H    1.7226185078    2.4621756287   -0.8118524648
 H    2.1591580744    1.5190115569    0.6351679297
 H    2.7883236177   -1.4730755092   -1.4563226988
 H    0.4548902799   -2.8531071478   -1.7902739173
 H   -1.6140406684   -1.0315993280   -1.3747566049
 H    0.1872694790   -0.6919289472    0.9184835351
 H   -0.0954425847    1.0414590590   -2.7291654862