17

 C   -0.1292842255    1.5122939929    0.0401054674
 C    0.0799078263   -0.0128806332   -0.0160032346
 C    0.7849918379   -0.3924367960   -1.2544154934
 N    1.3299732348   -0.6571614180   -2.2376761193
 N    0.7713834737   -0.5310168537    1.1526779564
 C    2.1030498161   -0.3483992523    1.4545242628
 C    2.3378965995   -0.9024449249    2.6892046888
 C    1.1051556649   -1.4352382172    3.1602825152
 C    0.1594759526   -1.1920726798    2.1947310880
 H    0.8313119686    2.0312374046    0.0620877296
 H   -0.6911340184    1.8518278356   -0.8337970162
 H   -0.6862257426    1.7632256261    0.9457275151
 H   -0.8985406431   -0.5038551387   -0.0430366306
 H    2.7642147386    0.1367681143    0.7544763857
 H    3.2915113362   -0.9334053565    3.1932341840
 H    0.9347088117   -1.9470929147    4.0947277649
 H   -0.8920165513   -1.4287029185    2.1500883361