24

 C    0.1598403744    1.5167372724    0.0438772269
 C   -0.0106437882   -0.0010782050   -0.0782240431
 C   -1.4696078564   -0.4974373769   -0.0521335218
 C   -2.2711782024    0.0173887254   -1.2573144258
 C   -1.4941423277   -2.0328494463    0.0453761286
 C   -2.8821802108   -2.6430734406    0.2651418138
 C   -2.8045427997   -4.1146872541    0.6744309856
 N   -3.8735300127   -4.8743080288    0.2895995783
 O   -1.8747435831   -4.5811323352    1.3038206625
 H    1.2195484712    1.7867843281    0.0911093924
 H   -0.2744618661    2.0510814294   -0.8065524115
 H   -0.3188401041    1.8960326762    0.9540620569
 H    0.4680293794   -0.3506983131   -1.0037163335
 H    0.5329257697   -0.4848812331    0.7429083498
 H   -1.9378808411   -0.0986312956    0.8615928226
 H   -1.8489935237   -0.3648414940   -2.1952028043
 H   -3.3185334166   -0.2964695974   -1.2126542704
 H   -2.2657367499    1.1096211215   -1.3117883428
 H   -1.0505603733   -2.4621972723   -0.8634376771
 H   -0.8603171912   -2.3612346854    0.8748499719
 H   -3.3926756652   -2.1141138159    1.0828784326
 H   -3.5199071172   -2.5336672278   -0.6185895198
 H   -4.6769231247   -4.4783961878   -0.1650869921
 H   -3.9220519206   -5.8255667135    0.6162343404