23

 C    0.2701705243    1.3579640014    0.4236013723
 O    0.0301239581    0.0037788287    0.1259196796
 C    0.5455850768   -0.4291957605   -1.1331145477
 C    2.0721867607   -0.5600743972   -1.1237322539
 C   -0.1100430145   -1.7607979232   -1.4240660209
 C   -1.5487861497   -1.8622338113   -1.8998050810
 C   -2.4139600039   -0.6373647177   -2.1085752055
 C   -0.4033580961   -2.1893160306   -2.8357445952
 O   -0.0471484795   -1.2862968409   -3.8473147461
 H    1.3332859897    1.5760314545    0.6035643624
 H   -0.0821808820    2.0215907009   -0.3827002509
 H   -0.2860014370    1.5907148048    1.3357984788
 H    0.2637049934    0.2993064837   -1.9054630661
 H    2.3901512882   -1.2774428361   -0.3599546735
 H    2.4177831676   -0.9102116527   -2.1006969361
 H    2.5603758606    0.3971493602   -0.9193531302
 H    0.2210124537   -2.5476533957   -0.7507755226
 H   -2.0891843212   -2.7251113263   -1.5184684000
 H   -1.9023109868    0.1193663430   -2.7081229285
 H   -3.3398472492   -0.9022066814   -2.6313063376
 H   -2.6841796480   -0.1826892000   -1.1511120425
 H   -0.2317407146   -3.2345811729   -3.0932252684
 H   -0.7051936106   -1.3482548707   -4.5476862163