19

 C   -0.0424961041    1.5818751826    0.0887938850
 C    0.1195658188    0.0739731597    0.0700448135
 C    1.3690483307   -0.6858646306   -0.2348387166
 C    2.6146801652   -0.0195028261    0.3347838762
 O    3.0201369404    1.1891809929   -0.2641519851
 C    1.9213419510   -0.0454197190    1.7300173237
 O    2.3033265310    0.2398207003    2.8327794097
 C    0.7198467751   -0.7653209945    1.1967566222
 C   -0.0261293686   -1.8589260669    1.9071993649
 H    0.8545547172    2.0891459335    0.4437028601
 H   -0.2496727120    1.9508726668   -0.9214816258
 H   -0.8844048123    1.8661519154    0.7291633641
 H   -0.7576546984   -0.4351181260   -0.3295439310
 H    1.3939909270   -1.4822961036   -0.9683914604
 H    3.4472424737   -0.7414077574    0.3800928112
 H    3.7176093894    1.5657991927    0.2842056106
 H   -0.6256642663   -1.4482474371    2.7267761798
 H   -0.7058504372   -2.3806505592    1.2263984715
 H    0.6593499292   -2.5959282835    2.3380332564