19

 C    0.1538254960    1.5927711695   -0.2089635664
 C    0.0242491133    0.0956322594    0.0659713219
 O    0.5011242632   -0.6273086246   -1.0757565423
 C    1.3928376056   -1.6620114921   -0.6833782923
 C    1.5813028977   -1.4727769775    0.7919658188
 C    0.8242742436   -0.4672639023    1.2276415746
 C    0.6930037394   -0.0250977319    2.6313331341
 C    0.8255264817    1.3760773238    3.0788029474
 O   -0.4565907486    0.7640320332    2.9742213169
 H    1.2044181314    1.8930825725   -0.2694056684
 H   -0.3227100942    1.8216750106   -1.1661640927
 H   -0.3495000363    2.1699933818    0.5709196861
 H   -1.0435099003   -0.1330730045    0.2191828868
 H    0.9639989474   -2.6518308606   -0.9158617445
 H    2.3303593845   -1.5783124482   -1.2543533363
 H    2.2283818762   -2.0990069218    1.3945301008
 H    0.9373816117   -0.7886843928    3.3704635492
 H    1.1692805902    1.5711029670    4.0939693457
 H    1.0367372975    2.1594876085    2.3554542106