25

 C   -0.2048178569    1.5782112872   -0.0403855701
 C    0.0024973629    0.0797848030    0.0244124771
 C    1.3131094756   -0.6016914521   -0.3203594715
 C    2.5855232192    0.1370806848   -0.6969154066
 C    3.8398678526   -0.4492631612   -0.0205993993
 C    4.0395229073   -0.0251654734    1.4448412223
 C    2.9675059794   -0.4632378378    2.4578108364
 C    1.5640292163    0.1207696212    2.2052583854
 C    0.8105567395   -0.6096311618    1.1073551981
 H    0.6740233152    2.1462206639    0.2736511001
 H   -0.4470409619    1.8926768833   -1.0618861588
 H   -1.0364388465    1.8831543466    0.6049311952
 H   -0.8810776267   -0.4718639078   -0.2896445950
 H    1.2125567652   -1.5493307311   -0.8457203334
 H    2.7054285009    0.0936645728   -1.7866514729
 H    2.5151878839    1.2025975829   -0.4505113508
 H    3.8088410693   -1.5454106549   -0.0886060640
 H    4.7274057101   -0.1351793011   -0.5843505154
 H    5.0098190368   -0.4098386219    1.7842021197
 H    4.1238848953    1.0708470303    1.4807156173
 H    2.9045698310   -1.5598947554    2.4803651509
 H    3.3051779854   -0.1579944899    3.4563056386
 H    0.9751131752    0.0659942580    3.1293596437
 H    1.6598264440    1.1889532317    1.9798737101
 H    0.4063136169   -1.5620508474    1.4444301827