18

 C    0.0660963474    1.5403152201   -0.0420226291
 C    0.0258055236    0.0002065044    0.0297878085
 C    0.7038841974   -0.5126278659    1.3214005110
 O    2.0348831533   -0.0762154097    1.4517850808
 C   -1.4406349338   -0.5175092759    0.0110352271
 C   -2.2069119737   -0.0984136749   -1.1607991802
 N   -2.7996192572    0.2401097324   -2.0934641755
 C    0.7596647858   -0.5364071910   -1.1953810427
 O    1.8368027193   -1.0828542838   -1.1622153389
 H    1.0884024353    1.8863397727    0.1203184808
 H   -0.2934539270    1.9126355593   -1.0058174516
 H   -0.5687744641    1.9669778735    0.7417189112
 H    0.1571976041   -0.1250875578    2.1890329761
 H    0.6327435846   -1.6116419603    1.3499690185
 H    2.5202130708   -0.4985397752    0.7304573833
 H   -1.4610478077   -1.6124650875    0.0669162926
 H   -1.9526371428   -0.1461650658    0.9064903095
 H    0.2397876047   -0.3741514247   -2.1637311413