20

 C    0.1149406429   -0.6771185305   -3.3616360082
 C    0.2247159640   -0.7121780321   -1.8299862761
 C    0.4246008568    0.6910118961   -1.2402596600
 C   -1.0213879404   -1.3442921950   -1.2491593595
 O   -1.1901701229   -2.7513322921   -1.3885818273
 C   -1.0520110322   -2.2412124741   -0.0685120282
 C    0.2013058347   -2.6310757667    0.6834677435
 N    0.0495835635   -2.5967232909    2.0414872872
 O    1.2522023272   -2.9167230565    0.1459714710
 H    1.0224066072   -0.2544805121   -3.8041310629
 H   -0.0232260894   -1.6847442279   -3.7638371944
 H   -0.7325357154   -0.0614358634   -3.6874566206
 H    1.0713219621   -1.3444108222   -1.5521898773
 H    0.5410188056    0.6572312984   -0.1521138971
 H    1.3208226695    1.1594193251   -1.6583164382
 H   -0.4261276578    1.3451170519   -1.4681103904
 H   -1.9416816520   -0.7779359013   -1.4259219593
 H   -1.9724069139   -2.2645655436    0.5194683576
 H   -0.8499522818   -2.5013615402    2.4791733039
 H    0.8279688122   -2.8935125228    2.6073854464