15

 N    0.1181838213    1.3916641928    0.1437929513
 C   -0.0143757116    0.0117343876    0.0285346169
 C   -1.1651246921   -0.6924285141   -0.0117628687
 C   -1.1492795474   -2.1578020139   -0.0110110700
 O   -2.1661015639   -2.8252733821   -0.0168074771
 N    0.1214396136   -2.7795549291   -0.0338025354
 C    1.1808180065   -2.0540104876    0.0070792073
 N    2.4345208019   -2.6314225734    0.0967726205
 N    1.1941450399   -0.6693851740    0.0123112136
 H    0.7931986476    1.7977835800   -0.4933710735
 H   -0.7672882211    1.8749159775    0.0801388277
 H   -2.1248039439   -0.1933609475   -0.0491922720
 H    2.3871626464   -3.6313210330   -0.0426445075
 H    3.1677558469   -2.1908269857   -0.4413014544
 H    2.0045172358   -0.1969152876    0.3848778115