12

 O   -0.0107267543    1.4939167796    0.1374509380
 C    0.0033604900    0.0995988004    0.0450261338
 C   -1.4604111705   -0.4139445350   -0.0540750531
 O   -1.7535152023   -1.5664056227   -0.1948806298
 C    0.7241692754   -0.3351684410   -1.2533434124
 O    1.2321793504    0.4866965451   -1.9674759414
 C    0.6932910752   -0.5576167310    1.1559505584
 C    1.2707050035   -1.1133404241    2.0509396267
 H    0.5540990252    1.8117698491   -0.5874219757
 H   -2.1917739898    0.4193211610   -0.0127228324
 H    0.7334727448   -1.4196487547   -1.4530279810
 H    1.7738993924   -1.5950912267    2.8534409791