19

 O    0.1158203808    1.6256616385   -0.0627835569
 C    0.1011591808    0.2035915965    0.0312367533
 C    0.6894621249   -0.4685973909   -1.2123916089
 C   -0.0658077580   -0.0824837898   -2.4992169099
 C    0.5308860260   -0.6526638644   -3.6998593131
 C    1.0443860233   -1.1331746321   -4.6747695757
 C    0.8073669572   -0.2535540549    1.2929086766
 C    0.0863267098   -0.4727087712    2.5489870717
 O    0.5078401555   -1.5757577879    1.7388888324
 H    1.0299267270    1.9059448342   -0.1877357269
 H   -0.9583594199   -0.0649929675    0.1203973546
 H    1.7469805683   -0.1877731876   -1.3127916077
 H    0.6659148424   -1.5541702005   -1.0724954406
 H   -1.1106332892   -0.4099552783   -2.4172816270
 H   -0.0971705183    1.0102174603   -2.5772285886
 H    1.4865274719   -1.5535687549   -5.5435548466
 H    1.8681345883    0.0086775564    1.3457502361
 H    0.6068020207   -0.3676202368    3.4994185375
 H   -0.9886410115   -0.3023465089    2.5840379096