18

 C    0.0489905763    1.4568923144   -0.0107572317
 O    1.1696096324    0.5543196354    0.0294744797
 C   -0.1410813358    0.0100919915    0.0073994509
 C   -0.6189868720   -0.8901074089    1.1391662762
 C    0.2120734327   -2.1413212991    0.7860947402
 N   -0.6476519067   -2.2685475148   -0.4468392186
 C   -1.7832233863   -1.6101846965    0.3414369597
 C   -2.1650836525   -0.8077701777   -0.9052293555
 C   -0.6378472732   -0.8786209211   -1.1305550017
 H   -0.1092800422    2.0391288113    0.8961012380
 H   -0.0672838061    2.0121449340   -0.9413279865
 H   -0.7127931923   -0.4722536527    2.1416190763
 H    1.2863206692   -2.0197199819    0.6244110757
 H    0.0190922198   -3.0048495877    1.4282779212
 H   -2.4679609093   -2.2543797742    0.8944776163
 H   -2.7218065310   -1.4301052936   -1.6083395875
 H   -2.6260944210    0.1769141022   -0.8033888298
 H   -0.1583691118   -0.7968305805   -2.1043689430