16

 C    0.1920844408    1.4960340476    0.0665259283
 C   -0.0406475797   -0.0126645071   -0.0357607088
 C    0.6638676003   -0.6395262419   -1.2972070914
 C    1.8885753167   -1.2402520375   -0.6830144769
 N    3.0269299603   -1.7545465347   -1.0160959668
 O    3.6235775897   -2.0969911697    0.1803546809
 N    2.8105103574   -1.7723269017    1.2866380855
 C    1.7573715089   -1.2548082738    0.7298064359
 N    0.5428650730   -0.7484684067    1.1251562302
 H    1.2626298336    1.7274756946    0.0624334743
 H   -0.2758284650    2.0151654084   -0.7760250504
 H   -0.2419280608    1.8984748273    0.9879080788
 H   -1.1155528759   -0.2127174944   -0.0677651343
 H    0.0359795869   -1.4116622825   -1.7533674799
 H    0.8697279440    0.1156065977   -2.0589787801
 H    0.4628447198   -0.3154628556    2.0337253647