19

 C   -0.2247875787    1.4475123135    0.1352259476
 C    0.1438358595   -0.0030062385   -0.0201882663
 O   -0.3801542313   -0.9004607419    0.9758325913
 C    1.0419544607   -0.7523156323    0.8840074167
 C    1.7325721399   -1.8853807943    0.1493711784
 C    1.0971745605   -1.9004671662   -1.2542579499
 O   -0.0305519403   -2.7882182657   -1.4021646643
 C   -0.9216813703   -1.6916086109   -1.6956153689
 C    0.1836502011   -0.6532822864   -1.3987007823
 H    0.4473508741    2.0854582046   -0.4485851858
 H   -1.2467581557    1.6286476352   -0.2161119819
 H   -0.1702461712    1.7474351550    1.1846264842
 H    1.5129767059   -0.2918076196    1.7509638401
 H    2.8094417699   -1.6888230474    0.0894156468
 H    1.5911363318   -2.8504992926    0.6454166765
 H    1.8367146623   -2.0763054871   -2.0446973349
 H   -1.2587774011   -1.7125580249   -2.7393689059
 H   -1.7858390594   -1.6767804028   -1.0246830252
 H    0.4118174124    0.0626390523   -2.1898192363