17

 C   -0.0107240809    1.4888296467    0.0832425175
 C   -0.0652436899    0.0031242784   -0.0140136954
 C   -0.0425720719   -0.8178174355   -1.0686129228
 C    0.0277931133   -2.2392460482   -0.5097399129
 C    1.4656046551   -2.4609271497    0.0327062640
 C    1.4447207701   -1.4461058420    1.1959138814
 O    2.3409813098   -1.1139637559    1.9214971341
 C   -0.0244960693   -0.9392497594    1.1961213058
 O   -0.7048990688   -2.1030958970    0.7242091397
 H    0.8801430189    1.8098463605    0.6369474816
 H    0.0159133713    1.9556101778   -0.9047294220
 H   -0.8778222160    1.8819618102    0.6278117163
 H    0.0101342363   -0.5558986497   -2.1169742313
 H   -0.3905197680   -3.0432460965   -1.1133212339
 H    1.5901897472   -3.4706509680    0.4354188720
 H    2.2716860508   -2.2591716191   -0.6744839150
 H   -0.4099577680   -0.5873339825    2.1508106609