19

 C   -0.0386701781    1.4107140636    0.1049780091
 N   -0.0581658444   -0.0265185708   -0.0750392060
 C    0.6044586929   -0.6208575733   -1.1021864275
 C    1.2136217858   -0.0676912101   -2.1747459824
 C    1.7314896750   -1.1376878666   -3.0432939724
 O    2.4046112341   -1.0571023918   -4.0503581497
 N    1.2885987867   -2.3375410905   -2.4754333079
 C    0.6869324377   -2.1399579440   -1.1722661651
 C    1.5069590929   -2.7537528712   -0.0269185312
 H    0.9768110280    1.8013285772    0.2620652733
 H   -0.4577759623    1.9036121100   -0.7788184044
 H   -0.6546934534    1.6745262703    0.9667548548
 H   -0.2397762438   -0.5865574325    0.7412061143
 H    1.3391608846    0.9780782852   -2.4068575957
 H    1.7773824411   -3.1886631106   -2.7033051171
 H   -0.3309620441   -2.5577307469   -1.1427693781
 H    2.5162891135   -2.3327207775   -0.0124920087
 H    1.0374043325   -2.5692433527    0.9457742303
 H    1.5820070312   -3.8388667279   -0.1491767156