21

 C   -0.0261514694    1.3520195862   -0.3345036246
 C    1.4308401557    1.5259385178    0.1358617585
 C    1.2459687885    0.1217030223    0.7413099201
 O   -0.1082169626    0.0420551176    0.2647045558
 C    2.2382044418   -1.0351374480    0.4635019548
 C    3.0045217052   -0.4960920218    1.7072923669
 C    1.5685330432   -0.1876669678    2.2246251095
 C    0.9627960038   -1.5956991664    2.3796111961
 C    1.4709571286   -2.2387863504    1.0432000345
 H   -0.7548563272    2.0458823140    0.1009267639
 H   -0.1765265775    1.3140076166   -1.4198603601
 H    2.1742311104    1.5987824771   -0.6604698941
 H    1.5972663406    2.3288870471    0.8567340144
 H    2.7169579632   -1.1553333919   -0.5094054042
 H    3.6006911174   -1.2121934885    2.2785834835
 H    3.5916477130    0.4008684932    1.4989245122
 H    1.3770590905    0.5403061740    3.0143045660
 H    1.3381715905   -2.1097671410    3.2688210550
 H   -0.1276663616   -1.5644415314    2.4327520227
 H    0.6473130698   -2.5451851640    0.3946321314
 H    2.1221407262   -3.1019091748    1.2070447577