20

 C   -0.1383944987    1.4573613750   -0.1796209991
 C    0.0465436836   -0.0392773556   -0.0017813463
 C   -1.2548551382   -0.6826150575    0.6847464899
 O   -1.8335176521   -1.8281274155    0.1118208832
 C   -0.3651364947   -0.8873217361    2.0118827776
 C    0.8469214928   -0.7488380056    1.0647345026
 C    2.1205279915   -0.1362972992    0.4028446973
 N    1.2776917253   -0.6211865684   -0.8348828515
 C    1.0547754819   -1.8728902135    0.0173057886
 H    0.7594076748    1.9495613086   -0.5578669958
 H   -0.9377187781    1.6348616905   -0.9087165179
 H   -0.4335537292    1.9545041400    0.7522832682
 H   -2.0161237704    0.0992708065    0.8119955488
 H   -2.5806262513   -2.0922910719    0.6591871939
 H   -0.5098974412   -0.0574310655    2.7092388392
 H   -0.4875620047   -1.8374148929    2.5402117196
 H    2.2693900958    0.9420025157    0.4615016922
 H    3.0712133649   -0.6723595771    0.4754384787
 H    1.9542165669   -2.4856576743    0.1299975626
 H    0.2024945810   -2.4692113630   -0.2979917016