21

 C    0.0638358184    1.6356888978    0.0728164541
 C   -0.0170279172    0.1196650702    0.0238423548
 O    0.7963855025   -0.3207102609   -1.0628801222
 C    0.7651893262   -1.6849086056   -1.3458755715
 C   -0.5838615501   -2.3190030983   -1.8516481125
 C    0.1917158542   -2.9756838151   -3.0229823185
 C    1.3793292789   -2.0202430803   -2.7417122059
 C    1.4076090499   -2.5491082242   -0.2770166343
 O    1.9116118523   -2.1461657228    0.7390703062
 H    1.0969596628    1.9566932374    0.2322163183
 H   -0.2909838069    2.0736904450   -0.8647069577
 H   -0.5496802979    2.0218640534    0.8923600056
 H    0.3361514823   -0.3193829788    0.9627271213
 H   -1.0579396827   -0.2036258897   -0.1340425720
 H   -1.1332262415   -2.9728344113   -1.1699078308
 H   -1.2466506787   -1.5203269653   -2.1923704348
 H    0.4408647268   -4.0209359700   -2.8220659779
 H   -0.2659306150   -2.9182074240   -4.0120962963
 H    1.3469146048   -1.1152634925   -3.3513570129
 H    2.3915649259   -2.4306465927   -2.7635160258
 H    1.3893460950   -3.6397068025   -0.5157427572