25

 C   -0.3829266730    1.7838868588    0.3142484630
 C   -0.0976518005    0.2797596004    0.4035565278
 C   -1.2309866451   -0.5821390797   -0.1589302274
 C   -1.4549247075   -0.4367031438   -1.6818532338
 O   -1.9185477973   -1.6971077520   -2.1600786839
 C   -2.1329582266   -2.5726763631   -1.0495942251
 C   -2.0702044927   -4.0072363558   -1.5467479872
 C   -1.1044619771   -2.1192515145    0.0071210321
 C    0.3068140210   -2.6657301527   -0.2367832026
 H    0.4360793628    2.3673199780    0.7460272115
 H   -0.5075604412    2.1090449830   -0.7241090374
 H   -1.2996649973    2.0455107758    0.8545302180
 H    0.8349340346    0.0573856545   -0.1287094407
 H    0.0737425659    0.0072862735    1.4528973872
 H   -2.1588692074   -0.2840526760    0.3481008971
 H   -2.1873789858    0.3461045311   -1.9186504739
 H   -0.5209685885   -0.1863306930   -2.2052113727
 H   -3.1417065212   -2.3929427728   -0.6357699856
 H   -1.1035953247   -4.2269255097   -2.0065600855
 H   -2.2372623692   -4.7081828694   -0.7224460748
 H   -2.8465197442   -4.1742265150   -2.2987994884
 H   -1.4343592695   -2.4193692739    1.0082958845
 H    0.6643109305   -2.4287284108   -1.2440547002
 H    1.0196476675   -2.2489947246    0.4802111782
 H    0.3301609765   -3.7535351285   -0.1240556599