14

 N    0.0989377936    1.3372446362    0.1474184666
 C   -0.0448539044   -0.0280674747    0.0638897513
 N   -1.1221292751   -0.7283839335    0.0285590380
 C   -0.6597170282   -2.0658832658    0.0200356184
 C   -1.4865813962   -3.2040899471   -0.0281926183
 C   -2.1594390540   -4.2040251527   -0.0759621230
 C    0.7035889958   -2.0521351685    0.0568619404
 N    1.6775332558   -3.0223200822    0.1548015946
 O    1.1211611651   -0.7493867109    0.0878523673
 H    0.9244955751    1.6979862354   -0.3099270294
 H   -0.7436162539    1.8242748635   -0.1230540775
 H   -2.7660341667   -5.0742308134   -0.1107687230
 H    1.2924988672   -3.9469658536    0.0096082525
 H    2.4793973059   -2.8620869127   -0.4433996178