16

 C   -0.0304895576    1.5047116907    0.0035441977
 C    0.0026145357    0.0091826613    0.0094522931
 C   -0.0229441440   -0.8091167021   -1.0621702284
 O    0.0222679075   -2.1501301898   -0.6698628549
 C    0.0768647921   -2.1522861612    0.6663988328
 N    0.1713887768   -3.3221438080    1.3215898084
 C    0.0638040637   -0.8576775783    1.1742226451
 C    0.0640772883   -0.5857300199    2.5798537127
 O    0.0948604565   -1.4570999513    3.4483281078
 H    0.8617498724    1.9261037182    0.4801176009
 H   -0.0806370005    1.8924032579   -1.0172529112
 H   -0.8985568254    1.8880436070    0.5516927771
 H   -0.0684458106   -0.6512491764   -2.1256979146
 H   -0.0980856028   -4.1728712620    0.8568147399
 H    0.0728079109   -3.2320339281    2.3271315028
 H    0.0260186671    0.4839952119    2.8722198507