21

 C   -0.1261738255    1.5720598243    0.0146089168
 C    0.0340099639    0.0506567827    0.0742978518
 C    0.7837807517   -0.5492188168   -1.1666702585
 C    1.4304074758   -1.8252546776   -0.5960641506
 C    0.7217662807   -3.1179161125   -0.9708187273
 O    2.8990201657   -2.0223341007   -0.6834077599
 C    3.0076553706   -2.0649814985    0.7722806859
 C    1.6261509757   -1.4696409918    0.8476283456
 C    0.9239673884   -0.4136248132    1.2363297049
 H    0.8506242003    2.0666903049   -0.0284843023
 H   -0.6936975205    1.8713968484   -0.8727660456
 H   -0.6577201267    1.9513737352    0.8938795977
 H   -0.9703620720   -0.3925831926    0.1447981138
 H    0.1260398600   -0.7210112293   -2.0249147565
 H    1.5760533192    0.1433390742   -1.4702791787
 H    0.9029159059   -3.3463130488   -2.0264872667
 H    1.0834787436   -3.9596622022   -0.3736696439
 H   -0.3594949215   -3.0270340913   -0.8221897114
 H    3.1203800081   -3.0966700326    1.1307418157
 H    3.8320397721   -1.4545001756    1.1551486460
 H    1.0260237246    0.1511652438    2.1565005932