21

 C    0.1998255503    1.5299151740   -0.1221418748
 C   -0.0881861875    0.0396513221    0.0969313652
 C    0.6662222574   -0.5362362998    1.2677426790
 C    2.0835257091   -1.0412025565    1.1465128146
 C    0.9600964021   -1.9962789284    1.5185771886
 C    0.6261772286   -2.2497821218    2.9721864941
 C    1.4210295545   -1.5589896567    4.0654189466
 C    0.1783982896   -0.9138872377    3.5098663337
 O    0.3056027090    0.0607276433    2.5038575820
 H    1.2623699126    1.6986782477   -0.3260681947
 H   -0.3740808258    1.9212639259   -0.9676160016
 H   -0.0658524578    2.1058568026    0.7683980327
 H   -1.1626265843   -0.1108633933    0.2608351755
 H    0.1794007326   -0.5305742378   -0.8005326352
 H    2.4864573033   -1.1376286814    0.1428854436
 H    2.8161929870   -0.7515790617    1.8896306253
 H    0.6743196981   -2.7593505479    0.8039020371
 H    0.1026857325   -3.1684373945    3.2073576178
 H    1.3437319071   -1.9827217471    5.0617336556
 H    2.3885109357   -1.1266102455    3.8412329729
 H   -0.6923827040   -0.7606849255    4.1388355820