16

 C    0.1144718120    1.4101604025    0.2374673202
 N   -0.0746835053    0.0772380195   -0.3380738167
 C   -1.2342851205   -0.6550562381   -0.1386362419
 C   -1.1945196422   -1.9944339368    0.1032886590
 N   -2.3646040904   -2.7258237874    0.1668019486
 C   -3.5550783289   -2.0971177480    0.0360380556
 N   -3.6933796796   -0.8298732192   -0.1649300435
 C   -2.5688567165   -0.0057704216   -0.2922616176
 O   -2.6920338389    1.1843717314   -0.5293339705
 H    1.0298679407    1.8358910089   -0.1820680674
 H   -0.7339589151    2.0345676577   -0.0326128579
 H    0.2104180442    1.3921464308    1.3340691764
 H    0.7556213058   -0.4946929152   -0.2551571738
 H   -0.2745583923   -2.5528349954    0.2287395013
 H   -2.3300636824   -3.7201761261    0.3220158741
 H   -4.4320578407   -2.7381178731    0.1074025542