19

 C    0.1463525373    1.5002158713   -0.1539999535
 C    1.3321768765    0.5877004343    0.1375513688
 C   -0.0416981870    0.0252232265   -0.0203503086
 O   -0.7480246730   -0.5393438380    1.0855125256
 C   -1.3199926644   -1.5553805771    0.2323770187
 C   -0.5906848548   -1.0025026496   -1.0039728205
 C   -1.3156268365   -0.6340528175   -2.3102503666
 O   -0.4354709465   -1.4673077160   -3.0905442315
 C    0.2935155593   -1.8721781348   -1.9147437637
 H   -0.2261451433    2.1136992603    0.6592426383
 H    0.0738943051    1.9531957421   -1.1376984439
 H    2.0619579333    0.4233491445   -0.6489033794
 H    1.7398162431    0.6008423526    1.1426071527
 H   -1.0220570049   -2.5650061315    0.5412959849
 H   -2.4147933922   -1.4934947332    0.1989186656
 H   -2.3616954704   -0.9623388722   -2.3734408131
 H   -1.2553453128    0.4218055272   -2.6035894427
 H    1.3513875568   -1.5838941981   -1.9628876013
 H    0.2266196545   -2.9538677007   -1.7372699496