17

 C   -0.1225743092    1.4080422250    0.1541076792
 N    0.1870502822   -0.0013475577   -0.0250035369
 C    0.7063041959   -0.7430923879    0.9963738514
 N    0.6865518033   -2.0383567768    1.1192525553
 C    1.4144630843   -2.2666522824    2.2872706974
 C    1.6405854203   -3.6495732462    2.7949291697
 O    2.3665884233   -3.5672920462    4.0101983248
 C    1.8247381695   -1.0932335817    2.8090362967
 O    1.3637630840   -0.0828942815    1.9723068056
 H    0.7665123471    1.9354392091    0.5055303422
 H   -0.4090017157    1.8272526507   -0.8126464184
 H   -0.9349699090    1.5890541588    0.8725017159
 H   -0.4508875028   -0.5362050041   -0.5939779092
 H    0.6665566503   -4.1469292198    2.9326688790
 H    2.1852469873   -4.2301131240    2.0325027265
 H    2.5374623069   -4.4619462359    4.3160236943
 H    2.3821009923   -0.7886041195    3.6743297763