21

 C   -0.1150843008    1.6435766920    0.1734241559
 C    0.0127002042    0.1291419963    0.1115008042
 C    1.1426826339   -0.5857067439   -0.6984780486
 C    2.1429162469   -0.1651540493    0.4159860754
 C    0.8672829920   -0.6674814943    1.1710702160
 C    0.6512272835   -0.7315877370    2.5873575573
 C    0.4546209333   -0.7875018422    3.7737681066
 C    0.8784406414   -1.8721488185    0.1523438550
 C   -0.3277217257   -2.7757616030   -0.0469041588
 H    0.8369390663    2.1658562856    0.2907664872
 H   -0.5860871566    2.0179156778   -0.7423827625
 H   -0.7570168826    1.9325569753    1.0127600226
 H   -0.9810131597   -0.2970202847   -0.0409975372
 H    1.3076731619   -0.5382773793   -1.7756487168
 H    3.0349240561   -0.7862301531    0.5304802729
 H    2.3891371726    0.8915606234    0.5101717403
 H    0.2849785363   -0.8364323951    4.8206607212
 H    1.7758178142   -2.4901474583    0.2689037640
 H   -1.2678428209   -2.2403158033   -0.1965479848
 H   -0.1723982102   -3.4202308026   -0.9191986164
 H   -0.4544231160   -3.4277317856    0.8241197867