23

 C   -0.3232949357    1.3843542079   -0.0657411498
 C   -0.1721297598   -0.1333927154   -0.1871046110
 C    0.9234371990   -0.5499107463   -1.1706899841
 C    1.0690227601   -2.0892812711   -1.3439631483
 C    0.7435321134   -2.3463006693   -2.8051218032
 C   -0.6391552632   -1.9391215131   -3.2940057601
 C    0.5385087316   -1.0058145285   -3.4459087343
 C    1.0671157786   -0.5820111586   -4.7876971274
 O    0.6639247798    0.0038727837   -2.4726424131
 H    0.6028614471    1.8447977078    0.2968223254
 H   -0.5547373330    1.8234861299   -1.0394305627
 H   -1.1232193874    1.6486170681    0.6325285881
 H    0.0711353587   -0.5686323198    0.7913523286
 H   -1.1238323761   -0.5821343923   -0.4989535151
 H    1.8731411309   -0.1140182039   -0.8282436877
 H    2.0912036143   -2.4105908153   -1.1227865634
 H    0.4046081644   -2.6283215867   -0.6597548582
 H    1.2614606715   -3.1464468911   -3.3220816887
 H   -1.0144880590   -2.4324828254   -4.1850260891
 H   -1.3996813345   -1.6937589526   -2.5602519695
 H    0.9597246183   -1.3895885691   -5.5173203116
 H    0.5181115438    0.2885868422   -5.1617222426
 H    2.1257150973   -0.3107813912   -4.7197957123