21

 C    0.0685722597    1.5047899321    0.0783820406
 C   -0.0773876244   -0.0071036759   -0.1370804932
 C    0.6788484995   -0.5109856570   -1.3449626645
 C    0.1252164878   -0.3297790967   -2.8171655433
 C    1.1342908697   -1.4446603650   -3.1093047212
 C    2.3664818171   -1.0498870647   -3.4891767901
 C    3.2689161265   -0.9523321292   -2.2633811968
 C    2.1874651656   -0.9970344991   -1.1653107268
 C    1.1203828384   -1.9158688392   -1.6433537055
 H    1.1175392970    1.7781273141    0.2316264349
 H   -0.2959145141    2.0649444527   -0.7892209786
 H   -0.5000393888    1.8369820359    0.9525970639
 H    0.2664656307   -0.5427061517    0.7564959495
 H   -1.1400066978   -0.2604077070   -0.2533632390
 H   -0.9372025374   -0.6052714913   -2.8147557243
 H    0.2654213867    0.6167972539   -3.3483782338
 H    2.5205547351   -0.3763545815   -4.3281827521
 H    4.0086726815   -1.7506912028   -2.1029167617
 H    3.8279332006   -0.0098645439   -2.3179794009
 H    2.4888334130   -1.0088437802   -0.1189590624
 H    0.7782606640   -2.8613092937   -1.2406595447