15

 O   -0.0651225211   -0.0365307970   -0.2161667395
 C    0.0148468926    1.1452328315    0.0071769758
 C    1.3209711667    1.8969393850   -0.0065989198
 C    1.2296904314    3.2769977009   -0.7235656512
 O    0.5417229581    3.8019122960    0.4656480269
 C    1.4651193404    2.9028119522    1.1742464165
 C    2.8204288703    3.6049414174    0.8943935292
 O    3.6436191475    2.9574438339   -0.0856565473
 C    2.6438467638    3.8856420384   -0.5287558862
 H   -0.8801863258    1.7576744804    0.2391710828
 H    2.1519371116    1.2361105041   -0.2399855753
 H    0.6957570328    3.4448280099   -1.6575562048
 H    1.1742765734    2.6841004546    2.2004833348
 H    3.3158648967    4.2418656505    1.6174527066
 H    2.9842247515    4.7690818321   -1.0556471586