18

 C    0.9427770905    1.5336566517   -0.0265950380
 N    1.0554550001    0.1052350989   -0.2429925139
 C    0.1646039831   -0.5976027036   -1.0014579032
 O   -0.7877158540   -0.0751254339   -1.5630289304
 C    0.4669279185   -2.0699576116   -1.0829221399
 C   -0.6556918058   -2.9896583091   -1.4470385456
 N    0.4475645645   -2.7954474763   -2.3623125434
 C    0.1998290038   -2.0801369060   -3.6134047895
 H    1.7943933783    2.0734256508   -0.4563554926
 H    0.0283606757    1.8646188656   -0.5200297355
 H    0.8819685254    1.7694266598    1.0415100187
 H    1.8321377618   -0.3867115329    0.1658079152
 H    1.2403870252   -2.4255711261   -0.4032700863
 H   -0.7239023380   -3.9663552120   -0.9743252411
 H   -1.6005152371   -2.4979152674   -1.6700304530
 H   -0.5285140013   -1.2668422806   -3.5272155572
 H    1.1473774314   -1.6698076271   -3.9775428896
 H   -0.1545475122   -2.8103621402   -4.3475654148