17

 O   -0.0366155879    1.4017320754   -0.3301281892
 C    0.0413619423    0.0402364970    0.0776295567
 C   -1.3710289739   -0.4995365862    0.0786685905
 C   -2.0126682126   -0.8516318986   -1.2955927757
 O   -1.0925614711   -2.0163468952   -1.3970353566
 C   -1.5744111641   -2.0399875854    0.0083212400
 C   -2.9847905699   -1.7688098130   -0.5394591188
 C   -4.3522124817   -1.7334344686   -0.0448176068
 O   -3.9009106527   -2.6764905788   -1.0535788047
 H    0.8594051370    1.7426161840   -0.4046079978
 H    0.6578531741   -0.5563709533   -0.6050360868
 H    0.4649533613   -0.0458267995    1.0914659366
 H   -2.0146183374    0.0434848847    0.7775944319
 H   -2.1525448105   -0.2331751738   -2.1800194766
 H   -1.2048052228   -2.8313879746    0.6597547401
 H   -4.5987881071   -2.1752964874    0.9189970594
 H   -5.0456189330   -0.9746142266   -0.4028399924