18

 C   -0.2229297148    1.5888230470    0.0166362294
 C    0.0404298130    0.0730336299   -0.0153320982
 C    0.9118572633   -0.4052710263   -1.1646301753
 C    1.8816448294   -1.2335725003   -0.7615507201
 C    1.9108477433   -1.3792679502    0.7230511865
 C    2.2043427926   -0.0890485460    1.4638384509
 O    2.8381579006    1.0013572226    0.8676252946
 C    0.7672724487   -0.4766005683    1.2192118813
 H    0.7078479575    2.1456900874    0.1435320167
 H   -0.7108993656    1.9212765793   -0.9059642858
 H   -0.8828609524    1.8443018904    0.8515946990
 H   -0.9357642257   -0.4284421531   -0.1005466433
 H    0.7302194349   -0.1016498498   -2.1905181031
 H    2.6003137554   -1.7211702209   -1.4113031793
 H    2.1665621372   -2.3319449705    1.1741725286
 H    2.5519221754   -0.1995442040    2.4864051910
 H    2.7831456195    0.8774294247   -0.0892686843
 H    0.1705423977   -0.7575923619    2.0801499412