18

 O    0.2709041758    1.2919895641   -0.3361792223
 C    0.0782123822   -0.0724404150   -0.0183028513
 C    0.7017215885   -0.5069874312    1.3454403723
 C   -0.4809607196   -0.8759440994    2.2586054915
 C   -1.5314179498   -1.4164856111    1.2691808544
 O   -2.8364393769   -1.5605317137    1.7733308944
 C   -1.4356807993   -0.4284866621    0.0926911741
 O   -2.1873692951    0.7300271508    0.4910356954
 H   -0.3376211473    1.7792073404    0.2342825594
 H    0.5336854035   -0.6305324465   -0.8413761316
 H    1.3516797947   -1.3757069888    1.1944792204
 H    1.3272182904    0.2964978974    1.7412698790
 H   -0.2296211944   -1.5999232759    3.0369685621
 H   -0.8894144432    0.0137725076    2.7517474660
 H   -1.2186239162   -2.4077568346    0.9170884525
 H   -3.2134845064   -0.6711616601    1.7700960796
 H   -1.8500548366   -0.8357122683   -0.8347642873
 H   -2.4892851802    1.1773391563   -0.3042520986