22

 N    0.1717050784    1.1150935529    0.6744374545
 C   -0.0091381838    0.1107576933   -0.2325375414
 O    0.8334388014   -0.1679723828   -1.0660345451
 C   -1.3357117553   -0.6407705415   -0.1327717975
 C   -2.1193828870   -0.4861148549   -1.4524300508
 C   -3.4103668632   -1.3155409794   -1.4517225902
 C   -3.1303281792   -2.7946402037   -1.1532833737
 C   -2.3588603274   -2.9569182249    0.1634224494
 C   -1.0661896089   -2.1301229944    0.1652636316
 H    1.0307449930    1.6397739342    0.6431815258
 H   -0.5203553878    1.3547094269    1.3611147152
 H   -1.9392794957   -0.2224466439    0.6854604732
 H   -2.3470219089    0.5717904055   -1.6291104216
 H   -1.4633916704   -0.8067846692   -2.2700476904
 H   -4.0998765086   -0.9178921036   -0.6934021389
 H   -3.9185005833   -1.2101087713   -2.4169465070
 H   -4.0685984625   -3.3595866676   -1.1165582402
 H   -2.5386472868   -3.2230090372   -1.9738162380
 H   -2.9981634456   -2.6375807407    0.9988346679
 H   -2.1232877981   -4.0124246335    0.3405896462
 H   -0.3759858650   -2.5043267485   -0.5997565593
 H   -0.5517896251   -2.2304617957    1.1283299802