21

 C   -0.2973746313    1.7941696259   -0.4312935678
 O   -0.0736067472    0.3937502353   -0.5171770706
 C   -1.1339723532   -0.4299939396   -0.0887790295
 C   -2.4140014384   -0.2623504958   -0.9100852183
 C   -0.6692055033   -1.9104888330    0.0622888668
 C   -1.2638728271   -1.9857211086    1.5047716008
 C   -0.4483547959   -2.5882199324    2.6412717053
 C   -1.3800261253   -0.4538639511    1.4497513865
 O   -1.4438039991    0.3988054969    2.2910058673
 H    0.6605534187    2.2702698768   -0.6537717725
 H   -1.0356856454    2.1415284255   -1.1671831729
 H   -0.6232832529    2.0895241625    0.5716830823
 H   -2.1901721741   -0.4124039291   -1.9714141788
 H   -3.1671040821   -0.9974893796   -0.6101313298
 H   -2.8522450582    0.7309315860   -0.7801875565
 H   -1.0652950895   -2.6140370178   -0.6714362549
 H    0.4218309249   -1.9575418079    0.0667631893
 H   -2.2701698361   -2.4234730267    1.4858337354
 H    0.5601988408   -2.1635395202    2.6658801019
 H   -0.9216770664   -2.3803867228    3.6054487787
 H   -0.3575986189   -3.6733300446    2.5309993871