23

 C    0.0456437102    1.6512818604    0.1272827388
 C    0.0174245210    0.1288060915    0.0235430180
 C   -1.4042606655   -0.4487939879   -0.0065347031
 C   -2.2673867875    0.0211330547   -1.1827312637
 C   -3.6118190722   -0.6926140339   -1.2432406171
 O   -4.3354256910   -0.1673919710   -2.3457170290
 C    0.9684354239   -0.4831814569   -1.0415539484
 O    1.7044683756   -1.2136737807   -0.0414149924
 C    0.9444222001   -0.6122612642    1.0241582682
 H    1.0740956274    2.0175076140    0.2083098203
 H   -0.4052828635    2.1248102994   -0.7504268550
 H   -0.5033563186    1.9967598868    1.0111441748
 H   -1.3280811307   -1.5444423040   -0.0310479507
 H   -1.9061260832   -0.1996929634    0.9393487645
 H   -2.4584080427    1.0978668346   -1.1202659393
 H   -1.7451938660   -0.1496636038   -2.1325242699
 H   -3.4522518472   -1.7782087414   -1.3509255246
 H   -4.1574814756   -0.5378624798   -0.2974529916
 H   -5.1821384849   -0.6204566288   -2.3938233646
 H    0.5056132211   -1.1510047031   -1.7792529727
 H    1.6022635271    0.2420944423   -1.5695003326
 H    1.5644745211    0.0411111169    1.6532453612
 H    0.4618111911   -1.3645424719    1.6615824690