12

 O   -0.0265605400   -0.0637433590    0.0035895829
 C   -0.0411593670    1.1450898199    0.0097058348
 C   -1.2661848617    1.9532067518    0.0312124138
 C   -1.1827885659    3.2879014455    0.0366172789
 O    0.0049959746    3.9452491366    0.0228160840
 C    1.1319902446    3.1657795058    0.0026850501
 N    1.1710443608    1.8904861954   -0.0039575852
 C    2.3130038136    3.9659278326   -0.0097285451
 C    3.3123943886    4.6324726889   -0.0203053294
 H   -2.2265046562    1.4550027351    0.0425215315
 H   -2.0148392385    3.9806218320    0.0519800266
 H    4.2031802270    5.2125548656   -0.0298496429