20

 C   -0.1557320821    1.5611245591   -0.0491067380
 C    0.0352874199    0.0506128714   -0.0125502622
 C    1.2166629370   -0.6576852141   -0.7540497417
 C    2.1540813958   -0.1620052147    0.3818825415
 C    0.8717185286   -0.6554681042    1.1196705869
 C    0.5908249247   -0.6639500932    2.5982897968
 C    0.9611332432   -1.8945007468    0.1614985910
 O   -0.1174056279   -2.7666861217   -0.0272358164
 H    0.7680500065    2.1236903833    0.1042662605
 H   -0.5715165208    1.8694464641   -1.0148331044
 H   -0.8658186185    1.8751071962    0.7244182717
 H   -0.9468753947   -0.4091245493   -0.1883899361
 H    1.4210146257   -0.6548843328   -1.8259032283
 H    3.0641240705   -0.7456954796    0.5517025264
 H    2.3700540433    0.9047840710    0.4185461073
 H    0.5190949819    0.3524208203    3.0013022370
 H   -0.3530922985   -1.1785689528    2.8103815792
 H    1.3836776661   -1.1857314644    3.1454655709
 H    1.8312399657   -2.5363196652    0.3250145964
 H   -0.9078708963   -2.2594770566   -0.2368721985