19

 C   -0.0205551282    1.5462311660   -0.0634792476
 C    1.4634545573    2.0264338070    0.0760298984
 C    1.9216912917    0.8952495993    0.9748656458
 O    2.8910845586    0.8017147143    2.0024800922
 C    1.4972253925    0.9373581084    2.3785335716
 C    0.6137421661   -0.2658135544    2.6816443036
 C    0.3546668230   -0.8512849474    1.2925214193
 C    0.0360129998   -0.0026839107    0.0326299586
 C    1.4420738279   -0.4094084712    0.3574544163
 H   -0.6401649679    1.9950951827    0.7203493645
 H   -0.4548293272    1.8383319397   -1.0235413061
 H    1.9671411542    2.0323356857   -0.8965336175
 H    1.5596872485    3.0167532041    0.5272371516
 H    1.2818034125    1.8877654905    2.8608464272
 H    1.1018858208   -1.0111651307    3.3207623105
 H   -0.2919981472    0.0661273830    3.2023929027
 H   -0.0192481255   -1.8701015110    1.2329028126
 H   -0.5251588355   -0.5520990769   -0.7156639126
 H    2.0919892388   -1.0476354882   -0.2289316211