14

 C   -0.0097220057    1.5505931122   -0.0038933884
 O    1.3895548463    1.8992144317    0.0327358984
 C    2.0642959221    0.6357634089    0.0243000631
 O    1.2421309492   -0.2080197203   -0.7447231414
 C    0.0492502349    0.0013719086    0.0196490835
 C    0.5042941946   -0.3578958787    1.4439520128
 O    1.5649083267   -1.3077134426    1.4966058805
 C    1.9022960413    0.0797084161    1.4515669977
 H   -0.5282270795    1.9799514240    0.8600315019
 H   -0.4575864489    1.9299667863   -0.9277401416
 H    3.0566439498    0.7376573943   -0.4104161567
 H   -0.7893067091   -0.5372981825   -0.4163835564
 H   -0.1655640051   -0.2983157771    2.2952679554
 H    2.4177265933    0.5108471591    2.3020791912