14

 C   -0.0350691193    1.5296027584    0.0278204665
 C   -0.0101148855    0.0287623628    0.0165785731
 N   -0.0403413880   -0.5517551014   -1.1326221885
 O   -0.0185411956   -1.9164986067   -1.1658429937
 C    0.0359991480   -2.7156216710    0.0140662394
 O    0.0495389362   -3.8966823229   -0.1655625395
 N    0.0671980726   -2.0728275533    1.2219336490
 C    0.0460171795   -0.7714723210    1.2408577255
 N    0.0766501343   -0.1374122243    2.4300540609
 H    0.8623371517    1.9397430947    0.5061592657
 H   -0.0770265392    1.8954174043   -0.9990088300
 H   -0.9103319794    1.9098310743    0.5679206981
 H    0.1148688696   -0.6984952170    3.2659257245
 H    0.0619408453    0.8625646729    2.5069483988