16

 C   -0.1998189504    1.2654387405   -0.3541263688
 C    1.2213267406    1.0527598971    0.0397050590
 N    0.2663079957   -0.0457016664    0.0913709829
 C   -0.1521103971   -0.5182511353    1.3523060537
 C    0.6449009828   -0.7787428190    2.4481974841
 N   -0.1632660614   -1.3134048666    3.4275117627
 C   -1.4531229048   -1.3875694026    2.9781343479
 C   -1.4828078816   -0.9050795782    1.6904017159
 H   -0.8234545467    1.8368819086    0.3297748019
 H   -0.4778994017    1.3329445974   -1.4019502917
 H    1.9979070568    0.9684480116   -0.7151205829
 H    1.5398934321    1.4875415863    0.9850965389
 H    1.7044422168   -0.6533742806    2.5965549464
 H    0.1491698589   -1.5938346230    4.3393896325
 H   -2.2405854543   -1.7729722821    3.6056173140
 H   -2.3489879256   -0.8362196077    1.0509243134