22

 C   -1.6803666497   -0.3405907956   -0.0502014429
 C   -0.1715697288   -0.0991212790    0.1069768740
 C    0.6550115189   -0.6054020887   -1.0677977493
 C    0.6184419141    0.1689481483   -2.3511397762
 N    1.8432959304    0.1077960224   -1.5711887473
 C    2.3257719266    1.3236480744   -0.9382285815
 C    0.8859567360   -2.0914346964   -1.1788600461
 C    1.0624615968   -2.9916044934   -0.0313924372
 O   -0.1527139716   -2.9934430056   -0.7866985131
 H   -2.0648850773    0.1683744628   -0.9402541654
 H   -1.8961040936   -1.4055135180   -0.1487850796
 H   -2.2231640752    0.0472279177    0.8178379970
 H    0.0057835908    0.9731234737    0.2300841634
 H    0.1810645560   -0.5671966363    1.0336649668
 H    0.6290094728   -0.3376394596   -3.3141744371
 H    0.0551479146    1.1025846823   -2.3387416944
 H    1.5421347226    2.0491800473   -0.6705422113
 H    2.8847876596    1.0692754369   -0.0320076433
 H    3.0132885749    1.8211281112   -1.6301659196
 H    1.3932527826   -2.3700786195   -2.1030969837
 H    1.6820850685   -3.8804649472   -0.1428458354
 H    0.9790325211   -2.6152090377    0.9860595521