10

 C    0.1299303061   -1.1959790277   -0.0058788332
 C    0.0498251848    0.0035688548    0.0018714117
 C   -0.0455332052    1.4054372427    0.0110137337
 C   -1.1482935071    2.2239589646    0.0319011338
 O   -0.7432147813    3.4967696942    0.0324285478
 N    0.6833661778    3.4555450235    0.0119998981
 N    1.0486148859    2.2582552457    0.0002184217
 C   -2.5288251402    1.9330538413    0.0503686486
 N   -3.6568064774    1.6755504372    0.0652637466
 H    0.1973646765   -2.2568985363   -0.0128714788