16

 O   -0.0085330642    0.0665487428    0.1544331360
 C   -0.0254012358    1.2647167742    0.0512332559
 C   -1.2117424958    2.1718118198   -0.0188667122
 C   -0.9910508610    3.4783532744    0.6918857086
 C    0.2109122675    3.6470823927    1.6004233988
 O    1.3225879703    2.8377776243    1.2223697363
 C    1.1718749524    2.2368784267   -0.0668941123
 C    0.6425105374    3.2437551490   -1.0833344877
 N   -0.8045834508    3.4119007255   -0.7511949765
 H   -2.2038633332    1.7729248787   -0.1931202279
 H   -1.8755893598    4.0303422424    1.0033809338
 H    0.5153775649    4.7047371206    1.5977357066
 H   -0.0636017701    3.3894624368    2.6305731031
 H    2.1132371094    1.7467515456   -0.3095480960
 H    1.1531629572    4.2093084665   -1.0368635990
 H    0.7126198317    2.8560774201   -2.1044688774