19

 O   -0.0171500260   -0.0495987573   -0.0628882883
 C   -0.0731975125    1.1430428332    0.0134395308
 C   -1.3154458596    2.0277553642    0.0962201020
 C   -0.7793284289    3.3966938519    0.5100626515
 C   -0.7611761477    3.6912522030    2.0227965676
 C    0.4574857067    4.6109427070    2.1983346021
 C    1.5204558623    3.9967493737    1.2617742146
 C    0.7242181268    3.3282446345    0.1207929097
 O    1.0416217945    1.9239153506    0.0280020904
 H   -1.7841864527    2.0395506457   -0.8938036858
 H   -2.0360568851    1.5903515863    0.7902558963
 H   -1.2730226070    4.2158794729   -0.0191913053
 H   -1.6968520227    4.1322852591    2.3768609360
 H   -0.6082080305    2.7588860037    2.5815613713
 H    0.2050220765    5.6266702397    1.8708470695
 H    0.7983713082    4.6824389968    3.2344179088
 H    2.2382411325    4.7330379160    0.8926324609
 H    2.0888310729    3.2159822129    1.7754340546
 H    0.9340054320    3.7697314261   -0.8579498767