21

 C   -0.0414579346    1.5137215432    0.0439210042
 C   -0.0210224591   -0.0019110326    0.0113971928
 C   -0.8643566107   -0.7552043020    1.0118860000
 C    0.6402178799   -0.7425337347    1.1553909296
 C    1.4868968572   -1.9696901831    0.8083940018
 C    2.3153516655   -1.7420110222   -0.4526022774
 O    1.9173950854   -2.4578895467   -1.6285171867
 C    1.6605518017   -1.0484484394   -1.5722948652
 C    0.2088991438   -0.6231313778   -1.3754745538
 H    0.8841996066    1.9350886192   -0.3668728972
 H   -0.8758414101    1.9118678782   -0.5461224656
 H   -0.1493774745    1.8885266129    1.0668116012
 H   -1.4539097155   -0.1839297040    1.7222586813
 H   -1.3319931336   -1.6826895148    0.6930766425
 H    1.0376269707   -0.1232814175    1.9545217802
 H    2.1396872141   -2.2228344200    1.6484679367
 H    0.8498027697   -2.8424810800    0.6318847406
 H    3.3948657399   -1.6575681151   -0.3327781780
 H    2.2661276004   -0.4637183123   -2.2636252929
 H   -0.4137234196   -1.5129920907   -1.5096518222
 H   -0.0864467973    0.0883895993   -2.1526646122