21

 O    0.1966171022    1.4758818667    0.2016861236
 C    0.1681729587    0.0532349129    0.1550834061
 C    0.5532765275   -0.5620439945    1.5240111451
 C   -0.7932878686   -0.8356402097    2.1538759204
 C   -1.7740114180   -0.7848837808    1.2511103916
 C   -1.2617763699   -0.4760731066   -0.1338299224
 C   -2.1935538449    0.3765063893   -1.0486753475
 C   -2.6697348673   -0.9215585195   -1.7505826281
 C   -1.4445932148   -1.6589926042   -1.1514117975
 H   -0.4135442224    1.7508223961    0.8960789004
 H    0.8697328435   -0.2130117931   -0.6401307905
 H    1.1273795033   -1.4916339065    1.4066657227
 H    1.1850610338    0.1296511148    2.0915743762
 H   -0.9187933905   -1.0778111715    3.2035886288
 H   -2.8231831018   -0.9772758461    1.4529773643
 H   -2.9501787515    0.9899271743   -0.5514061511
 H   -1.6065052379    1.0214724056   -1.7065544181
 H   -3.6123208787   -1.2931531902   -1.3389123923
 H   -2.7583085893   -0.8990731503   -2.8391593347
 H   -0.6079601959   -1.7086902325   -1.8555224695
 H   -1.6059810476   -2.6543054141   -0.7299342477