19

 C    0.0975729430    1.5457491355   -0.0455007550
 C    0.0218441695    0.0545829369   -0.0197858445
 C   -1.0266139675   -0.7355986791    0.2000655187
 C   -0.6287835748   -2.1752707181    0.1285915277
 C   -1.0674720966   -3.1203633879    1.2815990678
 O   -1.9992776965   -3.8022065420    0.4200721972
 C   -1.4823700730   -3.1343082402   -0.7470261737
 O    0.7600412046   -2.1582197966   -0.1555749054
 C    1.2280022426   -0.8174699714   -0.2604728148
 H    0.8058781389    1.9191424996    0.7046475061
 H    0.4537332266    1.9073175168   -1.0182585427
 H   -0.8764518417    2.0004751742    0.1504619899
 H   -2.0428303085   -0.4224741934    0.4057441642
 H   -0.2492216777   -3.7710335899    1.6162729200
 H   -1.5593215710   -2.6643056582    2.1485680783
 H   -2.2763311647   -2.6884058391   -1.3572201830
 H   -0.8594587480   -3.7915438778   -1.3674573033
 H    1.6697456207   -0.6511923626   -1.2558002313
 H    2.0245781141   -0.6392890167    0.4792444838