15

 C    0.1512147311    1.5222246032   -0.1461671387
 O    1.5409718526    1.4569472288    0.2434401661
 C    1.4868806827    0.0257524100    0.4356069461
 C   -0.0334037900   -0.0026112445    0.0214649481
 N    0.4113783984   -0.8025427534   -1.1224289906
 N    0.0962395957   -1.1781308635   -2.3678254004
 C    1.3084151871   -1.4626100736   -2.8757493464
 C    2.3856691837   -1.2023245860   -1.9834942909
 C    1.7343807663   -0.7675737337   -0.8452448315
 H   -0.4274314587    2.1128069893    0.5724500836
 H    0.0057720411    1.9117052546   -1.1582955944
 H    1.9086321453   -0.2928970054    1.3881395933
 H   -0.8697957403   -0.3937518357    0.5972354536
 H    1.3747273807   -1.8685264730   -3.8754909273
 H    3.4381248840   -1.3326341871   -2.1702575205