14

 O    0.0621861470    1.3244643997    0.0027822741
 C    0.0662433806   -0.0288542767   -0.0362448645
 C   -0.0374792221   -0.6806745715   -1.2609753225
 C   -0.0295340075   -2.0734568322   -1.2592738640
 C    0.0792808682   -2.7644652825   -0.0610614071
 O    0.0895935556   -4.1274388494   -0.0278783015
 C    0.1771740577   -1.9970426896    1.1043367588
 O    0.2841234660   -2.6726205588    2.2794168952
 N    0.1718102367   -0.6745212658    1.1264499400
 H    0.1423656468    1.5704353707    0.9332117635
 H   -0.1208313956   -0.1097388515   -2.1760467498
 H   -0.1073594370   -2.6349551431   -2.1835569474
 H    0.1735277111   -4.3969372536    0.8945810856
 H    0.3423007725   -2.0110408759    2.9804400295