23

 C   -0.0707065908    1.5505014902    0.2014589769
 C   -0.1746330335    0.0220725737    0.2002536473
 C   -1.5569505708   -0.5269744279   -0.2046146755
 C   -1.9592109307   -0.1629395159   -1.6419699066
 C   -1.5944088545   -2.0371242406   -0.0328922921
 C   -1.8407658176   -2.6935631272    1.3050678557
 O   -2.1410460457   -1.8245835124    2.3739669120
 C   -2.8956247584   -2.7771104235    0.2250317218
 O   -4.0771583599   -2.0601229745    0.4267161103
 H    0.9095579175    1.8742062916    0.5657897930
 H   -0.2031508501    1.9733149694   -0.7990716666
 H   -0.8298079317    1.9967268923    0.8540894276
 H    0.5883291884   -0.3967959285   -0.4712084109
 H    0.0592753019   -0.3528987533    1.2033309764
 H   -2.2973188280   -0.0861128377    0.4719356389
 H   -2.9503219031   -0.5644803480   -1.8703770105
 H   -1.9926722735    0.9200282348   -1.7916637528
 H   -1.2480027430   -0.5784008897   -2.3665438212
 H   -0.8811671842   -2.5686360937   -0.6611476039
 H   -1.2560571184   -3.5682864047    1.5826025702
 H   -2.5448764620   -2.3503383437    3.0733328618
 H   -3.0803847117   -3.7192771564   -0.2823213898
 H   -3.9584239400   -1.5802097745    1.2582189578