18

 O   -0.0592333253    1.3895075197    0.0933371364
 C    0.0141466659   -0.0083952329   -0.0158847186
 C   -0.4898548673   -0.6237448875   -1.2947519818
 C   -1.3162678047   -0.7028768403   -0.0192824699
 C   -1.4564439169   -2.0297940258    0.7254525071
 O   -0.4074200437   -2.2933658252    1.6430996688
 C    0.8696619582   -2.1275059328    1.0618014043
 C    1.1451678731   -0.6477122742    0.7680664348
 H    0.6984440820    1.7604152129   -0.3732135673
 H   -0.8267140160    0.0611267800   -2.0646968575
 H   -0.0327811770   -1.5383137231   -1.6627403367
 H   -2.1777013598   -0.0455669902    0.0224276367
 H   -2.3724945729   -2.0290342760    1.3221431282
 H   -1.5302667404   -2.8601385916    0.0026883891
 H    1.5942929833   -2.5136275486    1.7842150461
 H    0.9598478897   -2.7359540459    0.1452012427
 H    2.1038390612   -0.5390605586    0.2426618284
 H    1.2257206104   -0.1116446300    1.7199372193