16

 O   -0.0140224685    0.0012625254    0.1596744232
 C    0.0268917057    1.2073448812    0.0512771545
 C    1.2643982681    1.9810545668   -0.0283579110
 C    1.3777297421    3.3184801361   -0.0837925038
 C    2.8377365393    3.6632060339   -0.0356138209
 C    3.3659767959    3.3404935096    1.4068434363
 C    3.6887151036    1.9615286235    0.8622425185
 C    2.6356287268    1.3987594634   -0.0531652077
 N    3.5765114611    2.4229318202   -0.5696858032
 H   -0.9028006384    1.8153307349   -0.0040896444
 H    0.5708570725    4.0398723766   -0.0279085427
 H    3.1451994065    4.6030190124   -0.4901399330
 H    4.2860210471    3.8930545618    1.6067709436
 H    2.6791460316    3.4454125669    2.2517593446
 H    4.5101655633    1.3366989960    1.1988668283
 H    2.7854154533    0.3897832314   -0.4195488521