16

 C   -0.4843068994    1.4765426245    0.0622813636
 C    0.0145139113    0.0407303951   -0.0032454567
 C    1.3068386865   -0.2772509020   -0.8294135022
 C    1.9464837563   -0.9051573813    0.4235626351
 O    2.7162956225    0.0781066420    1.1887747129
 C    1.6336587546    0.3713502504    1.9924540992
 O    1.5958239307    1.1407802393    2.8977934613
 C    0.6910006252   -0.5848711196    1.2700465706
 H    0.3048814882    2.1641300067    0.3821288731
 H   -0.8371324849    1.8043136990   -0.9213483919
 H   -1.3158291396    1.5748545807    0.7677691092
 H   -0.7990054629   -0.6182091636   -0.3189384791
 H    1.1449248663   -0.9810386206   -1.6487922758
 H    1.8586136194    0.5869780258   -1.2061597531
 H    2.4624516916   -1.8624466671    0.3810518765
 H    0.1238292040   -1.2853118493    1.8795596971