16

 C   -0.0682737097    1.5574109844   -0.0000703604
 C    0.0433919547    0.0307618169   -0.0121529302
 N    0.8076039272   -0.4703506719   -1.1636740136
 C    1.7686812456   -1.1644442305   -0.6991592263
 N    1.8294836514   -1.2582195742    0.7018450341
 C    2.7730451970   -1.9376494275    1.4641932024
 N    3.7153772322   -2.5828510388    0.9131177535
 C    0.7583320902   -0.5128713192    1.2303106242
 O    0.5160708961   -0.3640943466    2.4009671452
 H    0.9239560834    2.0173930643   -0.0020935667
 H   -0.6074725833    1.8983451006   -0.8863064071
 H   -0.6021308254    1.8814621303    0.8968212395
 H   -0.9646558356   -0.4022574751   -0.0457634464
 H    2.5243296555   -1.6752952294   -1.2822806055
 H    2.5715311376   -1.8251249842    2.5328116376
 H    4.3087562031   -3.0169761589    1.6174782897