17

 C    0.0029067146    1.4772832148   -0.0486744021
 C   -0.0037684451   -0.0206190448   -0.0128144895
 N    0.7122203572   -0.8939888914   -1.0236599411
 C    0.0612831809   -1.8684622807   -0.0724651225
 C    0.6051586750   -0.9688134394    1.0612305285
 O   -0.0387527777   -1.0289908658    2.3263252579
 C   -1.3890728417   -1.0749122573    2.2421978241
 N   -2.0601244083   -1.0657181893    1.1676474789
 C   -1.2328363641   -1.0002695142   -0.0214010527
 H    1.0284318181    1.8596250575   -0.0438727636
 H   -0.5012554306    1.8520947471   -0.9457838002
 H   -0.5211076500    1.8805498219    0.8237369429
 H    0.1773535906   -0.8865016634   -1.8985905105
 H    0.1519153271   -2.9485361266   -0.1779765848
 H    1.6804756032   -0.9362571259    1.2230523648
 H   -1.8488089290   -1.1222314364    3.2254336325
 H   -1.8355892201   -0.9920345961   -0.9333630525