21

 C    0.2292109610    1.0556149949   -0.1824334825
 O   -0.3545519398   -0.0969820541    0.3936535624
 C    0.4755463969   -0.7178063459    1.3236372323
 C    0.1473465795   -2.1245919006    1.6937417849
 C    1.4144273055   -1.8371347302    0.9034207598
 C    1.4326072902   -2.2636168035   -0.5426418855
 O    1.7216683564   -3.6696655675   -0.5811738211
 C    2.7425684459   -1.9842472990    1.6239926637
 O    3.0765034051   -3.3324121127    1.8982460606
 H    1.1463011569    0.8161428638   -0.7398410952
 H   -0.5064330443    1.4806575968   -0.8689206323
 H    0.4769755524    1.8056513501    0.5834970359
 H    0.8384636152   -0.0480094845    2.1059846276
 H    0.2473046200   -2.4335280848    2.7278745451
 H   -0.6739589444   -2.5863668470    1.1569428863
 H    0.4672173095   -2.0502438592   -1.0176383764
 H    2.2118053165   -1.7077694585   -1.0873584535
 H    1.9007626160   -3.9192491984   -1.4927072662
 H    3.5311564464   -1.4917615700    1.0268270063
 H    2.7063527352   -1.4687958749    2.5912080868
 H    2.8585736698   -3.8278374548    1.0971441110