18

 C   -0.2066439210    1.5863822153    0.0229948668
 C    0.0365839846    0.0939068147    0.0353050156
 C   -1.1605887687   -0.8514740253    0.3383408772
 N   -0.2826814195   -1.6464484306    1.2315580831
 C    0.7690664998   -0.5940584043    1.2150896388
 C    2.0382352728   -1.1804424162    0.6077324109
 O    3.0203889646   -1.5747653257    1.1766056819
 C    1.7951753639   -1.1828834988   -0.9040423373
 O    0.7492476006   -0.2591863841   -1.1589640176
 H    0.7431164920    2.1293048867    0.0033855859
 H   -0.7724412035    1.8639410355   -0.8722356148
 H   -0.7743435954    1.9023267143    0.9027349973
 H   -1.9873160819   -0.3388945302    0.8472887444
 H   -1.5538486638   -1.4066611841   -0.5190569713
 H   -0.6509763143   -1.8722504969    2.1466739490
 H    0.9352190425   -0.0287902374    2.1355504272
 H    2.6972963315   -0.8776549843   -1.4437909868
 H    1.5276244355   -2.1999321285   -1.2266155602