19

 N   -0.1434523893   -1.1634127655   -0.2377069208
 C   -0.0575439749   -0.0166795639   -0.1216383198
 C    0.0139900347    1.4334859282    0.0409515354
 C   -0.6452313034    1.9644859779    1.3768206872
 C    0.5108929523    2.8105460011    1.9476933802
 C    1.5966550304    1.8453990620    2.4678694691
 C    2.1779885790    1.2880560727    1.1224468469
 N    1.4101151380    1.9585287531    0.0357519386
 C    1.1773753671    3.2945307429    0.6385107553
 H   -0.4956760552    1.8772090737   -0.8204394232
 H   -1.5294365876    2.5658450095    1.1504855606
 H   -0.9468920646    1.1545443350    2.0439400384
 H    0.1963962282    3.5760270350    2.6580141747
 H    2.3607075290    2.3768389021    3.0424921167
 H    1.1836879602    1.0617033497    3.1085865794
 H    3.2299560697    1.5571990381    1.0002207472
 H    2.0993000492    0.2043271211    1.0263702417
 H    0.5292719202    3.9049159879    0.0024462002
 H    2.1269578368    3.8151672394    0.7867657724