16

 O    0.0715369606    1.4541041371    0.0844447251
 C    0.0045560401    0.0554721559   -0.0356350074
 C   -1.3877572134   -0.5325683102   -0.0501326441
 C   -2.0594359112   -0.4190128069   -1.3711568311
 C   -1.6394126398    0.6108931049   -2.3962359541
 C   -0.1285585207    0.3774247763   -2.5106793520
 O    0.6363809506    0.9048547376   -3.2727121417
 C    0.2126991067   -0.6354913441   -1.4314546773
 N   -1.0263103796   -1.4794943483   -1.1880486114
 H    0.9963354110    1.7205457898    0.1251838963
 H    0.6236567688   -0.4495370878    0.7152088702
 H   -1.9247987565   -0.8775090872    0.8275455190
 H   -3.0689231553   -0.8147609607   -1.4113129055
 H   -2.1202445945    0.4354701323   -3.3641300350
 H   -1.8289711289    1.6471964146   -2.1042341570
 H    1.1291525321   -1.1965833334   -1.5985064638