17

 C   -0.1148104582    1.5107171829   -0.0017760417
 N    0.1350408618    0.0843140390    0.0384776428
 C    0.7526404082   -0.5390842273   -1.1601426613
 C    1.3456070987   -1.9133615643   -0.6937145554
 C    1.5004703403   -1.6418000948    0.7710951546
 N    2.0463478006   -2.1563772164    1.8609708709
 N    1.6465777527   -1.3010690631    2.8091472400
 N    0.8905336705   -0.2454038815    2.4119850613
 C    0.7922132488   -0.4855207307    1.1146907996
 H    0.8043245021    2.0998524805   -0.1621058837
 H   -0.8160108504    1.7401411248   -0.8097629689
 H   -0.5640509225    1.8235436556    0.9434197695
 H    0.0111748175   -0.6472153400   -1.9565204184
 H    1.5641507978    0.1044669953   -1.5378109686
 H    0.6370194511   -2.7293145592   -0.8786210247
 H    2.2713317534   -2.1530381100   -1.2218904376
 H    1.9773780377   -1.3748515705    3.7555441917