18

 O   -0.3231622453    0.2389501602    0.9006328085
 C   -0.2317698750    1.4190218582    0.6378877457
 C    1.1011796738    2.1237565651    0.5147282359
 C    2.0778604154    1.9250626837    1.7053657707
 O    3.1030496484    1.3962240303    0.8453217527
 C    2.2016257349    1.3724653265   -0.2760604912
 N   -1.3444860100    2.2511909366    0.5266332168
 C   -1.7789491374    2.9010860093   -0.6993380821
 C   -2.5876164983    1.8109681843   -0.0567474711
 H    0.9796760261    3.1674440132    0.2251253019
 H    2.3973765686    2.8374643369    2.2203727673
 H    1.7303114485    1.1841691383    2.4345216499
 H    1.9162184953    0.3504934966   -0.5514433334
 H    2.6117739385    1.8957633943   -1.1471506220
 H   -2.0876105226    3.9386503621   -0.6069801091
 H   -1.2517730237    2.6574091343   -1.6188390818
 H   -2.5885999766    0.8297102173   -0.5231816869
 H   -3.4879923505    2.0665608529    0.4938139981