18

 C   -0.0425213085    1.5120876096    0.2248938262
 N    0.1962830307    0.1107366255   -0.0494906334
 C    0.5923012389   -0.6070263719    0.9015931998
 O    0.8724795794   -1.9158540302    0.7056196503
 C    1.1420533975   -2.6893961822    1.8593971562
 C   -0.0796785871   -3.4020191390    2.5186462283
 C    0.7152559165   -4.7151293843    2.4125250917
 O    0.5964080335   -5.7988017142    2.9017777361
 C    1.7780969466   -4.0592274898    1.5154053377
 H    0.5997586062    2.1261078355   -0.4165156636
 H   -1.0783028453    1.7636884159   -0.0291119949
 H    0.1376395681    1.8022456882    1.2731328803
 H    0.7596987233   -0.2568536741    1.9328040866
 H    1.7329984650   -2.1118184059    2.5783076348
 H   -0.3937073951   -3.0917534089    3.5177889815
 H   -0.9467852223   -3.4018658439    1.8495210202
 H    1.6218846853   -4.3073819576    0.4602275463
 H    2.8254158773   -4.2287202827    1.7728494061