20

 C   -0.3335487373    1.5766665833   -0.0265688272
 O   -0.0290827587    0.1884877344    0.0165183965
 C   -1.0925626073   -0.6397262706    0.0260095304
 N   -0.9361519476   -1.8873465415    0.0636857228
 C   -2.1227160735   -2.7165718235    0.0713006018
 C   -2.1652164383   -3.7005043329   -1.1311481895
 C   -2.8016362315   -4.9358630221   -0.5415964605
 C   -2.8193041793   -4.8983604322    0.7898841977
 C   -2.1978481008   -3.6312789437    1.3256437984
 H    0.6226753127    2.1011025339   -0.0290438669
 H   -0.8883120018    1.8395798464   -0.9356970150
 H   -0.9113412812    1.8900018033    0.8517083124
 H   -2.0691389708   -0.1295447549   -0.0015844158
 H   -3.0425413158   -2.1070565443    0.0418999002
 H   -2.7146443248   -3.2853082337   -1.9836601180
 H   -1.1447902997   -3.9050458817   -1.4818895829
 H   -3.1576291106   -5.7591314121   -1.1513085762
 H   -3.1919604113   -5.6862654546    1.4353142946
 H   -1.1872386415   -3.8149926597    1.7142915652
 H   -2.7693848708   -3.1691995739    2.1385811020