16

 N    0.2311126671    1.0647509331    0.6519175586
 C    0.0815689948   -0.1351601943   -0.1466203283
 C   -1.3614646133   -0.6733142321   -0.2398743866
 C   -1.2934963508   -1.4796753772   -1.5573762958
 O   -0.3484279277   -0.7852341260   -2.3883289216
 C    0.4665524630   -0.0040819541   -1.6307260377
 O    1.3289017921    0.6820356414   -2.0965556153
 C   -1.8251870677   -1.4496618808    0.8949863644
 C   -2.2041289338   -2.1164050136    1.8197793340
 H    1.2073764373    1.3482360669    0.6343908258
 H   -0.2798707895    1.8299436943    0.2175868059
 H    0.7207536758   -0.9175541148    0.2833208358
 H   -2.0283897832    0.1863662876   -0.3934119617
 H   -0.9374521382   -2.4992116259   -1.3757401004
 H   -2.2450113203   -1.5214291337   -2.0889655947
 H   -2.5403991057   -2.6932332608    2.6457343375