15

 O    0.1136456890   -0.0420833756    0.2403575630
 C   -0.0102737972    1.1168111455   -0.0492086431
 O   -1.1798177774    1.5832034408   -0.5343276625
 C   -1.3683562045    2.9940912102   -0.7681513090
 C   -0.1338048164    3.7234562030   -1.2740147502
 C    0.9196493562    4.1397937477   -0.2858235535
 O    0.8491931466    3.2761449864    0.8527830374
 C    1.1293625885    2.1226238798    0.0029723672
 C    1.2073067885    3.0146594249   -1.2385268640
 H   -2.1719472376    3.0404463237   -1.5056818331
 H   -1.7230743367    3.4434663146    0.1645687641
 H   -0.2754201580    4.3830041049   -2.1241007963
 H    1.3268169840    5.1340382911   -0.1538321494
 H    2.0471901280    1.6221232014    0.3115846158
 H    1.8788126869    2.9112177316   -2.0780772163