21

 C    0.1814332767    1.6015926322   -0.0606689879
 C    0.0673565667    0.0913799280    0.0696494295
 C    0.8610460179   -0.8335298195   -0.8998328651
 C    1.3004372505   -1.7330022316    0.2890026503
 C    2.7253837213   -1.4590977918    0.8100689389
 C    2.1949371337   -0.2491812488    1.6317404229
 C    0.7136921949   -0.6469897828    1.2902552414
 C   -0.1389339750   -0.9561612531    2.4068279469
 C   -0.8615236718   -1.2154972343    3.3349022625
 H    1.2243575159    1.9344025992   -0.0801724441
 H   -0.2864253334    1.9430931228   -0.9907329932
 H   -0.3194924241    2.1092986139    0.7707816790
 H   -0.9897438800   -0.1917301844    0.0498192089
 H    0.2593920582   -1.3234343276   -1.6682959883
 H    1.7030513992   -0.3376678977   -1.3948626401
 H    0.9372891621   -2.7606171955    0.2803712300
 H    3.0985037937   -2.2602294761    1.4534069388
 H    3.4825668283   -1.2476752958    0.0492513114
 H    2.4181630964   -0.2864407422    2.6986477426
 H    2.4897175937    0.7333506020    1.2566030550
 H   -1.4972061048   -1.4447239468    4.1536258607