18

 C    0.0463868462    1.5668280449   -0.0501420271
 C    0.1947240824    0.0443754486   -0.0644570280
 C    0.5857532035   -0.5231982011    1.3155028326
 C    0.6859081825   -2.0219663820    1.2985888172
 C    1.9124837619   -2.7024361752    1.2943585266
 N    1.9967187061   -4.0267130581    1.2527411071
 N    0.8672864660   -4.7324552564    1.2123216382
 C   -0.2806164912   -4.0567499866    1.2183917234
 N   -0.4407517069   -2.7313788818    1.2601262473
 H    0.9818918650    2.0557560036    0.2432767925
 H   -0.2302177975    1.9435057355   -1.0393609790
 H   -0.7287833804    1.8822975496    0.6565341755
 H   -0.7443418502   -0.4253692495   -0.3769303353
 H    0.9512273989   -0.2502645578   -0.8023596905
 H    1.5391479270   -0.0911311297    1.6395691650
 H   -0.1761541107   -0.2366297860    2.0489360957
 H    2.8574686283   -2.1674887399    1.3294532014
 H   -1.1811330210   -4.6642927680    1.1880888875