14

 C    0.1424825308    1.4425726526    0.0608083462
 C   -0.0613720437   -0.0273401205   -0.0146793713
 C   -1.1658690454   -0.8127543335   -0.1737729014
 C   -0.7107371099   -2.1632916683   -0.1665930852
 C    0.6467117088   -2.1151647017   -0.0030202601
 O    1.0484858526   -0.8041555810    0.0905760239
 C    1.6302592987   -3.1143403001    0.0795041660
 C    2.4651516806   -3.9804664006    0.1489113689
 H    0.8054254277    1.7956188457   -0.7370687936
 H   -0.8164323240    1.9558567691   -0.0364006229
 H    0.5952931178    1.7348360817    1.0149001322
 H   -2.1814411903   -0.4655217374   -0.2827516571
 H   -1.3002889596   -3.0603431226   -0.2681426080
 H    3.2001780159   -4.7441135633    0.2100012623