15

 O    0.0724824641    1.3776742791   -0.0577804294
 C   -0.0089774211    0.0032553673   -0.0021360201
 C   -0.4119387534   -0.8078507416   -1.2012887002
 C   -1.3003790776   -0.7876593600    0.0433837330
 C   -1.0606911351   -1.9250646973    0.9931359977
 O   -1.8294057871   -2.7579650786    1.3976351518
 N    0.2946159970   -1.8486466996    1.3645536842
 C    0.9194538542   -0.6774579479    0.9597493062
 N    2.0171233266   -0.1393424399    1.3008976515
 H    0.9323312160    1.5966374385    0.3330007334
 H   -0.7837939025   -0.2232748881   -2.0352743608
 H    0.1156481454   -1.7176365650   -1.4674800381
 H   -2.2869467178   -0.3488262391   -0.0066717892
 H    0.6901523372   -2.5087488737    2.0172945716
 H    2.5377949941   -0.6780400343    1.9921144983