18

 C   -0.1022749314   -1.2057180695    0.2399868408
 C   -0.0621123627   -0.0157503095    0.0767275319
 C    0.0198201020    1.4292592308   -0.1294192819
 C    1.4346729792    1.9511437477   -0.0558457766
 C    2.1201737192    2.3945830264    1.2055783166
 C    1.9609753116    3.3613043441    0.0584139103
 N    2.8766622639    3.2076415550   -1.1431323110
 C    3.8404499783    2.1111856251   -0.9186605476
 C    2.4354858194    1.7688329557   -1.2186852479
 H   -0.1473497035   -2.2562307448    0.3872473449
 H   -0.4156175064    1.6804751581   -1.1065618322
 H   -0.5956853261    1.9442860061    0.6188198072
 H    1.4324340915    2.6062035498    2.0199784442
 H    3.0680966434    1.9942830085    1.5462470105
 H    1.4447418985    4.3081973001    0.1569590046
 H    4.5449782468    2.0260410316   -1.7415162215
 H    4.2847725162    1.9453892401    0.0555017523
 H    2.1289042999    1.3375407648   -2.1671143444