17

 C    0.7764813422   -0.1321744472    0.0488227389
 C   -0.5428115719   -0.2112661488   -0.6892466863
 O   -0.6390230579   -0.0268972277   -1.8804188971
 C   -1.7908808408   -0.4666016876    0.1658367615
 C   -1.9611010760   -1.8601688058    0.7804829928
 O   -2.3956609323   -2.0051283464    1.8987644868
 C   -1.6191132628   -3.0737795538   -0.0412969921
 C   -1.6903117637   -3.0901815975   -1.5182822820
 O   -0.4396070490   -2.9910244945   -0.8503957044
 H    1.5920878930   -0.0160615404   -0.6651769523
 H    0.7674711106    0.7214689009    0.7368054573
 H    0.9348871301   -1.0323032398    0.6505782445
 H   -1.8261245470    0.2338853040    1.0051585378
 H   -2.6599208496   -0.2782771768   -0.4741547864
 H   -1.7422838324   -4.0049639426    0.5083610996
 H   -1.8830552986   -4.0435185005   -2.0065805922
 H   -1.9889143739   -2.1991923753   -2.0649566063