20

 C    0.3515588896    1.6124278757    0.0280893392
 C    0.0952874386    0.1174927210   -0.0220395720
 C    0.9308403627   -0.7410778453   -1.0377644020
 O    1.9132554069   -0.1180775912   -1.8206075813
 C    1.3662820669   -1.6019414579    0.1824117972
 C    2.6674216232   -1.2276979210    0.9477078261
 O    3.6918818269   -0.5160055603    0.2580198958
 C    1.7942386325   -0.3091356251    1.8254221225
 N    0.5412419659   -0.7507577993    1.1342397041
 H    1.4133005983    1.8654213886   -0.0316462290
 H   -0.1398022969    2.0935716738   -0.8229003965
 H   -0.0594359695    2.0466523161    0.9459076462
 H   -0.9789826360   -0.0496593438   -0.1582407911
 H    0.2930665739   -1.2954560088   -1.7327387587
 H    2.6494241236    0.1052168000   -1.2330984264
 H    1.1341972949   -2.6699868009    0.1314024818
 H    3.1043182335   -2.0765041006    1.4862202326
 H    4.2244519618   -1.1511202302   -0.2339836526
 H    1.7828839164   -0.5619186553    2.8896529762
 H    2.0451518667    0.7498315944    1.7249454080