22

 C    0.0327618117    1.6097900591   -0.1223413189
 C    0.0640873729    0.0878887196    0.0397383257
 C    0.7679435873   -0.6610219911   -1.1165220548
 C    1.2991644202   -1.9527827867   -0.4576080733
 N    1.5098409451   -1.6731327981    0.9767330814
 C    2.2813617597   -0.4418369983    1.2380963603
 C    0.7967853111   -0.4125017586    1.2831891507
 C    0.0749889890   -0.4084411465    2.6195728168
 O    0.7572778502   -1.1786876775    3.5844329528
 H    1.0475250455    2.0178747849   -0.1815262201
 H   -0.4987805811    1.8961532940   -1.0356392282
 H   -0.4735068915    2.0935377554    0.7192862242
 H   -0.9714328837   -0.2738087784    0.1127698464
 H    0.0933420233   -0.8673248402   -1.9515265309
 H    1.5869433559   -0.0539343125   -1.5163163260
 H    0.5572917308   -2.7561037304   -0.5236693372
 H    2.2240642781   -2.3207336995   -0.9129094637
 H    2.8326909025   -0.4582622810    2.1724613458
 H    2.7979339022    0.0333956424    0.4084243047
 H   -0.0038241497    0.6119459821    3.0135457503
 H   -0.9541949407   -0.7785658943    2.4636660228
 H    1.0463387412   -1.9724376545    3.1097563311