17

 O   -0.0004192202   -0.0497934316   -0.2638422128
 C   -0.0122101899    1.1182483945    0.0158999276
 C   -1.2768800801    1.9729753825    0.2203369964
 C   -0.8232905340    3.2195040491    0.9757999520
 C   -0.7388875835    3.1105544349    2.5086534778
 O    0.0167833207    1.9270371910    2.8021973454
 C    0.7319816616    3.1301202679    2.4874414482
 C    0.7690825400    3.2410447473    0.9528360337
 C    1.2342067336    2.0070381107    0.1839670969
 H   -1.6650545353    2.2285195719   -0.7735994808
 H   -2.0435226347    1.3834749777    0.7280391612
 H   -1.2820372078    4.1502129215    0.6401292461
 H   -1.4464671542    3.4404604634    3.2607134010
 H    1.4519055971    3.4790417105    3.2189250145
 H    1.1926149594    4.1837249156    0.6045168876
 H    2.0309217296    1.4387031773    0.6689918229
 H    1.5863677578    2.2726960060   -0.8206717976