19

 C    0.1750501080    1.3906488409    0.1367031599
 C   -0.5890227442    0.1391394689   -0.2320351467
 O   -1.5978351526   -0.2049692794    0.3390454940
 C   -0.0241535007   -0.6912118561   -1.3957798613
 C    0.0878869560   -2.1628685449   -1.0521576780
 C   -1.1537317777   -3.0482700905   -1.0485025476
 C   -0.1384564266   -3.2304075602   -2.1218116721
 C    1.1002710409   -2.4853266166   -0.0223273855
 O    1.7757179247   -1.6631972962    0.5515361921
 H    1.1660242002    1.0944597679    0.4978872550
 H    0.3281084288    2.0242104475   -0.7447112648
 H   -0.3563634075    1.9464665086    0.9099828360
 H   -0.7091350301   -0.5609252312   -2.2422689314
 H    0.9526798547   -0.3046723999   -1.7002980469
 H   -1.2288762280   -3.8031402766   -0.2731701221
 H   -2.0849165909   -2.5437447803   -1.2714671482
 H   -0.3540563534   -2.8670449161   -3.1202066575
 H    0.4941407103   -4.1116322096   -2.0933457863
 H    1.2038159380   -3.5720691863    0.2023728016