20

 C    0.0837757882    1.3273796008   -0.3824347368
 C   -0.0489372355   -0.1187223994    0.0345865635
 N    1.0538306982   -1.0530481965   -0.1078241916
 C    2.2682428584   -0.8234881650   -0.7160085969
 O    2.4201482114   -0.2751653629   -1.7824937054
 C    0.6287225009   -0.7153449004    1.2504573052
 C    1.5388095735    0.0995975644    2.1469354275
 C   -0.0624628881   -1.8744516951    1.9538062322
 O    0.8678164653   -2.8482949713    2.3946574302
 H    1.0234417096    1.7750418495   -0.0553569481
 H    0.0455977733    1.4079754397   -1.4717627583
 H   -0.7426045735    1.9090519523    0.0385471225
 H   -1.0115498899   -0.5589403071   -0.2283530793
 H    3.1041918999   -1.2784225513   -0.1476902485
 H    2.1415325284    0.8210310912    1.5918155664
 H    0.9462447352    0.6457009300    2.8886609095
 H    2.2120611314   -0.5702192803    2.6891266732
 H   -0.5762139262   -1.5144812793    2.8517433513
 H   -0.8153105458   -2.3135416677    1.2839410354
 H    1.2812178253   -3.2149117516    1.6045955082