17

 C   -0.1709424968    1.5980538734   -0.1000561307
 C   -0.0446689203    0.0906272008   -0.0165257991
 C    1.2178161181   -0.6122844537   -0.3548333433
 O    2.3098287236    0.2046423541   -0.7137563927
 C    3.5265655561   -0.3907592108   -0.7706761422
 O    4.5121081737    0.2086598191   -1.0685681257
 C    0.7464137059   -0.6213739654    1.0982921031
 C    1.4692905825    0.1471590781    2.1415056397
 O    1.5428479319   -0.2151863069    3.2911580791
 H    0.7842544779    2.1033555868    0.0474741023
 H   -0.5412037862    1.8817900065   -1.0900567893
 H   -0.8809894871    1.9697398939    0.6444662548
 H   -0.9468403889   -0.4454243296   -0.2972246712
 H    1.1803930944   -1.5533305429   -0.8968064095
 H    3.4893951566   -1.4677522508   -0.5221043842
 H    0.3387492877   -1.5561780079    1.4684698362
 H    1.9512178409    1.0878105054    1.8067096828