22

 C   -0.2551055615    1.5502078604   -0.0405117006
 C    0.2103332503    0.0931191818    0.0326413743
 N    0.8089657522   -0.3796941234   -1.1943137170
 C    0.2644159113   -0.6294145108   -2.5318379875
 C    1.6910263572   -1.1239465686   -2.9534081006
 C    1.7889854228   -2.6084822400   -3.2981059682
 C    2.4090406823   -0.2424040403   -3.9731032537
 C    2.0797055087   -0.8085215479   -1.4827771481
 O    3.0786608485   -0.8933689871   -0.8128072016
 H    0.5843707812    2.2150205593   -0.2636065079
 H   -1.0149653281    1.6866622921   -0.8168312058
 H   -0.6942905813    1.8569262364    0.9137481704
 H    0.9763106750   -0.0270866330    0.8052420979
 H   -0.6332424936   -0.5567455330    0.3046987233
 H   -0.5200116219   -1.3955286220   -2.5550823095
 H   -0.0893361044    0.2688723722   -3.0500549688
 H    1.3677003931   -2.8102735501   -4.2891748617
 H    2.8359269887   -2.9273540778   -3.3029580144
 H    1.2558428545   -3.2264045015   -2.5685045307
 H    2.3112904839    0.8192805302   -3.7245613997
 H    3.4764830722   -0.4827525272   -3.9968008933
 H    2.0039925788   -0.3958479396   -4.9796036668