17

 C   -0.0415102213    1.4598267423   -0.1096978217
 C   -0.0213117357   -0.0337130602   -0.0510871184
 C   -0.0952404767   -0.8791583788   -1.0842734483
 C   -0.0371000697   -2.3204876585   -0.6720071582
 C    1.0981172196   -3.1443563237   -1.2694603134
 O    1.8361835531   -2.7521768565   -2.1333551087
 C    0.0938488217   -2.2460886782    0.8691515400
 O    0.1874001037   -3.1925251403    1.6035565283
 C    0.0983893559   -0.7664605971    1.2641894745
 H    0.8711668281    1.8831032192    0.3281977463
 H   -0.1256431377    1.8195107814   -1.1384206563
 H   -0.8813304512    1.8674361448    0.4671625874
 H   -0.1668456681   -0.5787490317   -2.1223329336
 H   -0.9555789499   -2.8899121939   -0.8899698792
 H    1.1898758520   -4.1596247452   -0.8283929429
 H    1.0170741506   -0.5276032529    1.8168440020
 H   -0.7304154446   -0.5635465407    1.9558952020