16

 N   -0.1542981201   -1.0901172967   -0.3664487930
 C   -0.0691567752    0.0334896688   -0.1119812224
 C    0.0538388953    1.4569020876    0.2168082658
 C    1.4763468423    1.9474357559    0.1380656846
 C    2.6669777332    1.5769859249    1.0237882981
 C    3.3771929026    2.7681533133    0.3309163527
 O    3.5360885134    2.3178807225   -1.0455219397
 C    2.1264886478    2.4626483533   -1.1647225126
 C    1.9670255635    3.3884391786   -0.0070697851
 H   -0.5832810720    2.0270945903   -0.4706924938
 H   -0.3576852030    1.6142819768    1.2218166566
 H    2.4589777277    1.7854560156    2.0769356182
 H    3.1340759144    0.5951974013    0.9049819458
 H    4.2569173968    3.2621202955    0.7356715454
 H    1.6658436297    2.4181183039   -2.1431043338
 H    1.4959832036    4.3511014783    0.1366837631