19

 O    0.1696174819    1.3617458883    0.2020429374
 C    0.0808786078   -0.0226407278   -0.0180745639
 C   -1.3872457235   -0.5398456131    0.0150119517
 C   -2.1538974918   -0.1372952244   -1.2478155709
 O   -2.1063121171    1.2849484522   -1.3679337281
 C   -1.3735778625   -2.0477302954    0.1555561183
 O   -1.2194511044   -2.7929671276   -0.7925970677
 C   -1.5298309484   -2.6417363825    1.5462416210
 O   -1.3836483648   -4.0279860529    1.5324862314
 H   -0.4428653549    1.7732471371   -0.4230595328
 H    0.5289153687   -0.3283976153   -0.9778645596
 H    0.6623192804   -0.5031945282    0.7767679704
 H   -1.8619089782   -0.0941509763    0.8972271411
 H   -1.6897695930   -0.6269931098   -2.1127650495
 H   -3.1958836382   -0.4828355621   -1.1851468591
 H   -2.4450491278    1.5318587083   -2.2332853195
 H   -0.7965649443   -2.1667861085    2.2186011478
 H   -2.5239228881   -2.3385861374    1.9215633172
 H   -1.2780628519   -4.2601333346    0.5956239550