18

 C    0.0109250304    1.4719111081    0.0371662091
 C   -0.0025517997   -0.0258750343   -0.0327202778
 C   -0.9586207646   -0.8870250413    0.8073414874
 C   -1.0938376287   -2.2483694744    0.1275314125
 C    0.4126094100   -2.1006149864   -0.2102761453
 C    0.5384382161   -1.0433850282    0.9564360278
 C    0.4573470969   -0.8918093809   -1.1910898968
 O   -0.3690838087   -0.8810676568   -2.3352266212
 H    0.9879269639    1.8755978628   -0.2528732194
 H   -0.7411852644    1.9039882549   -0.6321553058
 H   -0.2054438542    1.8231821625    1.0517441058
 H   -1.6435814393   -0.4110139371    1.4982174585
 H   -1.2649379738   -3.0435297088    0.8584956402
 H   -1.7828538304   -2.3482495165   -0.7166151868
 H    1.0480798223   -2.9704715093   -0.3670524618
 H    1.2097715092   -0.9332292468    1.7950775214
 H    1.4986897368   -0.6469487077   -1.4482243927
 H    0.0498445683   -1.4122425297   -3.0199239550