17

 C   -1.7913298097    0.8220587626   -0.6792296557
 N   -0.8271549210   -0.2600333681   -0.4895248605
 C    0.3618084152   -0.3599438328   -1.3176959896
 C    0.6997660701    0.6169473977   -2.4313561544
 C   -0.0358385228    0.2638623907   -3.7121989064
 O   -0.7213723708    1.0288806245   -4.3366630008
 C    0.4710272055    0.0226808739    0.1367890669
 C    0.8506165202    1.3719366730    0.4791468124
 N    1.1447615788    2.4519452828    0.7721053177
 H   -1.3506263481    1.8130694957   -0.8436109568
 H   -2.4227156797    0.5728581422   -1.5358675693
 H   -2.4226815333    0.8742690254    0.2116906899
 H    0.6285534862   -1.3916662618   -1.5483505924
 H    0.4881299731    1.6548685920   -2.1720129717
 H    1.7767800993    0.5338032290   -2.6362229237
 H    0.1067882917   -0.7891563264   -4.0498334459
 H    0.8021203854   -0.7169798104    0.8615501203