18

 C    0.0145549285    1.6637373933    0.0239637966
 C    1.5342320334    1.5155590634    0.2953657301
 C    1.2976822226   -0.0141865649    0.5365603622
 C   -0.0495345376    0.1339680918   -0.2290137396
 C    2.3042037969   -0.9975854481    0.0583036212
 C    2.5799436895   -1.5592520242   -1.1710016833
 N    3.6527957932   -2.3916385638   -1.0588647695
 N    4.0695276521   -2.3853194455    0.1735011692
 N    3.2600939202   -1.5470486416    0.8520131658
 H   -0.5328213677    1.9481254375    0.9270734259
 H   -0.2914571583    2.3238817977   -0.7896140053
 H    2.1270891455    1.6750056410   -0.6092303502
 H    1.9753820826    2.0908782121    1.1126079708
 H    1.0968634668   -0.1824733160    1.6007457551
 H   -0.9063027342   -0.4232161370    0.1555963672
 H    0.0713250927   -0.1012866734   -1.2898796491
 H    2.0740314088   -1.4203478390   -2.1124358365
 H    3.4164881450   -1.4035697834    1.8373016692