21

 C   -0.0269996094    1.5515510738    0.0226251601
 C    1.4785499743    1.9045546659   -0.0160368945
 C    2.0611903661    1.5241430553   -1.3976470111
 C    1.9898527412   -0.0207673879   -1.3678789420
 C    0.5094957609   -0.4685573590   -1.3958960679
 C   -0.0006962525    0.0053896645   -0.0144963740
 C    1.1748356511   -0.3432239411    0.9267874018
 C    2.1051783966    0.8512104912    0.9258827476
 C    2.4267891894   -0.3595289688    0.0756121812
 H   -0.4735235063    1.8999012661    0.9608213924
 H   -0.5935496131    1.9919806438   -0.8059217580
 H    1.6880959856    2.9366882428    0.2721048337
 H    1.5062013198    1.9642128941   -2.2342359711
 H    3.1037468004    1.8533680846   -1.4727553164
 H    2.5998732675   -0.4965205082   -2.1384822057
 H   -0.0538383506   -0.0400264632   -2.2329449388
 H    0.4458138355   -1.5601605394   -1.4686770672
 H   -0.9498500516   -0.4499536318    0.2753758049
 H    1.0521327431   -0.9834782671    1.7920956231
 H    2.6965866962    1.1277666085    1.7904745964
 H    3.2650899461   -1.0122532041    0.2876210354