21

 C   -0.1941138749    1.4234973346   -0.1227523163
 N    0.0510092354    0.0048606943    0.0793414457
 C    1.4039463043   -0.4983855392   -0.1274046487
 C    0.8075164452   -0.4764620605    1.2467157786
 C    1.3614554240    0.5087293988    2.2599009673
 C    0.2569902697   -1.7726040501    1.7871530118
 C    1.0033199721   -2.6245657848    2.7848545624
 C   -0.2728064926   -1.9302831546    3.1921234337
 H    0.6613700054    2.0796095101    0.1008246703
 H   -0.4681517513    1.5827137932   -1.1710518062
 H   -1.0397594675    1.7401122912    0.4967053785
 H    1.4898641990   -1.4296765363   -0.6832703602
 H    2.1918439198    0.2255614356   -0.3380752599
 H    1.8809980723    1.3399392788    1.7802011070
 H    0.5656120903    0.9248543141    2.8871290667
 H    2.0827761270    0.0192798014    2.9218059118
 H   -0.2891566631   -2.3165524909    1.0229379359
 H    0.9900318700   -3.7000822787    2.6460715801
 H    1.9349736537   -2.2479287999    3.1940491688
 H   -0.1912378585   -1.0927458296    3.8758896812
 H   -1.1670660702   -2.5269934677    3.3340372914