20

 C   -0.1197997372    1.5594669324   -0.1693212031
 C    0.0172626105    0.0456978282    0.0876194044
 C    0.7351635527   -0.3016404992    1.4151551822
 C    2.1971911541    0.1173691877    1.4119760834
 C    3.1341617149   -0.5489196635    2.4450001229
 C    3.8942126054   -1.0677719824    1.2074765738
 O    2.9272343270   -0.4771941782    0.3104394523
 C   -1.3021385459   -0.5930547888    0.0601952822
 N   -2.3454044077   -1.0909892848    0.0525259807
 H    0.8663622026    2.0219315350   -0.2530676327
 H   -0.6605900049    1.7453124497   -1.1002821534
 H   -0.6663660903    2.0453387940    0.6444369292
 H    0.6098807080   -0.3979898194   -0.7214642121
 H    0.2187428524    0.1775860725    2.2561840269
 H    0.6777078072   -1.3841050003    1.5715249100
 H    2.2874978432    1.2115601985    1.3833470096
 H    3.6856967475    0.1300214587    3.0960904809
 H    2.6578882016   -1.3220674730    3.0511289689
 H    4.8943434394   -0.6422604564    1.0609836601
 H    3.9510013895   -2.1555361608    1.0885947340