19

 C   -0.2603349219    1.4849678846    0.3659425486
 C   -0.0248797497    0.0048740630    0.1735094581
 C    1.2542741484   -0.5466437947   -0.3459586443
 C    0.8945655045   -0.8065993200    1.1207230647
 C    1.6890719607   -0.0981234177    2.2041005426
 C    0.3755414215   -2.1805583615    1.3587703654
 O   -0.1443106957   -2.8610979789    0.4926210843
 C    0.4093054510   -2.8428425945    2.7487451274
 O    0.6917183519   -2.3140202991    3.7902850745
 H    0.6573384291    2.0249125295    0.6110175900
 H   -0.6580569945    1.9187200356   -0.5581525214
 H   -0.9881669739    1.6755392553    1.1615403751
 H   -0.9058827281   -0.5584162468   -0.1208737336
 H    1.2108903314   -1.4021369001   -1.0100096670
 H    2.0812739818    0.1369043702   -0.5099643142
 H    2.1022583242    0.8369929956    1.8192860545
 H    1.0821192344    0.1289354546    3.0825090819
 H    2.5300936598   -0.7106604408    2.5411481704
 H    0.0827403050   -3.9023147143    2.6731745330