19

 C    0.1393468789    1.5597276807   -0.1091425072
 C    0.0432353164    0.0341320366   -0.0040973932
 O    0.8338869359   -0.4751278634    1.0569036991
 C   -1.4169156591   -0.4758586811    0.0781823265
 C   -1.4816869097   -2.0169109229    0.0076647130
 C   -2.1175557622   -0.0184621417    1.3517623284
 O   -1.5303457979    0.2996361911    2.3705855154
 C   -3.5697546313   -0.0090296558    1.3040665091
 C   -4.7720256233    0.0016797961    1.2416003069
 H    1.1889829343    1.8532138374   -0.1920412418
 H   -0.3937619938    1.9310973197   -0.9914888865
 H   -0.2797176711    2.0463938053    0.7766229417
 H    0.4736685522   -0.4007642131   -0.9153905421
 H    0.4150399918   -0.1605706062    1.8702571488
 H   -1.9846749837   -0.0683043555   -0.7678546118
 H   -2.5050696686   -2.3840421589    0.1246004564
 H   -1.1063227757   -2.3573919858   -0.9616939112
 H   -0.8530115161   -2.4497651037    0.7890502729
 H   -5.8345483672    0.0163015315    1.2040074558