19

 O   -0.1258535481    1.6943262175    0.2330023903
 C    0.0068767557    0.2990231959    0.0658949084
 C   -1.3448611405   -0.4291228847   -0.0122039301
 C   -2.3142494645    0.0041689432    1.1094381139
 C   -1.7047869922   -0.0276894333    2.4931656517
 O   -0.9060249282    0.7919296113    2.8883538524
 C   -1.9774202404   -0.4093782558   -1.4265731494
 O   -1.5873057001   -1.7776296076   -1.6632613915
 C   -1.1746257186   -1.9428091766   -0.2944501224
 H   -0.2989180805    1.8345283674    1.1749574527
 H    0.5486766358    0.1298185985   -0.8716387033
 H    0.6107213732   -0.1444572348    0.8712791939
 H   -2.6027694080    1.0417579458    0.9072195818
 H   -3.2138684221   -0.6186241567    1.0817780904
 H   -2.0163520121   -0.8602930461    3.1591253385
 H   -3.0694375559   -0.2895200613   -1.4381906208
 H   -1.5315849553    0.2863812087   -2.1460651107
 H   -0.1539230612   -2.3388357229   -0.2152774822
 H   -1.8546435171   -2.6005776084    0.2654231963