16

 O    0.6519027987    0.5968409341   -0.6102639503
 C   -0.2110960691    0.4703261316    0.5047351923
 C   -1.5111445480   -0.2779288451    0.1606913808
 C   -1.3391351951   -1.7920819598   -0.1016703548
 O   -2.1450730390   -2.4215856022    0.9275030859
 C   -2.6962928625   -1.4086159819    1.6215142152
 N   -2.4357908231   -0.2035725204    1.3145727910
 C   -2.1944657985    0.4425162496   -1.0087741935
 O   -2.5189161626   -0.0851955228   -2.0382216109
 H    1.0245870119   -0.2662717198   -0.8163928798
 H    0.2724959884   -0.0261106846    1.3584462678
 H   -0.4647949152    1.4874657718    0.8174231618
 H   -1.7265224302   -2.0831036227   -1.0801817476
 H   -0.3110293624   -2.1489377368    0.0142053070
 H   -3.3487644361   -1.7184366190    2.4305071462
 H   -2.3930732673    1.5158866379   -0.8084009211