19

 C   -0.1522958603    1.4965569426   -0.1042693411
 C    0.0178497048   -0.0056270568    0.0496710475
 O    0.6408000568   -0.5637136412   -1.1521765707
 C    1.8100092432   -1.2333743611   -0.6934289677
 O    2.7777979071   -0.3158249931   -0.2380964040
 C    2.3105922180    0.1346136846    1.0595694561
 C    0.9368877392   -0.5318169489    1.1790236201
 C    1.3013717988   -1.9210150943    0.5812371645
 O    0.2480543979   -2.8277064082    0.3869904230
 H    0.8007856953    1.9924894586   -0.3012320009
 H   -0.8165292460    1.7075763681   -0.9470489215
 H   -0.5999693631    1.9286860598    0.7971940700
 H   -0.9729538992   -0.4657459330    0.1561954775
 H    2.2205257820   -1.8275804874   -1.5082987250
 H    3.0025118490   -0.2058617855    1.8407773697
 H    2.2873601348    1.2274318737    1.0732062736
 H    0.4917720144   -0.5244782688    2.1733183059
 H    2.0869036381   -2.4304364321    1.1441497409
 H   -0.2215908106   -2.5470792472   -0.4082220379