17

 C    0.4340786684    1.5732631530    0.1522424532
 C    1.1519215796    0.3795249682   -0.4175905062
 C   -0.2615187056    0.2360766856    0.1229457623
 C   -0.5170442763   -0.4935933165    1.3825191514
 C   -0.8351988166   -0.0563984924    2.6516300287
 C   -1.0036224921   -1.1999096695    3.4816115904
 C   -0.7871218049   -2.3086351692    2.6981732387
 N   -0.4956163704   -1.8707517276    1.4308292140
 H    0.7631011674    1.9425844312    1.1164141752
 H    0.0862375754    2.3415186582   -0.5287860674
 H    1.2951098553    0.3258993681   -1.4912964504
 H    1.9565202345   -0.0499643175    0.1686222826
 H   -1.0317269762    0.1320075446   -0.6397098422
 H   -0.9460784960    0.9769495436    2.9431494116
 H   -1.2555895685   -1.2067067738    4.5309638428
 H   -0.8119391549   -3.3610531300    2.9314413730
 H   -0.2658021593   -2.4606417258    0.6500162023