22

 C   -0.9885090929    0.5569651120    0.1058073424
 C    0.5369932434    0.4110134445    0.0674060507
 N    1.2032924617   -0.3192737559    1.1322919913
 C    0.5451743922   -0.8125698623    2.0815733280
 O    1.1831697207   -1.4601837679    3.0835629273
 C    0.3808977220   -2.1259651191    4.0416733713
 C    0.1854844307   -3.6560041858    3.8933325314
 C    0.3914218646   -3.7698668649    5.4299111174
 C    1.0653749778   -2.3684759781    5.4005719558
 H   -1.3265343393    1.0908269102    1.0005731130
 H   -1.3227042366    1.1279826175   -0.7657268696
 H   -1.4932673401   -0.4148536488    0.0780579922
 H    0.8280051625   -0.0675382761   -0.8773983526
 H    0.9924110236    1.4099332499    0.0317040300
 H   -0.5441278458   -0.7676767475    2.2104914264
 H   -0.5787901201   -1.6055553616    4.1561814081
 H   -0.7503264430   -4.0170861105    3.4604602745
 H    1.0267059001   -4.0844019611    3.3417936912
 H   -0.5570811461   -3.7576149899    5.9732840826
 H    0.9901773438   -4.6056695182    5.7947094124
 H    2.1463835519   -2.4468179502    5.2585300220
 H    0.8600013189   -1.6662829662    6.2111277543