17

 C    0.0150908384    1.4682566076   -0.0652669999
 C    1.3339585865    0.7574476020    0.0471940603
 C    0.0134280661   -0.0293027204    0.0556483857
 C    0.4132088643   -0.7328841567   -1.2626070133
 C    0.0154894498   -0.0893850106   -2.6261833716
 C    1.3604791688    0.7119308897   -2.6347930379
 C    1.7499197522    0.0635009047   -1.2711626725
 H   -0.2913750588    1.9923212924    0.8350029619
 H   -0.2900636668    1.9706389321   -0.9777900651
 H    2.0106708434    0.9646849096    0.8682148146
 H   -0.4831802554   -0.5211116012    0.8841808565
 H    0.4110442647   -1.8216631827   -1.2054436366
 H   -0.0592176590   -0.8157676684   -3.4392578658
 H   -0.9008722681    0.5070630251   -2.6211028956
 H    2.0271277793    0.4272387606   -3.4526149221
 H    1.2722268157    1.8017503111   -2.6350072692
 H    2.7089435990   -0.4526220949   -1.2201493693