19

 C   -0.1065136166    1.1302038000    0.0352905143
 C    0.1373518049   -0.3270953314    0.4197194901
 O    0.7289740547   -0.4374368084    1.7121397922
 C   -1.1321402440   -1.1886593461    0.3494408088
 C   -1.6147618720   -1.4898062525   -1.0562013104
 O   -1.0989541266   -1.0385595074   -2.0557948935
 C   -2.8085157683   -2.3988246230   -1.1993619125
 C   -2.8392505234   -3.7363531588   -0.5709723873
 O   -3.5983471522   -2.6619145728   -0.0380924982
 H    0.8206492304    1.7021633315    0.1274805999
 H   -0.4659927608    1.2013745686   -0.9936665905
 H   -0.8571301338    1.5853101016    0.6953522427
 H    0.8785866144   -0.7546551384   -0.2632218809
 H    0.1739234748    0.0492814068    2.3314497700
 H   -0.9448753569   -2.1341681481    0.8733762471
 H   -1.9635029236   -0.7219055499    0.8964271187
 H   -3.3588879598   -2.2543034766   -2.1276701695
 H   -3.4099517405   -4.5250555746   -1.0580586907
 H   -1.9997583107   -4.0703937503    0.0359216197