20

 C   -0.0142494525    1.5375542077   -0.0707026280
 C   -0.0179794734    0.0204087408    0.0217586572
 O    0.7980851764   -0.4828302477   -1.0237059409
 C    0.7573155154   -1.8763524325   -1.2278829354
 C    1.2721934783   -2.6826488094   -0.0399573905
 C   -0.5369769036   -2.4421981599   -1.8804991671
 O    0.2171355192   -2.9573327409   -2.9956665070
 C    1.4019251363   -2.2477529917   -2.5788557542
 H    1.0057242857    1.9218466831    0.0199418651
 H   -0.4183899581    1.8652005535   -1.0325368546
 H   -0.6211512847    1.9706950390    0.7300196246
 H    0.3602976565   -0.3004724939    1.0036664937
 H   -1.0451943404   -0.3670026668   -0.0742626715
 H    0.6135026882   -2.5946857489    0.8295391450
 H    1.3298515524   -3.7422094240   -0.3056884427
 H    2.2718541677   -2.3403884740    0.2463465512
 H   -1.0707602854   -3.2353578205   -1.3442303588
 H   -1.2454460537   -1.6607986631   -2.1865305544
 H    1.6019761418   -1.3663313829   -3.2000599785
 H    2.2852048641   -2.8957388879   -2.5522191432