20

 C    0.0495604600    1.5246297271   -0.0296382190
 C    0.0560741157   -0.0017729967    0.1190925648
 C    0.6256814384   -0.4172630810    1.4811512576
 C   -1.3673911973   -0.5615703626   -0.1212221655
 C   -1.4393581162   -2.0593917932   -0.1772732275
 N   -1.2767349860   -2.6794161876   -1.3245925310
 O   -1.3772993308   -4.0406378610   -1.0459042363
 C   -1.6038630776   -4.1965511556    0.2647222192
 C   -1.6577962620   -2.9913238770    0.8831240602
 H    1.0563432442    1.9354029176    0.0972467104
 H   -0.3165910527    1.8298398701   -1.0153291321
 H   -0.5954633846    1.9904235810    0.7253984972
 H    0.6998540353   -0.4213724700   -0.6647329651
 H    0.0080260381   -0.0259621249    2.2993619766
 H    0.6751552653   -1.5047572549    1.5870432173
 H    1.6381716462   -0.0230572597    1.6153780314
 H   -2.0370381228   -0.1977605861    0.6679244709
 H   -1.7437309241   -0.1685950756   -1.0707730814
 H   -1.7090531272   -5.2148857865    0.6061540076
 H   -1.8304439219   -2.7845398335    1.9260328647