19

 C   -0.5168401232    1.2508315726    0.0853453019
 C    0.0682757258   -0.1572873494    0.0157812017
 C    1.0881891543   -0.3743348872   -1.1364600647
 O    2.2403217952   -1.0088002769   -0.5658726474
 C    1.8068211092   -1.6485985659    0.6236914801
 C    0.8890622775   -0.5889285740    1.2657715741
 O    1.6576433803    0.4628703720    1.8242881005
 C    0.0358117372   -1.1533923662    2.3842299437
 O   -0.8304670020   -1.9732882116    2.2142649387
 H    0.2637084550    1.9924718606    0.2745097166
 H   -1.0156569835    1.5061120334   -0.8550304314
 H   -1.2580995068    1.3334107078    0.8861634963
 H   -0.7433457747   -0.8852292631   -0.0789433717
 H    0.6643453423   -1.0055246294   -1.9288275002
 H    1.4211963974    0.5653347995   -1.5888229125
 H    1.2427643598   -2.5706828668    0.4200558134
 H    2.6843885700   -1.8787732845    1.2325570610
 H    2.3886627631    0.6301178976    1.2170482264
 H    0.2938492330   -0.7564039784    3.3890729035