12

 O   -0.0088118909    0.0106383531   -0.4076072130
 C    0.0461928089    1.1950782320   -0.1579099350
 N   -1.1691673125    1.9162927922   -0.0984942857
 N   -1.5385256504    3.0892559331    0.5215582876
 N   -0.8039906473    4.0918369496    0.5420255208
 C    0.4658708259    4.2039070536   -0.1277910836
 O    0.6624906921    5.1715754739   -0.8155804819
 C    1.5164934791    3.2034767041    0.1622761490
 C    1.3174704748    1.8828640434    0.1252753925
 H   -1.9607959367    1.2844052234   -0.1339129046
 H    2.5127856323    3.6098843849    0.3077837840
 H    2.1456012947    1.1918612167    0.2393325799