19

 N    0.0108500914    1.3739155016    0.2288660971
 C    0.0326928575    0.1239417929    0.0356391296
 C   -1.2665514108   -0.6668550510   -0.0401785227
 N   -1.8709914289   -0.6957089925   -1.3765139070
 C   -1.0311039520   -1.2629631174   -2.4460567128
 C   -0.3554781176   -2.5532535679   -2.0537900067
 C    0.7915604726   -2.5971658890   -1.3722171495
 C    1.6317071069   -1.3807389719   -1.0603687429
 O    1.2157123754   -0.5808055082    0.0676947439
 H    0.9694508727    1.7275103799    0.2856530113
 H   -1.0646136301   -1.6647543091    0.3756961896
 H   -1.9766743249   -0.1551717277    0.6134982039
 H   -2.7391949573   -1.2179944084   -1.3150786046
 H   -1.6691767516   -1.4006932097   -3.3234760731
 H   -0.2849119130   -0.5066412173   -2.7169714461
 H   -0.9042811914   -3.4762516289   -2.2320818842
 H    1.1702023314   -3.5506539271   -1.0132983683
 H    2.6445646514   -1.6878412845   -0.7925133137
 H    1.7082685084   -0.7257671537   -1.9368007837