21

 C   -0.0586935004    1.4061821505   -0.0376276800
 O   -0.0182094689    0.0018472961   -0.0939207803
 C   -1.2890129898   -0.5917190325    0.0451688643
 C   -1.1275333548   -2.1035023986   -0.0278358925
 C   -2.4621992961   -2.8362525457    0.1019986202
 C   -2.3153543153   -4.3544123063    0.1339879847
 O   -1.2625406760   -4.9072043117    0.3264607109
 C   -3.6128286633   -5.1273242989   -0.0932955444
 O   -3.3991647588   -6.4955368404    0.1268610813
 H    0.9653774666    1.7691268225   -0.1544036858
 H   -0.6799800446    1.8315383725   -0.8425262861
 H   -0.4554785458    1.7670938458    0.9251341618
 H   -1.7470502351   -0.2989750555    1.0075623842
 H   -1.9682391500   -0.2338940024   -0.7501005650
 H   -0.6473142886   -2.3661156751   -0.9762516427
 H   -0.4488189022   -2.4367731721    0.7619082737
 H   -2.9729981817   -2.5450126167    1.0325378317
 H   -3.1544210083   -2.5586710998   -0.7048297777
 H   -4.3850043982   -4.7007312725    0.5709152634
 H   -3.9394631306   -4.9075554894   -1.1258293472
 H   -4.2209086283   -6.9595833099   -0.0571516745