17

 C   -0.2656406528    1.4206338442    0.1418104930
 C   -0.0327406967   -0.0382766657   -0.0390265813
 N   -0.1753946695   -0.7093382136   -1.1055899504
 C    0.1531445071   -2.0965239360   -0.7913264772
 C    0.5798326564   -2.0785422272    0.7210708657
 C    2.0421991568   -2.4556934487    0.9566842672
 O    0.3813585007   -0.6928269536    1.0931429014
 C   -0.3110519556   -2.9019137908    1.5541687191
 N   -1.0027170442   -3.5776217096    2.1864782650
 H    0.6482981346    1.9099353975    0.4921682238
 H   -0.5801317587    1.8604105769   -0.8037072310
 H   -1.0362173782    1.5868793548    0.9008833913
 H   -0.7100875699   -2.7440540136   -0.9685000411
 H    0.9733580506   -2.4536603825   -1.4228334476
 H    2.6791134348   -1.8267425915    0.3289323922
 H    2.3170745093   -2.3089453250    2.0034411969
 H    2.2095527551   -3.5035971557    0.6924970229