19

 N    0.0427256633   -1.1731210977    0.0795687470
 C    0.0364497844   -0.0189181537    0.0301550651
 C    0.0085074515    1.4500845391    0.0133951378
 C   -0.7633386606    1.9927193165    1.2436254725
 C   -0.5848186544    3.5019287659    1.4001265483
 C    0.6390022036    4.0415352346    2.1047944617
 C    0.5002102050    4.2203383891    0.6184782403
 C    1.3624978274    3.4203290331   -0.3481534452
 N    1.3688015236    1.9727347161   -0.1234880398
 H   -0.5294833909    1.7536801865   -0.8950621489
 H   -1.8238715094    1.7455586159    1.1344066799
 H   -0.4132711401    1.4660145997    2.1386994117
 H   -1.5058660056    4.0518899284    1.5611623851
 H    0.5311870107    4.9110454331    2.7433917470
 H    1.3608681528    3.3142119683    2.4676855311
 H    0.2635640120    5.2229338941    0.2735256552
 H    0.9996373631    3.5895349229   -1.3711746465
 H    2.4010404072    3.7677118367   -0.3216913479
 H    1.9154891865    1.7328911314    0.6981706756