25

 C   -0.0305376682    1.5785687314    0.0461825002
 C    0.0046884122    0.0493359004    0.0196319257
 C    0.7036113897   -0.5011232705   -1.2403423685
 C    0.7469979976   -1.9591096106   -1.2874512499
 C    0.7594821195   -3.1643727006   -1.3029004351
 C    0.8083066869   -4.6275235066   -1.3243274273
 C    1.4688363890   -5.1291261284   -2.6249358382
 C    1.5098782988   -5.1632811194   -0.0514167576
 C    1.4380604833   -6.6839430438    0.1130073458
 H    0.9808929984    2.0000209918    0.0296888579
 H   -0.5689955673    1.9787939101   -0.8202852817
 H   -0.5297485238    1.9477049678    0.9471687930
 H    0.5233973704   -0.3318788035    0.9064148230
 H   -1.0138227779   -0.3525867923    0.0626791901
 H    0.1899550305   -0.1182223875   -2.1330874580
 H    1.7251158479   -0.0992430385   -1.2895292638
 H   -0.2264937002   -5.0016833862   -1.3097481886
 H    1.4314277911   -6.2200389250   -2.6910311580
 H    0.9582434701   -4.7179651657   -3.4996092104
 H    2.5168806446   -4.8156817924   -2.6686240370
 H    2.5563688147   -4.8344781555   -0.0654129125
 H    1.0497023606   -4.6810644057    0.8178770842
 H    0.3995133473   -7.0345227859    0.1093441580
 H    1.9697812222   -7.2110883760   -0.6847842185
 H    1.8869463627   -6.9906780074    1.0627959473