17

 O    0.1250506000    1.4282267893   -0.1464690906
 C    0.0786103566    0.0138300166   -0.0482499904
 C   -1.3557510164   -0.5193622688   -0.0275005447
 C   -1.4150713088   -2.0502472452    0.0449899182
 N   -0.9164202741   -2.5815743424    1.3249207557
 C   -1.8635141455   -3.2897120022    1.8044662673
 N   -3.0194448604   -3.3622031899    1.0358419522
 C   -2.8491317383   -2.5855846315   -0.1085397512
 O   -3.6598220048   -2.3966399160   -0.9800144753
 H   -0.2066303233    1.7917273314    0.6805232994
 H    0.5992766053   -0.3623385271   -0.9363636747
 H    0.6254089516   -0.3532410139    0.8310337858
 H   -1.8908638145   -0.1023910058    0.8358972816
 H   -1.8869704045   -0.1938704877   -0.9277559892
 H   -0.8065876144   -2.4695952962   -0.7683225033
 H   -1.8138968043   -3.8209184812    2.7497740066
 H   -3.8703278141   -3.8483125294    1.2684851428