18

 C    0.2757258329    1.5752523286   -0.0093082873
 C    0.1956294580    0.0668218811    0.0527532522
 C    1.3617204710   -0.8785063737   -0.1903432309
 N    2.5896731488   -0.3630618807    0.3980288432
 C    2.0349687171   -0.3097904812    1.7619723900
 C    0.6968599419   -0.8098218464    1.1778734294
 O   -0.0642798558   -1.7869652850    1.7825182447
 C    3.5757311580    0.4031683193   -0.1341176417
 O    4.3588482231    1.0665118490    0.5134895487
 H    1.2302261320    1.9510412995    0.3681207618
 H    0.1673909404    1.9258528932   -1.0410447413
 H   -0.5212640338    2.0365138498    0.5837695067
 H   -0.7168321111   -0.3600516186   -0.3625473093
 H    1.3716881942   -1.6648049613   -0.9350071778
 H    2.4948559713   -1.0492674915    2.4238402828
 H    2.0675733808    0.6796058429    2.2274998020
 H   -0.7994723280   -1.3645581437    2.2397796634
 H    3.6075368594    0.3203136288   -1.2402326267