11

 N   -0.0675604950    1.2910151212    0.2916952550
 C   -0.0354231370    0.0710228940   -0.0514571847
 O    1.1300363046   -0.5755348319   -0.3945469015
 N    1.1470655023   -1.9851802189   -0.7882415066
 N    0.0962234068   -2.6099761882   -0.8141337971
 C   -1.1486570090   -2.0267314499   -0.4774402845
 C   -1.2385526201   -0.7377595271   -0.1070250832
 C   -2.2709011280   -2.9050448810   -0.5636690386
 N   -3.1900292136   -3.6038457330   -0.6285875596
 H    0.8649633564    1.7073153548    0.2763198115
 H   -2.1759525674   -0.2650264400    0.1558146794