15

 C    0.0013430345    1.4783664392    0.0340265265
 N    0.1411667343    0.0375556977   -0.0300400552
 C    0.5737330846   -0.6144294795   -1.1252138960
 O    0.9029046816   -0.1218009998   -2.1917301894
 C    0.6252527540   -2.1427805635   -0.9136542531
 O    0.3058602188   -2.6535320532    0.1288556166
 C    1.1129406208   -2.9078083394   -2.1412807897
 C    1.1620582165   -4.3491147681   -1.9433084265
 N    1.2065551151   -5.4938946129   -1.8018970463
 H    0.6404964052    1.9001190874    0.8165926222
 H    0.3024684448    1.8848694585   -0.9322823253
 H   -1.0362912345    1.7632185262    0.2364690367
 H   -0.0873937245   -0.5403644713    0.7664615959
 H    0.4642360377   -2.6513811030   -2.9868351733
 H    2.0985521114   -2.5179317183   -2.4207482333