20

 C    0.0578904189    1.5660266256    0.0720509418
 C    0.1361012063    0.0376741960    0.0726608708
 C    0.5773765937   -0.5327623420   -1.2900876312
 C    0.6563905626   -2.0283512285   -1.3252503331
 C   -0.0715328634   -2.8843043648   -2.0387443610
 C    0.3612470686   -4.2955573489   -1.7685643865
 O    1.4112816508   -4.1861011974   -0.8098067998
 C    1.6536647284   -2.8170432954   -0.5089172673
 H    1.0313344016    2.0124346381   -0.1598854824
 H   -0.6567199220    1.9260905377   -0.6764730177
 H   -0.2600331345    1.9482672802    1.0468714380
 H    0.8329153872   -0.2928328670    0.8523589886
 H   -0.8404623256   -0.3868267522    0.3351593046
 H   -0.1160268806   -0.1883900172   -2.0663075853
 H    1.5604553893   -0.1085159669   -1.5429647637
 H   -0.8629627291   -2.6303216693   -2.7336141118
 H   -0.4499143157   -4.9199617173   -1.3605381893
 H    0.7312409320   -4.8036240907   -2.6743812161
 H    2.6928197503   -2.5493855186   -0.7660863190
 H    1.5413208912   -2.6519704414    0.5743695305