21

 C   -0.6089411038    1.4571399647    0.0324070160
 C   -0.1136118926    0.0488658599   -0.0471466361
 C    0.1575321254   -0.6643038802   -1.1416705592
 C    0.6267246387   -2.0600552438   -0.8182122672
 C    0.2023343001   -2.2123963331    0.6615937033
 O    1.0530312292   -3.0242948112    1.4501793663
 C    0.1444435927   -0.7680110655    1.2182053023
 C    1.4389689980   -0.3508300639    1.9239640018
 O   -0.9575140940   -0.7012893308    2.1305489187
 H    0.1047950493    2.1108013482    0.5508641128
 H   -0.7852964090    1.8774891142   -0.9611934129
 H   -1.5470066621    1.4993577876    0.5978297897
 H    0.0674147810   -0.2937110387   -2.1581294158
 H    0.1873673826   -2.8275912467   -1.4667896001
 H    1.7179947776   -2.1599830127   -0.9012094526
 H   -0.8314047857   -2.5827111160    0.7007052895
 H    0.9288659282   -3.9383440645    1.1793564227
 H    2.3024341174   -0.4485282890    1.2607631315
 H    1.3798583650    0.6965463740    2.2436545987
 H    1.6058430568   -0.9838477468    2.7982627377
 H   -0.7851364948    0.0056960745    2.7597167529