19

 C   -0.1039894648    1.5220772737    0.1939842225
 C   -0.0350551003    0.0427273325   -0.0023310544
 C    0.0270010091   -0.7379760213   -1.1476985642
 C    0.0612163090   -0.2844766591   -2.5757421658
 C    1.4847767702   -0.1131441641   -3.1115736106
 O    1.3908873513    0.3121626204   -4.4619510887
 C    0.0801429775   -2.0661737983   -0.6587361603
 N    0.0514121874   -2.1226759923    0.6676997992
 N   -0.0153673894   -0.8291513603    1.0407298441
 H    0.8693809262    1.9490016808    0.4641751989
 H   -0.4325541824    2.0125181166   -0.7254486775
 H   -0.8127629255    1.7908162498    0.9849488796
 H   -0.4580751035   -1.0057592236   -3.2164135935
 H   -0.4639855615    0.6699210210   -2.6968799599
 H    2.0238598036    0.6227359264   -2.4932897676
 H    2.0257514294   -1.0684159751   -3.0243545888
 H    2.2813821334    0.3950653318   -4.8148504841
 H    0.1278390687   -2.9813933399   -1.2325414893
 H   -0.0655856785   -0.6080457292    2.0210863702