18

 O   -0.0104373068    0.5899466794    1.3345975727
 C    0.0174753182    1.4322820986    0.4664447189
 N    1.0998155631    1.7603105287   -0.3001889136
 C    2.3667322821    1.0996428138   -0.2511306473
 C    3.0806971147    0.9525440554    1.0692351418
 C    3.6734851679    1.8502782554    0.0147407279
 C    4.7289465518    1.2802426202   -0.9304840437
 C    4.0018252425    0.1569380445   -1.6440509672
 C    2.7186255653    0.0784904148   -1.2875344566
 H   -0.8590065339    2.0607285865    0.2038728862
 H    0.9484760880    2.4295167447   -1.0406150817
 H    2.6250451404    1.4360760723    1.9248383737
 H    3.5412851893   -0.0066005506    1.2798961384
 H    3.6483280341    2.9175265788    0.2011669089
 H    5.0965598130    2.0351222944   -1.6383987994
 H    5.6102831669    0.9131801092   -0.3888069394
 H    4.5032641599   -0.5139895058   -2.3322647461
 H    1.9937483735   -0.6403605903   -1.6514751735