17

 C    0.0217996517    1.4155279966    0.1066743726
 N   -0.0393137960   -0.0329837224    0.1535952709
 C   -1.2284262966   -0.6728069770   -0.0579277721
 N   -2.4121600119   -0.0462439040    0.0163906137
 N   -3.2450274420   -1.1332009932   -0.0771096892
 C   -4.4969373676   -1.6210778728   -0.7010367193
 C   -3.7624069746   -3.0171082395   -0.8147161811
 C   -2.5491024090   -2.2451865434   -0.3186101765
 N   -1.2512443424   -2.0405272404   -0.3116330441
 H    1.0336095581    1.7355555590    0.3657016676
 H   -0.2429061486    1.8293337813   -0.8774121681
 H   -0.6748722576    1.8312317966    0.8388398851
 H    0.7509998142   -0.5389503322   -0.2141495582
 H   -5.3747753093   -1.5563628403   -0.0544891685
 H   -4.7022386308   -1.1609987284   -1.6709634691
 H   -4.1412536067   -3.8042747609   -0.1603535193
 H   -3.6784691808   -3.3956677790   -1.8349775044