17

 O    0.0961788639   -0.0090706722    0.1126682593
 C    0.0253284080    1.1843721308    0.0190211589
 N   -1.0347167955    2.0782308296    0.1249055893
 C   -0.2523149149    3.2969482633   -0.0788089518
 C    0.4155846839    3.9171931956    1.1811753283
 N    1.5608162760    2.9592127108    1.0993996002
 C    2.7280223874    3.4536557053    0.2887408028
 C    2.3093180141    2.5699413400   -0.9188352960
 C    0.9952837860    2.3611835917   -0.1836782166
 H   -1.9326345376    1.9505962040    0.5710573904
 H   -0.6219487362    3.9501105181   -0.8708265491
 H    0.7180284719    4.9619472026    1.0471295310
 H   -0.1541942205    3.8299397938    2.1111550989
 H    2.6850510781    4.5300948162    0.0817747053
 H    3.6906422461    3.2243492021    0.7524180152
 H    2.2648820079    3.0349248776   -1.9051159963
 H    2.8789935414    1.6402845704   -0.9876746298