18

 O    0.0936406510    1.4178288201   -0.2674416931
 C    0.0456430038    0.0386052561   -0.0001111839
 C    0.2947421489   -0.9068004920   -1.2098288851
 N   -0.9505721389   -1.6371792904   -0.8688265722
 C   -1.3872897338   -0.5541396520    0.0599817551
 C   -1.5717588080   -1.1355817069    1.4617803334
 O   -2.6131084114   -1.3204965610    2.0344681261
 C   -0.1650256259   -1.4238950028    1.9992761243
 C    0.7292166779   -0.3562692589    1.3348096176
 H    1.0083295344    1.7113071230   -0.1896880422
 H    0.2531554680   -0.3422964870   -2.1493071523
 H    1.1972970991   -1.5296742248   -1.1987963729
 H   -1.5841931516   -1.8107979070   -1.6391248356
 H   -2.2049389554    0.0885058936   -0.2736595303
 H   -0.1479820239   -1.4093500331    3.0901435762
 H    0.1099887447   -2.4323817250    1.6708825575
 H    1.7613890336   -0.6904059912    1.1909877042
 H    0.7508686777    0.5416926793    1.9617280933