21

 C    0.4050311026    1.5211749020   -0.2456967990
 C   -0.0049791332    0.0775330934    0.0299247685
 C    0.3061470356   -0.9005761283   -1.1220220876
 C    1.6627953744   -1.4827767749   -0.7040950346
 C    1.5283387267   -1.5301615250    0.8174054640
 C    1.1274397903   -2.8896773941    1.4536113382
 O    2.4493523638   -3.0519289954    2.0057522728
 C    2.8069695312   -1.6979830867    1.6611883914
 O    0.7302029548   -0.4176421067    1.1649162439
 H    1.4462235905    1.5783101257   -0.5802641108
 H   -0.2318714952    1.9617085143   -1.0200857306
 H    0.3073374289    2.1208963792    0.6633615341
 H   -1.0705613890    0.0514394469    0.2898800526
 H   -0.4501717153   -1.6911309673   -1.1664469089
 H    0.3270980420   -0.4053747719   -2.0956842340
 H    1.8798012015   -2.4588083225   -1.1434418866
 H    2.4783066728   -0.8036555022   -0.9780116205
 H    0.3618250243   -2.7802263617    2.2326352686
 H    0.8569805612   -3.7113413815    0.7789772345
 H    3.7660272719   -1.6435297354    1.1320128489
 H    2.8277372000   -1.0347465581    2.5353328751