21

 C   -1.0705478903    1.0958689936   -0.9597650334
 O   -1.3287489435   -0.2488878844   -0.6264965167
 C   -0.7474072977   -0.6323135314    0.5946894046
 C   -1.0428445399   -2.0987469057    0.9172014993
 O   -0.5689625838   -2.5832198410    1.9204717442
 C   -1.8853688537   -2.8748919578   -0.0611842810
 C   -1.1400721377   -3.3933209673   -1.3423749189
 C   -1.8853427510   -4.7443631011   -1.1713504950
 C   -2.2369796044   -4.3407706841    0.2863440290
 H   -1.5581129589    1.2945951264   -1.9168625018
 H   -1.4736144239    1.7864834317   -0.2027437733
 H    0.0086507666    1.2890580575   -1.0608514915
 H    0.3474756195   -0.5027188234    0.5809794164
 H   -1.1264676504   -0.0225851228    1.4325866149
 H   -2.7498014473   -2.2756549838   -0.3564322177
 H   -1.2976202048   -2.8258124866   -2.2602704774
 H   -0.0646326069   -3.4937648119   -1.1694038377
 H   -2.7729243349   -4.7993296718   -1.8079639601
 H   -1.3014630813   -5.6566137795   -1.3135688196
 H   -1.5287265162   -4.7363896563    1.0179293577
 H   -3.2524404594   -4.5390865903    0.6359379180