16

 O    0.1618743568   -0.0715702825   -0.1505046065
 C    0.1815741295    1.1277483633   -0.0876884146
 C    1.4183873306    1.9688664006    0.1458043182
 C    1.6313457121    3.0028750183   -1.0001573847
 O    1.5580619682    4.3051734911   -0.4160822652
 C    1.9011790738    4.1942189245    0.9478445141
 C    1.2671347131    2.8634396824    1.4009915797
 C    3.3695773850    4.1968426053    1.1439717027
 N    4.5158554913    4.1871812343    1.2887990173
 H   -0.7503348384    1.7320087125   -0.2075127624
 H    2.2751983059    1.2992600147    0.2341499820
 H    2.6076865347    2.8464696822   -1.4727473726
 H    0.8593552863    2.9586623977   -1.7747753666
 H    1.4845752141    5.0620501276    1.4664186184
 H    0.2111329504    3.0507903353    1.6204454473
 H    1.7352512067    2.4331459628    2.2867042129