20

 C   -0.0091767724   -3.0306074732    1.0369802688
 C   -0.2498830579   -1.6013247816    1.5233730416
 O    0.7862528258   -0.7178817369    1.0901291429
 C   -1.6101326954   -1.0890960042    1.0882112865
 C   -2.7989375969   -1.1703428604    1.9862721172
 N   -2.2054201938    0.1190935744    1.6496569404
 C   -1.5024422188    0.8562392786    2.6904284785
 C   -2.3464527957    2.0353364142    3.1463803925
 O   -2.2712626541    2.5380330147    4.2367822012
 H    0.9918906400   -3.3615213474    1.3248275477
 H   -0.7450370408   -3.7210447624    1.4607326590
 H   -0.0879292051   -3.0875605374   -0.0557393203
 H   -0.1818249208   -1.5799136096    2.6158054249
 H    0.7745110857   -0.6991727516    0.1262250161
 H   -1.7785664156   -1.1832460337    0.0128842309
 H   -3.7896086514   -1.3652957087    1.5846460661
 H   -2.6329514124   -1.5567035950    2.9920647815
 H   -1.2205217405    0.2700611915    3.5770646532
 H   -0.5738912570    1.2568060716    2.2618691449
 H   -3.0428117332    2.4127342070    2.3647076863