21

 C   -0.0375379648    1.5334338210    0.0229932607
 C    0.0146361949    0.0246170236    0.0027156419
 C    0.9594867936   -0.7765953904   -0.9435262194
 C    0.7437844506   -1.9168617384    0.0731614078
 C    0.6531212178   -0.8327990521    1.1688747536
 O   -0.1971070256   -1.2596476130    2.2164576567
 C   -0.9782304281   -2.3386805397    1.6715730332
 C   -0.7911003094   -2.1801626574    0.1588228104
 C   -1.3048787108   -0.7530142172   -0.2047859114
 H    0.9594056057    1.9667911276    0.1579527847
 H   -0.4491136667    1.9306827957   -0.9125714188
 H   -0.6722283151    1.8909788268    0.8418261991
 H    0.6340450537   -0.9247610965   -1.9769304076
 H    1.9882669429   -0.4051960722   -0.9299061281
 H    1.4048659903   -2.7797289119    0.1526151093
 H    1.5822330297   -0.4318594823    1.5767988841
 H   -0.6003290378   -3.3022756149    2.0454664359
 H   -2.0188993960   -2.2233892428    1.9935193876
 H   -1.1892389516   -3.0009367669   -0.4387001548
 H   -2.1065862923   -0.4202753000    0.4614525638
 H   -1.6605030010   -0.6707576889   -1.2365194287