17

 C   -0.0690495616    1.6215021645   -0.2131717045
 C    0.0476437236    0.1170526253   -0.0031044059
 C    1.1266140394   -0.6993923584   -0.7660473889
 N    1.6534271942   -1.3329273886    0.4983335367
 C    2.1567666186   -0.2338032848    1.3110455080
 C    0.6816268976   -0.4132178363    1.2854640763
 C   -0.0489637091   -0.9268074419    2.4680549487
 O    0.4766941098   -1.4550932203    3.4173644501
 H    0.8918702157    2.1263273793   -0.0730529611
 H   -0.4184448615    1.8463267307   -1.2265270295
 H   -0.7836309807    2.0620689865    0.4905942112
 H   -0.9329055085   -0.3502601421   -0.1440004198
 H    0.7313503387   -1.4639266467   -1.4361784390
 H    1.8871660842   -0.1142066304   -1.2949728457
 H    2.6438598924   -0.5674752617    2.2215601646
 H    2.6013052422    0.6326790663    0.8250097247
 H   -1.1539434251   -0.7909401914    2.4204738942