18

 C   -0.0061121531    1.5030576600   -0.0010883841
 C    0.0387080759    0.0099771174   -0.0391006932
 C   -0.0046605798   -0.7872549789   -1.1067720476
 C   -0.0009089342   -2.2538947654   -0.7552656477
 C    0.4136695579   -2.2502982383    0.7347186130
 C    0.0665767380   -0.8206519750    1.2488870596
 C    0.9820218423   -0.3275296755    2.2722412590
 C    1.7443649536    0.0770479006    3.1099478339
 H    0.8603420778    1.9084074878    0.5335828824
 H   -0.0261102193    1.9278824514   -1.0080784078
 H   -0.8952567451    1.8581955880    0.5365410079
 H   -0.0831540466   -0.4313028467   -2.1290932428
 H   -0.9991048668   -2.6920618476   -0.8999935209
 H    0.6841560075   -2.8442730896   -1.3740817667
 H   -0.0701081204   -3.0307229938    1.3263576711
 H    1.4941976601   -2.3941444129    0.8179583451
 H   -0.9475587130   -0.8156058828    1.6803944366
 H    2.4146547152    0.4316249113    3.8530536520