17

 C   -0.1090244837    1.5002435618   -0.0222329708
 C   -0.0154705369    0.0115253349    0.0385928567
 C   -0.0682166837   -1.0257018397   -1.1015715997
 C    0.8354214128   -1.9838699850   -0.2792883959
 C   -0.2096070091   -2.0291551816    0.8488420042
 C    0.9012027740   -0.9838382326    0.8493527465
 O    1.9381891243   -0.7749860400    1.7215037084
 C   -1.1036346424   -1.0390343836    0.0229053002
 O   -2.4537448521   -0.8008179429    0.0213534232
 H    0.8253913333    1.9496554191   -0.3761815866
 H   -0.9099126437    1.8017729703   -0.7053694963
 H   -0.3375873746    1.9299770783    0.9601058253
 H   -0.1687554847   -0.8424980501   -2.1643090360
 H    1.5386362741   -2.7533063730   -0.5692774124
 H   -0.4174495928   -2.8302690250    1.5464220787
 H    1.5717775896   -0.5408793373    2.5822086585
 H   -2.8885693144   -1.5093455435   -0.4677850041