20

 C   -0.2263031591    1.3396995201   -0.4241877300
 O   -0.0709575523   -0.0342074856   -0.1569983592
 C    0.7054308864   -0.7015125437   -1.1271205951
 C    0.7775938845   -2.1833009292   -0.7647221688
 C   -0.6268892765   -2.8411942327   -0.8005363944
 N   -0.6906700205   -3.3892007853   -2.1441336268
 C    0.5191655115   -3.5660147833   -2.7597357941
 O    0.7053428554   -4.0949896785   -3.8333463507
 C    1.5757500049   -2.9748516377   -1.8174373927
 H    0.7419504231    1.8642349517   -0.4403472502
 H   -0.7258251130    1.5139493945   -1.3901895403
 H   -0.8421923070    1.7609333068    0.3739526852
 H    0.2620881956   -0.5760175399   -2.1306151628
 H    1.7229254530   -0.2772072077   -1.1655201401
 H    1.2090652695   -2.2646928262    0.2356254281
 H   -0.7173384318   -3.6261401010   -0.0367829170
 H   -1.4134466642   -2.1035772476   -0.6213278685
 H   -1.5210722166   -3.8031147058   -2.5368997553
 H    2.2903540855   -2.3711305278   -2.3825632573
 H    2.1355398315   -3.8044792311   -1.3728935100