29

 C    0.5871750186    1.2243335374    0.6851717536
 C    0.4723985937   -0.2761879105    0.4004336402
 C    0.9360457808   -0.6522194816   -1.0125982648
 C    0.8264370403   -2.1522550735   -1.3582934422
 C   -0.6408986777   -2.5574437013   -1.6150174464
 C   -0.9104691245   -4.0643187947   -1.5440940716
 C    1.7220725332   -2.5128657689   -2.5619169449
 C    3.2231271796   -2.5848659791   -2.2533482384
 C    4.0689557299   -2.9231558628   -3.4844642782
 H    1.6213412735    1.5702885645    0.5765218649
 H   -0.0285689482    1.8069910034   -0.0092060331
 H    0.2608098517    1.4656742210    1.7017793780
 H    1.0708691884   -0.8339648209    1.1331122904
 H   -0.5661737541   -0.5928408290    0.5561363484
 H    0.3600582740   -0.0769439625   -1.7525158658
 H    1.9767899887   -0.3243747750   -1.1268708341
 H    1.1848037210   -2.7258363594   -0.4890023645
 H   -1.2888647385   -2.0571600652   -0.8861082701
 H   -0.9442207445   -2.1728583134   -2.5989254911
 H   -0.3253494948   -4.6249316379   -2.2800162056
 H   -0.6607006939   -4.4609619437   -0.5535154143
 H   -1.9663939537   -4.2835863078   -1.7321960462
 H    1.4137835318   -3.4824567668   -2.9724118664
 H    1.5475980550   -1.7804889621   -3.3639384829
 H    3.5693766410   -1.6341641485   -1.8296655757
 H    3.3914192337   -3.3410598832   -1.4749183094
 H    3.7741228909   -3.8864729062   -3.9158165695
 H    3.9518354146   -2.1638973705   -4.2658744508
 H    5.1332262495   -2.9822615918   -3.2353019794