20

 C   -0.0912754693    1.4392437312    0.1845144809
 C    0.0594376200   -0.0798475291   -0.0084150227
 C    0.8413758489   -0.4388635092   -1.2272384606
 C    2.0353193477   -1.0567505386   -1.4313100638
 C    2.1938827187   -1.0565919633   -2.8493925236
 C    3.3186964580   -1.6161257587   -3.6673891001
 C    3.4321532236   -3.1455065513   -3.5632238235
 N    1.1724057379   -0.4826743313   -3.4408407765
 O    0.3104245739   -0.0894916364   -2.4143299968
 H    0.8856562823    1.9171662533    0.3031361494
 H   -0.5858389994    1.8914084533   -0.6788534844
 H   -0.6884563999    1.6540995894    1.0751828016
 H    0.5559634694   -0.5263158710    0.8583245071
 H   -0.9346444486   -0.5384990339   -0.0766531413
 H    2.7058962205   -1.4521357170   -0.6860654282
 H    3.1606070153   -1.3198711071   -4.7083833125
 H    4.2603665406   -1.1570709257   -3.3422066993
 H    3.6039289925   -3.4642189257   -2.5302294858
 H    2.5156642398   -3.6284792193   -3.9145971143
 H    4.2653913280   -3.5113022097   -4.1704569459