20

 C    0.1207781938    1.5740658156   -0.1502656223
 C    0.0899655704    0.0548945242   -0.0158265648
 C    0.6334399536   -0.7113909002   -1.2516948706
 C    1.1638313573   -2.0300023328   -0.7062782420
 N    2.5031107961   -1.8843293925   -0.1029997426
 C    1.3177107859   -1.9236593546    0.7680225555
 C    0.8452614753   -0.5381484550    1.2382844469
 C    1.9272833501    0.2885755227    1.7620432388
 C    2.8000402759    0.9734112497    2.2254043268
 H    1.1459703106    1.9353872202   -0.2705925516
 H   -0.4605213899    1.8931953189   -1.0219904358
 H   -0.3023405786    2.0639542837    0.7325427667
 H   -0.9534064656   -0.2584121320    0.1142535173
 H   -0.1553471241   -0.8619495832   -1.9949872933
 H    1.4454658844   -0.1572809401   -1.7340745477
 H    0.9024935286   -2.9685506775   -1.1849764340
 H    2.9709114198   -2.7871709710   -0.0709511141
 H    1.1815922822   -2.7720510709    1.4307363954
 H    0.1143051725   -0.6726587393    2.0449688222
 H    3.5827371519    1.5697626941    2.6237491390