19

 O   -0.0382766046    1.4114609790    0.0122697348
 C    0.0001423182   -0.0001395179   -0.0004217368
 C   -1.4331469621   -0.5352885447    0.0067942592
 C   -1.3433631043   -2.0865956012   -0.0083015474
 C    0.1400517312   -2.4725407904   -0.0231517936
 O    0.7671731960   -1.9767050576   -1.1897745024
 C    0.7102487684   -0.5477798732   -1.2493592825
 O    0.7850502124   -1.9971913439    1.1422636198
 C    0.7308417528   -0.5694175206    1.2267800905
 H    0.8682299234    1.7403113302    0.0071683312
 H   -1.9513980196   -0.1652671044    0.8957916431
 H   -1.9663294790   -0.1489663975   -0.8662947907
 H   -1.8153900986   -2.5260120326    0.8743227976
 H   -1.8287584153   -2.5096168312   -0.8916948777
 H    0.2948736876   -3.5527407296   -0.0338362931
 H    0.1794988128   -0.2319743131   -2.1571917193
 H    1.7382957081   -0.1581763235   -1.3020789769
 H    1.7600457549   -0.1815031205    1.2685196756
 H    0.2159545177   -0.2686028473    2.1487060185