23

 C    0.6565711955    1.3205256388    0.2768335416
 C   -0.0172558374   -0.0044840931   -0.0901533261
 C    0.5781486730   -0.7093306499   -1.3297056107
 C    1.5388723855   -1.7645489761   -0.7535483345
 C    3.0349395755   -1.3906387665   -0.6577076327
 C    3.5014513958   -2.0607148410    0.6456952308
 C    2.3210317910   -1.8274630054    1.6048993681
 C    1.0571602864   -1.9473534947    0.7169244757
 O    0.0767250176   -0.9473734455    0.9808701149
 H    1.7389169659    1.2098387230    0.3918095303
 H    0.4721748590    2.0718984944   -0.4989689310
 H    0.2519848925    1.6957162587    1.2212385740
 H   -1.0873032644    0.1902388265   -0.2356611243
 H   -0.2204780881   -1.1932137838   -1.8994335695
 H    1.0789818260   -0.0065178799   -2.0019797994
 H    1.4455009799   -2.7074608273   -1.2993635013
 H    3.6032703198   -1.7088613833   -1.5366600495
 H    3.1542755240   -0.3035598709   -0.5777344370
 H    3.6478936288   -3.1357023838    0.4799872805
 H    4.4478946578   -1.6623254858    1.0230706631
 H    2.3095537481   -2.5179042484    2.4525618535
 H    2.3535313287   -0.8118051118    2.0128129907
 H    0.5701036793   -2.9178931042    0.8685927527