16

 C    0.1214800122    1.4796691974   -0.2319537577
 C   -0.0625160523    0.0189013265    0.1143011385
 O    1.0991313854   -0.8197630513    0.0861677298
 C    0.4507157716   -0.6311069615    1.3477686534
 C    1.2229920621    0.0835351148    2.4332580884
 C    2.3494642018   -0.7892936174    2.9709805668
 O    2.5401311455   -0.9976246615    4.1391347405
 C   -1.2426526269   -0.5877858062   -0.4891660605
 N   -2.1930639539   -1.0402417419   -0.9659481039
 H    1.0273296478    1.8786020081    0.2252622408
 H    0.2069432444    1.5939620419   -1.3160664143
 H   -0.7396893204    2.0633169778    0.1058869085
 H   -0.0978026648   -1.5106011761    1.6877155797
 H    1.6822827791    0.9957735433    2.0364275235
 H    0.5642600090    0.3544844093    3.2632848821
 H    3.0064587596   -1.2227902032    2.1858698245