19

 C   -0.8095737855    1.2399536870    0.0784313773
 C   -0.0189718904   -0.0418376889   -0.1071841979
 C    1.2158741414   -0.0528318296   -1.0650511497
 C    2.0713838086   -0.7805251804    0.0112016369
 C    2.9601305866    0.1313452222    0.8778555537
 N    1.7509267455    0.6054959555    1.6036752544
 C    0.9222400997   -0.5018495810    1.0494314359
 C    0.4397511751   -1.4722382484    2.0089879032
 N    0.0526142083   -2.2417111064    2.7822733664
 H   -0.1533851600    2.0399781379    0.4314820176
 H   -1.2650831012    1.5521876078   -0.8672582762
 H   -1.6147169803    1.1085544468    0.8094252937
 H   -0.6827816439   -0.8754574914   -0.3595888804
 H    1.0703327057   -0.6029154548   -1.9963606773
 H    1.5943054532    0.9444562506   -1.3060741608
 H    2.4220409231   -1.7832885571   -0.2218672793
 H    3.6603878859   -0.4394226997    1.5006832583
 H    3.5095522035    0.9269547869    0.3624760757
 H    1.8215846646    0.6174089631    2.6139810684