19

 O    0.5719249726    0.7313578011   -0.7777690434
 C    0.0704437575   -0.2883713341    0.0471734357
 C    0.0483620337   -0.0924849932    1.6014018752
 C   -1.3737295638   -0.6732156370    1.6075725701
 C   -1.9094960216   -1.7715180899    2.4381544790
 N   -2.4781220650   -0.4060109362    2.5201205672
 C   -1.4479561045   -0.5342383336    0.1042988455
 C   -2.4744330394    0.1673503873   -0.6992063146
 N   -2.3046744647   -1.2989711376   -0.7865309314
 H    0.0808797267    1.5366758150   -0.5799317240
 H    0.6198265183   -1.1926939823   -0.2327007662
 H    0.8161001210   -0.6119880335    2.1788900087
 H    0.0650553962    0.9723911087    1.8607735719
 H   -2.5669979758   -2.5067530547    1.9837544242
 H   -1.3031156156   -2.1354185687    3.2641792571
 H   -2.1331011893    0.0628207845    3.3551076496
 H   -3.3922107973    0.4916116589   -0.2181517123
 H   -2.1366678523    0.7770279097   -1.5342639632
 H   -1.7971575866   -1.5384356844   -1.6363258689