19

 C    0.5714623493    0.8252606253    1.5793361403
 C    0.4044826604   -0.2541620890    0.5330731371
 C    0.0828398783    0.0179542567   -0.8993881616
 C   -0.1133691674    1.4046402940   -1.4706178848
 C    1.4724436259   -0.5432061304   -0.5398231467
 C    2.7010305725    0.2765058645   -0.6599844247
 O    2.7776196172    1.4755122470   -0.4493412107
 C    3.8847276730   -0.4709004207   -1.0676365635
 C    4.8627712179   -1.0871547663   -1.4041899397
 H    1.1080251168    1.6924436009    1.1954678056
 H   -0.4101443033    1.1507122691    1.9414119055
 H    1.1306912266    0.4411726320    2.4388497462
 H   -0.0245930257   -1.1724849918    0.9273019707
 H   -0.5414578437   -0.7352058339   -1.3746158499
 H    0.6001644009    2.1221107131   -1.0664306559
 H    0.0085201727    1.3905223766   -2.5587207390
 H   -1.1279676284    1.7580238158   -1.2554919058
 H    1.6317941644   -1.5894764800   -0.7743569108
 H    5.7357932426   -1.6161680129   -1.7004546324