18

 O   -0.0956288527    1.4625798882    0.0051498910
 C    0.0063633345    0.0463089837   -0.0342222061
 C   -1.3561179951   -0.5982352373   -0.1439389317
 C   -1.9571837745   -0.8439313205   -1.5286492635
 C   -1.2074892319   -1.9342162065   -0.7820640925
 N   -0.0319660958   -1.7843442212   -1.7026855519
 C   -0.8567119741   -0.8729976800   -2.5957005957
 C    0.2333360831    0.2095086522   -2.5570899007
 C    0.7251713195   -0.5190277675   -1.2850779742
 H    0.7846488826    1.8217657613    0.1554328973
 H    0.4968732536   -0.3145019497    0.8836343419
 H   -2.0709058888   -0.4728486443    0.6615461988
 H   -3.0212841308   -0.7258614950   -1.6946726220
 H   -1.5049769187   -2.8940702639   -0.3783597140
 H   -1.1732529024   -1.2893420714   -3.5559709504
 H    0.9285906372    0.1057251425   -3.3929795699
 H   -0.0660965367    1.2506055565   -2.4380080394
 H    1.7989726109   -0.6640768071   -1.1471255971