17

 C    0.1335363199    1.4794761844    0.2589612033
 C   -0.0055717907   -0.0194375611    0.0883996402
 O   -1.3419829185   -0.4216130704   -0.0157038912
 C    0.7327944248   -0.8138723893   -1.0705117905
 C    2.1423702588   -1.3941868603   -0.8693186319
 C    3.0802001440   -0.9421484115    0.2535721932
 N    2.0941308802   -0.4274967598    1.2376273360
 C    0.9778551844   -0.9259031436    0.8727239938
 N    0.9923875793   -1.9856953968   -0.1841518049
 H    1.1798304523    1.7821261218    0.2694909244
 H   -0.3933158848    1.9862243755   -0.5555259060
 H   -0.3130080085    1.7985315222    1.2083110170
 H   -1.8645885633    0.1142261324    0.5902315815
 H    0.2064172025   -0.9630316904   -2.0122013151
 H    2.5400787127   -1.9453967371   -1.7195016897
 H    3.6791678477   -1.7941080041    0.6050252291
 H    3.7654371293   -0.1265754821    0.0024835708