22

 C   -0.0906358493    1.6129886653    0.0826445850
 C    0.0237758581    0.0927384379   -0.0728716187
 C    0.6798679397   -0.5670766239    1.1314639010
 C   -0.0589889989   -0.5924961846    2.4967829914
 C    0.4940942580   -2.0194927603    2.7495625194
 C   -0.3813120252   -3.0537795831    3.4354577217
 C    0.7901833484   -2.1360679952    1.2060632621
 C   -0.2398705697   -2.8402563835    0.4580763048
 N   -1.0668043074   -3.3974116413   -0.1291311802
 H    0.8952297569    2.0771421958    0.1981876736
 H   -0.5703211607    2.0626881929   -0.7915756581
 H   -0.6869968391    1.8788454240    0.9620040512
 H   -0.9711845634   -0.3409883479   -0.2275968028
 H    0.6030096874   -0.1439595062   -0.9747495507
 H    1.6906056868   -0.1659188820    1.2676139068
 H    0.1860357744    0.1816215357    3.2271166675
 H   -1.1455252053   -0.6110381748    2.3556009976
 H    1.4627543813   -1.9529696786    3.2554384022
 H   -1.3384548805   -3.1705193358    2.9183770040
 H    0.1050405015   -4.0347041122    3.4644230887
 H   -0.5874597209   -2.7522163523    4.4680475829
 H    1.7614484480   -2.5596140201    0.9370480704