19

 C    0.0056454953    1.4049840042    0.2266690954
 N   -0.0420329312    0.0607707923   -0.3261674858
 C   -1.2212302036   -0.6771766472   -0.1464930614
 C   -1.3284157463   -2.0470768210   -0.0736670132
 N   -2.6844408669   -2.3709633417    0.0058072985
 C   -3.2232989507   -3.7012182692    0.1720770970
 C   -3.3981281305   -1.2150191447    0.0098413193
 O   -4.7524990489   -1.2989789374    0.1124371535
 C   -2.5471206168   -0.1361017560   -0.0844603285
 H    1.0064622468    1.8172833905    0.0719469797
 H   -0.6984081479    2.0536442741   -0.3049795613
 H   -0.2336637185    1.4586045387    1.3017261927
 H    0.7733986544   -0.4781928196   -0.0692910492
 H   -0.5805978781   -2.8222109065   -0.0976272210
 H   -3.0724552302   -4.0779557334    1.1914551516
 H   -4.2932991345   -3.6812426019   -0.0365339425
 H   -2.7405929728   -4.3897080728   -0.5281500395
 H   -5.1133557250   -0.4143991409    0.0054218740
 H   -2.8377779346    0.9015478524   -0.1199775693