10

 N    0.0108497489    1.3943703779    0.1621156316
 C    0.0332424890    0.0155031727    0.0404512413
 N   -1.0827180164   -0.6816677423   -0.0014689543
 O   -0.6793839242   -2.0238022337   -0.0341124750
 C    0.6564566941   -2.0719119304   -0.0267408607
 C    1.1884286030   -0.8271750594    0.0197781978
 H    0.7469407741    1.8671975670   -0.3421094577
 H   -0.8967906265    1.7905379653   -0.0435305239
 H    1.0923135820   -3.0591849108   -0.0537950946
 H    2.2265829160   -0.5417152761    0.0506697054