20

 C   -0.4257639795    1.7073543268   -0.0234852110
 C    0.0585996560    0.2553736303    0.0082169047
 C   -1.1404868946   -0.7052139718   -0.0418267931
 O   -1.8584856749   -0.4798640682   -1.2463349445
 C    1.0222157764   -0.0653823484   -1.1720612463
 N    1.9159564108   -1.0619386512   -0.6093999901
 C    1.9659049961   -1.0887530042    0.7582069228
 O    2.7080064242   -1.7674283636    1.4337085562
 C    0.9124099616   -0.0889624560    1.2477317337
 H    0.4187501071    2.4029217053    0.0103789990
 H   -1.0023926583    1.9044779672   -0.9309406734
 H   -1.0711369927    1.9206096650    0.8356943523
 H   -0.7819811260   -1.7443477991    0.0156728976
 H   -1.7771432867   -0.5217889983    0.8382135654
 H   -2.5731231983   -1.1205065438   -1.2981426218
 H    0.4724988474   -0.4496858966   -2.0350020681
 H    1.5661281599    0.8362212676   -1.4877914866
 H    2.6031939279   -1.5629062488   -1.1499480797
 H    1.4348443266    0.7930868482    1.6350433283
 H    0.3414511469   -0.5138351905    2.0776370947