27

 C   -1.1936640984    0.4114448604   -1.3611862754
 C    0.0364736032   -0.3333259399   -0.8608481202
 C    1.4447780309    0.2173973373   -1.1968628498
 C    1.9504033384   -0.2604339237    0.1977550840
 C    2.6108733754   -1.6417557818    0.0966660036
 C    2.8923460871    0.6848627850    0.9439444240
 C    0.4271308466   -0.3231642779    0.6604889248
 C   -0.0295212099    0.9542080965    1.3764962084
 C   -0.0262045910   -1.5342926360    1.4765012301
 H   -1.1734774907    1.4694996328   -1.0816999542
 H   -1.2541629961    0.3620448231   -2.4544060436
 H   -2.1184956410   -0.0216022393   -0.9627876848
 H   -0.0315308064   -1.3764869505   -1.1908533772
 H    1.9525552840   -0.1917603329   -2.0757082203
 H    1.4440325227    1.3094907652   -1.2794294277
 H    3.5842559714   -1.5535040361   -0.3995327819
 H    2.7832152968   -2.0801062902    1.0857597943
 H    2.0135889666   -2.3513354971   -0.4834169244
 H    2.5021724873    1.7038671076    1.0053811837
 H    3.0839518697    0.3368968337    1.9663042359
 H    3.8604770069    0.7349759420    0.4316947316
 H    0.2308078008    1.8654512177    0.8308279597
 H   -1.1171648977    0.9509717106    1.5078478142
 H    0.4204730378    1.0262747376    2.3725417256
 H    0.4097060096   -1.5270434965    2.4829732837
 H   -1.1162681128   -1.5265345833    1.5969282147
 H    0.2440813188   -2.4812434141    1.0022042912