18

 C   -1.0475970678    0.6615808128   -0.1761289766
 C    0.2791600654   -0.0297887263   -0.0387809909
 C    0.6263596332   -0.6989137698    1.2676430304
 N   -0.3554708407   -1.7344555465    1.5929452504
 C   -0.0740435885   -3.0647347101    1.0607567728
 C    0.0963817327   -2.7737071573    2.5113574307
 N    1.1746536386   -0.1048099574   -0.9481626106
 O    0.7926180475    0.5674497363   -2.1203386053
 H   -0.9377093265    1.7374386348    0.0079092077
 H   -1.4399080552    0.5469889610   -1.1884264063
 H   -1.7562439248    0.2547605443    0.5471083104
 H    1.6549321975   -1.0864310493    1.2012050421
 H    0.5965064187    0.0437518702    2.0768717841
 H   -0.9354807128   -3.6240999158    0.7077892487
 H    0.8286512952   -3.1914661383    0.4660939492
 H    1.1158969411   -2.7120459359    2.8887894256
 H   -0.6369410525   -3.1164200598    3.2358612189
 H    1.5386747489    0.3928951270   -2.7034549313