18

 C    0.1599064913    1.2489614786   -0.2267172821
 N    0.3509676294   -0.1919585919   -0.1208329174
 C    0.5813148011   -0.7015902444    0.9963957920
 O    0.6942707186   -0.1435726292    2.2532106107
 C    0.9139446966   -1.4596407615    2.8626104936
 C    0.8012741705   -2.1285252370    1.4846043592
 C   -0.3875499403   -3.0604284031    1.2507486086
 C   -0.5662776983   -3.5192230173   -0.1776250529
 O   -1.1290170875   -3.3706968026    2.1526192447
 H    0.9155356132    1.6612347046   -0.9041140189
 H   -0.8177742968    1.4464603623   -0.6789949739
 H    0.2191042351    1.7774632877    0.7313275976
 H    1.8904657297   -1.5034577029    3.3482291719
 H    0.1104760304   -1.7151800058    3.5543281303
 H    1.7178953785   -2.5760934963    1.0912586325
 H    0.2746880874   -4.1594614321   -0.4698151062
 H   -1.4995003134   -4.0737324932   -0.2805154314
 H   -0.5513179356   -2.6489520658   -0.8432413082