21

 C    0.0424630003    1.5332155550   -0.0802203951
 O    1.4330489811    1.8185219159   -0.2033889509
 C    2.1632057233    0.8702807462    0.5777806803
 C    1.1990594158   -0.2594335417    0.8639081614
 C    1.2925060478   -1.2293122528    1.7674636957
 C    0.1804847418   -2.2169755810    2.0219733084
 C   -0.9844648241   -2.0858587759    1.0231234478
 C   -1.2794023676   -0.6176339712    0.6714873497
 C   -0.0385192695    0.0052162414    0.0341331036
 H   -0.3822859576    2.0089991423    0.8202723650
 H   -0.4587985452    1.9463222154   -0.9598711769
 H    3.0372792350    0.5570632468   -0.0074905988
 H    2.5315473216    1.3310658252    1.5070621493
 H    2.1805228457   -1.3157683675    2.3916195746
 H    0.5738276703   -3.2417896416    2.0034908431
 H   -0.1864253438   -2.0696964620    3.0491053424
 H   -0.7314268908   -2.6217990680    0.0995563740
 H   -1.8779406774   -2.5710212750    1.4294926442
 H   -2.1422951740   -0.5515206756   -0.0003069628
 H   -1.5385163169   -0.0628473554    1.5831627880
 H    0.1020721942   -0.4110766205   -0.9748409029