23

 C    0.0319337015    1.3607489459    0.1643081946
 O   -0.0174646282   -0.0402944471    0.2643514459
 C   -1.2666575861   -0.5748722878   -0.1192033321
 C   -1.2199314845   -2.0891026795    0.0291237269
 C   -2.5400708476   -2.7600498415   -0.3684149253
 C   -2.4949203636   -4.2679535877   -0.2336858994
 C   -2.7147209899   -4.9252846211    1.1177000000
 C   -3.7438917319   -5.0600875434    0.0221419516
 O   -4.9432240494   -4.3434920989    0.1087981798
 H    1.0298655608    1.6786685873    0.4770035776
 H   -0.1426443283    1.7056843671   -0.8679367335
 H   -0.7144255211    1.8457832888    0.8144463155
 H   -2.0726405499   -0.1523080230    0.5071474422
 H   -1.4972376403   -0.2967278368   -1.1631660739
 H   -0.3973389353   -2.4743804852   -0.5859561184
 H   -0.9726556992   -2.3339660029    1.0686429300
 H   -3.3619449409   -2.3709076622    0.2417178899
 H   -2.7864368405   -2.5001165411   -1.4069877782
 H   -1.7654967629   -4.7530552964   -0.8781768012
 H   -2.1209936114   -5.7892305869    1.3963335397
 H   -2.9736242152   -4.2666390668    1.9412035554
 H   -3.8323160335   -6.0285427488   -0.4707622389
 H   -5.4753624327   -4.7415782521    0.8051154217