18

 C    0.5067036033    1.2677092260    0.1946839008
 N   -0.1286039221    0.0344036510   -0.2328676853
 C    0.5238191873   -0.8315060318   -1.0779255831
 O    1.5764451047   -0.5682364682   -1.6380652241
 N   -0.1125008727   -2.0508884407   -1.2523220161
 C    0.3530631346   -2.9355005070   -2.3085103270
 C    1.6461239488   -3.6704426139   -1.8907366416
 C    2.0818779757   -4.6235311969   -2.9062937147
 N    2.4018819881   -5.3781926861   -3.7209825013
 H    1.0107709444    1.1663664251    1.1645416917
 H    1.2530603053    1.5308947882   -0.5548772375
 H   -0.2334885475    2.0700876352    0.2649352708
 H   -0.8504819874   -0.3416119208    0.3605028172
 H   -1.0940661007   -2.1009637954   -1.0313855783
 H   -0.4357251986   -3.6636064950   -2.5112540617
 H    0.5492929817   -2.3758836218   -3.2290463586
 H    2.4283989806   -2.9244913917   -1.7259808789
 H    1.4834702344   -4.2010677960   -0.9466419923