15

 C    0.0128736819    1.5769459956   -0.0150271292
 C    0.0541504990    0.0300842381    0.0010416323
 C    0.6448723678   -0.4829297666   -1.2409903525
 N    1.1215183749   -0.8628997857   -2.2224634312
 C    0.7994482082   -0.4961755318    1.2034998811
 N    0.1153439737   -0.8832189800    2.2538198864
 O    1.0593486512   -1.2573220335    3.1996277570
 C    2.2841828905   -1.0874060602    2.6815855314
 C    2.2036830352   -0.6049208716    1.4167477674
 H    1.0224952321    1.9919377845   -0.0645155627
 H   -0.5521389171    1.9335686557   -0.8793292847
 H   -0.4691244356    1.9318808899    0.8984360572
 H   -0.9717353858   -0.3480039266    0.0660614417
 H    3.1076779806   -1.3555220020    3.3250223426
 H    3.0037412833   -0.3785492359    0.7323902131