18

 C   -0.0598157481    1.4117679177    0.0120986779
 N    0.0668768609   -0.0357702783   -0.0651000103
 C    0.6247878614   -0.6260153845    0.9046895023
 C    0.8431797173   -2.1248531684    0.9972375632
 O    1.5020507938   -2.3335522230    2.2530911296
 C    1.6878724818   -1.1381227170    2.8913196256
 N    1.1627472434   -0.1378668437    2.0792007809
 N    2.2283126503   -0.9337995911    4.0065123919
 C    2.7434435392   -2.0560788154    4.7712595675
 H    0.9182794191    1.9126233735    0.0810685081
 H   -0.5568722839    1.7817939059   -0.8873667731
 H   -0.6590991137    1.7320318006    0.8784543132
 H   -0.1036083943   -2.6729630339    0.9843466825
 H    1.4775068235   -2.4919466008    0.1849139657
 H    1.1963582168    0.8254257683    2.3638374340
 H    2.6102684514   -3.0303454028    4.2873566786
 H    3.8126903087   -1.9055007527    4.9600442318
 H    2.2505129824   -2.0842822544    5.7499430104