15

 O   -0.1595907114    0.0031179651    0.2620781842
 C   -0.0334666173    1.1984387320    0.0997543079
 N    1.1456577162    1.8400916950   -0.1225330344
 C    2.4172592755    1.1707287844   -0.1807300487
 C    3.2696865612    1.2863605653   -1.5072973931
 C    4.3490297422    1.9932380238   -0.6842635464
 O    3.7317691686    3.1486094390   -0.0950392770
 C    3.5654289209    1.8802754957    0.5561548166
 H   -0.8867589740    1.9047723986    0.1165554824
 H    1.1505019627    2.8421920751   -0.2385759627
 H    2.2618096347    0.1359344587    0.1227873089
 H    3.5698753974    0.3076597557   -1.8879315832
 H    2.8330740107    1.8803852765   -2.3131961169
 H    5.4211562304    2.0277352644   -0.8315288354
 H    3.8628713123    1.8133936808    1.5962223978