19

 C    0.0176182650    1.5448425281    0.2238360224
 C   -0.0121131245    0.0156593021    0.0384732870
 C    0.6757940151   -0.4709052479   -1.2011275872
 C    0.1074581829   -0.7989769503   -2.3980167304
 N   -1.2182238948   -0.8063936976   -2.8283193718
 O    1.0250606786   -1.2514031962   -3.2799718709
 C    2.2509636294   -1.2118466385   -2.6372051964
 C    2.0859027274   -0.7399750992   -1.3730657326
 N    3.0393683851   -0.6279266233   -0.3482333234
 H    1.0449100431    1.9235651944    0.2675314082
 H   -0.4760713221    2.0539043308   -0.6107714845
 H   -0.4874579652    1.8417576126    1.1491454092
 H    0.4502555925   -0.4587797042    0.9135277378
 H   -1.0548690282   -0.3240060034    0.0247690697
 H   -1.6891927819    0.0782111861   -2.6875601894
 H   -1.2846048042   -1.0790034472   -3.8007353715
 H    3.0905089703   -1.5785241973   -3.2010377480
 H    3.9893692011   -0.6964505572   -0.6902339838
 H    2.9422418805    0.2297267282    0.1811436056