20

 C   -0.2689543652    1.5865326218    0.0761852878
 C   -0.0144474369    0.0746806117   -0.0141192852
 N   -1.2091650017   -0.7628237941   -0.0114885890
 C   -1.9989912493   -0.7626489915   -1.2253512418
 C   -1.9233523232   -0.8621949148    1.1818419205
 C   -3.2745715514   -1.1327966115    1.3465587221
 N   -3.4873971136   -1.1954235929    2.6922977347
 N   -2.3858139628   -0.9698476396    3.4154199607
 C   -1.4295227641   -0.7658605438    2.5117793772
 H    0.6792204326    2.1340876970    0.0824149496
 H   -0.8558147676    1.9428163506   -0.7765115990
 H   -0.8133045899    1.8358236911    0.9916473237
 H    0.5403734297   -0.1545870687   -0.9310882131
 H    0.6265556720   -0.2426626646    0.8151178866
 H   -2.6042068559   -1.6749338565   -1.2738039281
 H   -2.6836751227    0.0991195692   -1.3115917527
 H   -1.3319442985   -0.7580849091   -2.0916585488
 H   -4.0716043727   -1.2821160069    0.6384701093
 H   -4.3540422789   -1.3813817300    3.1656903849
 H   -0.4236712000   -0.5572489272    2.8419826406