20

 C   -0.0323416370    1.5153580328    0.0667973628
 C    0.0055679949    0.0133000786   -0.0037227195
 C   -0.0108449787   -0.6593542495   -1.1633175572
 C    0.0331279119   -2.1311559498   -1.2838806238
 C    1.2856068011   -2.9175557586   -0.9298741433
 C    0.1025025427   -2.9536411556   -0.0053253699
 C    0.1220423054   -2.2048909842    1.2973208479
 N    1.3224114757   -1.4227677469    1.6327233960
 C    0.0565744735   -0.7139988922    1.2909917198
 H    0.8746063532    1.9128258830    0.5405804990
 H   -0.1185864910    1.9620699131   -0.9275395632
 H   -0.8795942594    1.8657096300    0.6709912413
 H   -0.0642348643   -0.0981109635   -2.0942924123
 H   -0.5540191990   -2.5410405297   -2.1011523129
 H    1.5025548484   -3.8040654820   -1.5158386312
 H    2.1459679725   -2.3533370012   -0.5912101508
 H   -0.4870723053   -3.8638291007    0.0135419633
 H   -0.3876996772   -2.7077208275    2.1151161859
 H    1.4536577590   -1.4139595795    2.6415050321
 H   -0.4569006664   -0.2263207366    2.1178585960