16

 O    0.0668156675    1.1151242592   -0.7515091016
 C    0.1286896901   -0.0716675455    0.0280171541
 C   -1.2602549130   -0.5897873655    0.3093474475
 O   -1.8919099802   -1.3358285144   -0.7520182883
 C   -1.6331477847   -2.0067535423    0.4753960409
 C   -0.6998700059   -3.1803125819    0.4538422347
 C   -0.5761868162   -4.0253062826   -0.7433672859
 O    0.4661494719   -3.1246586607   -0.3589519730
 H   -0.3035154955    0.8696257823   -1.6062446122
 H    0.7293826435   -0.8503410231   -0.4505471268
 H    0.6105359094    0.2104763108    0.9708782663
 H   -1.9224374163    0.1523980391    0.7597567135
 H   -2.5259037763   -2.2106896567    1.0735734338
 H   -0.5491246657   -3.6406043257    1.4318644573
 H   -0.3407756097   -5.0827472096   -0.6395678127
 H   -1.1218999390   -3.7375546333   -1.6388921374