16

 C   -0.1655118357    1.2167680062   -0.3180282838
 C   -0.0147675168   -0.2207241282   -0.1719050225
 C    0.1152597744   -1.4130972462   -0.0469971257
 C    0.2252832477   -2.8231718823    0.0686418645
 C   -0.7623772899   -3.7505453358   -0.6353195735
 C   -1.7981544870   -3.0919428885   -1.4145126072
 C   -2.6670210868   -2.5807263868   -2.0671482128
 N    1.1895218617   -3.2822434359    0.7895671488
 O    1.1761137675   -4.6793757612    0.8141600473
 H    0.7081682394    1.6578069725   -0.8108161587
 H   -1.0482627438    1.4606331339   -0.9186000093
 H   -0.2772742443    1.7037434665    0.6571214661
 H   -0.1819409872   -4.4323184259   -1.2700492458
 H   -1.2120911332   -4.3972118656    0.1290060957
 H   -3.4323260360   -2.1218744678   -2.6422807878
 H    1.9323965098   -4.8805739648    1.3756275346