20

 C    0.4041042215    1.5744545564    0.3273141942
 C    0.2001368691    0.0760091077    0.1350489650
 C    1.0564850044   -0.7144210216   -0.9167941587
 C    2.0615809553    0.0260286583   -1.7841670294
 N    1.5777913355   -1.6568427488    0.1465697557
 C    2.8762634754   -1.2719787531    0.7825550836
 C    2.1140920735   -0.4824330297    1.8633160248
 O    2.4179594967    0.1618318547    2.8229543209
 C    0.7915748187   -0.8935079046    1.1980521409
 H    1.4514528372    1.8393412768    0.4967463947
 H    0.0532809798    2.1296192603   -0.5488477478
 H   -0.1620693002    1.9287298296    1.1949167761
 H   -0.8665385823   -0.1190543303   -0.0068787339
 H    0.4101175982   -1.2999036265   -1.5790747887
 H    2.6784908756    0.7373771915   -1.2285967501
 H    2.7281687843   -0.6854024670   -2.2840033163
 H    1.5349558979    0.5882673890   -2.5621005238
 H    3.4050913110   -2.1461470462    1.1804578532
 H    3.5807280806   -0.6996164728    0.1720372848
 H    0.0877062380   -1.4435671838    1.8297408447