18

 C   -0.1123148884    1.5240325952    0.0445454006
 C   -0.0146306240    0.0353548820    0.0148459928
 C    0.7248474974   -0.8733439829   -1.0327939969
 C    1.8382398335   -1.1825428551   -0.0009419166
 C    0.7282608324   -0.8802894704    1.0434102870
 O    0.9739666376   -0.4440907471    2.3365252753
 C   -0.4436313663   -1.8481013281    0.7474792875
 C   -0.4439201060   -1.8344131513   -0.7390640976
 N   -1.2834527077   -0.8414628248    0.0147217400
 H    0.8822162886    1.9818622853    0.0153278761
 H   -0.6869888024    1.8901806485   -0.8127879969
 H   -0.6134841177    1.8554691665    0.9597018852
 H    0.9333992662   -0.5785311089   -2.0586435954
 H    2.2990529220   -2.1751414836   -0.0124698971
 H    2.6083961423   -0.4048827821    0.0131418530
 H    1.2746168486   -1.1913085149    2.8656786434
 H   -0.8813956032   -2.6144074455    1.3770852961
 H   -0.8883739928   -2.5948994326   -1.3701826267