27

 C    0.1535624052    1.5135247748   -0.1786697342
 C    0.1760932608   -0.0074517897    0.0052189843
 C    0.6704602825   -0.4923456760    1.3824825128
 C   -0.2649948070   -0.0423772960    2.5146752882
 C    0.8618850108   -2.0211391100    1.3653058599
 C    1.5648142043   -2.6103307492    2.5967768085
 C    1.8151093858   -4.0996540761    2.4739521936
 C    3.0364141416   -4.6149000382    1.7539077525
 C    2.9213410576   -4.7628286921    3.2526421361
 H    1.1424126120    1.9483104536    0.0075544257
 H   -0.1362739270    1.7783505050   -1.2005661496
 H   -0.5551682276    2.0017390068    0.4970824563
 H   -0.8289827471   -0.4138420282   -0.1760505381
 H    0.8209799802   -0.4452016357   -0.7675673218
 H    1.6576234493   -0.0363960039    1.5573080891
 H    0.1093919180   -0.3454624762    3.4964887607
 H   -0.3798319828    1.0450312546    2.5357902684
 H   -1.2632820329   -0.4801871249    2.3893074454
 H   -0.1190311774   -2.5035481006    1.2428907502
 H    1.4439002167   -2.2935516048    0.4752812382
 H    2.5248025875   -2.0967432973    2.7477018487
 H    0.9722075769   -2.4201900414    3.5002566655
 H    0.9118459179   -4.6922192752    2.3446999583
 H    2.9451989515   -5.5036813420    1.1391807370
 H    3.7434616964   -3.8847178060    1.3722989133
 H    3.5515401925   -4.1326279122    3.8722925761
 H    2.7488404341   -5.7524389192    3.6615903150