21

 C    0.6868862096    1.4114790127   -0.3887493317
 C    0.0193107453    0.0999388540    0.0214969493
 O    0.0622359738   -0.8317634958   -1.0833535742
 C    0.8842513524   -1.9176227196   -0.7635860280
 C    2.3390730516   -1.6531093055   -0.4095919451
 C    1.3097032825   -1.8603788084    0.6701827561
 O    1.4921066047   -2.9756732986    1.4883306599
 C    0.6132955150   -0.6372988157    1.2637059246
 C    1.4815308639    0.1910962377    2.2123756115
 H    1.7600577442    1.2995528454   -0.5636341330
 H    0.2317043119    1.7666622716   -1.3173377638
 H    0.5417055852    2.1788337247    0.3782111125
 H   -1.0422657511    0.3107726587    0.1988292962
 H    0.6061913677   -2.8320512594   -1.2755724598
 H    3.0195397411   -2.4854874168   -0.5547425924
 H    2.7675464546   -0.6729904398   -0.5835155953
 H    0.6218162116   -3.3108078578    1.7347824350
 H   -0.2306101609   -1.0361988551    1.8448481609
 H    2.3467077661    0.6206589553    1.7002221266
 H    0.9168230578    1.0101364486    2.6689415209
 H    1.8550935031   -0.4495608264    3.0168678597