12

 C   -0.0746154216    1.4658390505    0.0109010699
 C   -0.0082888754    0.0159646011    0.0027911402
 C    0.0431229532   -1.1890916669   -0.0039289677
 C    0.1093255057   -2.5901716195   -0.0117657002
 C    1.1559781909   -3.4716502163   -0.0224552736
 N    0.6208090519   -4.7314343963   -0.0260668373
 N   -0.6382900346   -4.6798089065   -0.0186376457
 O   -1.0252430069   -3.3105516160   -0.0091604316
 H    0.9283002785    1.9052914411    0.0025524816
 H   -0.6141737200    1.8383379526   -0.8667093690
 H   -0.5954550281    1.8293098148    0.9034851057
 H    2.2162134963   -3.2903158686   -0.0275487424