19

 C    0.0301275813    1.6327838093    0.0074626450
 C    0.0292620590    0.1113006771   -0.0459689156
 C    1.1191025919   -0.5944701322   -0.9388496906
 C    1.6309508865   -1.3059134151    0.3169925767
 O    2.0045138469   -0.2936780415    1.2642462146
 C    0.6174358200   -0.6493586136    1.1639963822
 C   -0.0533766541   -1.1160998141    2.3984130086
 C   -1.1924873908   -0.4036515780    2.9955431551
 O   -1.3918128811   -1.5988676916    2.2394245058
 H    1.0113251250    2.0012062273    0.3201924272
 H   -0.1960090282    2.0558965420   -0.9769423755
 H   -0.7187645390    2.0152065051    0.7095147604
 H   -0.9643394381   -0.2802383368   -0.2809676253
 H    0.6873006186   -1.2729006251   -1.6778696501
 H    1.8468511730    0.0620518376   -1.4229693759
 H    2.1128864263   -2.2721022968    0.4163310203
 H    0.5803780181   -1.7185351198    3.0495371435
 H   -1.3744071095   -0.4890696317    4.0657681547
 H   -1.5614143259    0.5089320780    2.5312151290