23

 C   -0.3095614597    1.2195065782    0.1809294801
 O    0.4743656271    0.0756205275   -0.0982710971
 C    0.8922436015   -0.5888770783    1.0545107323
 C    0.0389893037   -1.6964666992    1.6420922460
 C   -1.3195423255   -2.0454198912    1.0686323366
 C    1.3200047672   -2.0190440593    0.8864907893
 C    1.2918460980   -2.6951459449   -0.4720411281
 C    2.6163558573   -2.5161274649   -1.2155455347
 O    0.9399036869   -4.0761460373   -0.3556547268
 H    0.2508070705    1.9514044510    0.7822780309
 H   -0.5687241538    1.6741911481   -0.7780813390
 H   -1.2313085457    0.9611872348    0.7199083531
 H    1.4587897073    0.0449066486    1.7396492300
 H    0.1093446573   -1.8056219513    2.7216677672
 H   -1.4425088614   -1.6451156174    0.0595696241
 H   -1.4541130298   -3.1295963645    1.0148993779
 H   -2.1192748461   -1.6295294696    1.6903205771
 H    2.1698674791   -2.3237328346    1.4969655973
 H    0.4935592159   -2.2593712120   -1.0760784220
 H    3.4523725553   -2.9197820395   -0.6298402435
 H    2.5868236977   -3.0410711006   -2.1743453018
 H    2.8128531671   -1.4552748854   -1.3982102469
 H    1.6114903801   -4.5015892182    0.1888555480