17

 C   -0.0723050267    1.5406750454    0.0316965519
 C   -0.0218646344    0.0106560723    0.0086654800
 C    0.8671215936   -0.5295699636   -1.1471275052
 N    2.1900617698   -0.6143633468   -0.5364759894
 C    2.1712890353   -0.5711671259    0.8190400362
 O    3.1094683785   -0.5173596955    1.5904140885
 C    0.6986429434   -0.5704778400    1.2441460482
 O    0.5238371771    0.1391680645    2.4394424977
 H    0.9345012370    1.9717281016    0.0429852421
 H   -0.5943889681    1.9202866532   -0.8521223160
 H   -0.5905117145    1.8926289061    0.9253853623
 H   -1.0361034911   -0.3869133543   -0.0816260282
 H    0.5246574917   -1.5129571087   -1.4962896818
 H    0.8758577917    0.1479854974   -2.0065277009
 H    3.0512142758   -0.6602151142   -1.0570990842
 H    0.3983921428   -1.6260673714    1.3716321145
 H    1.3995752979    0.1492137498    2.8563947043