19

 C    0.3972960512    0.4741754358   -0.7620915362
 O   -0.0773848127   -0.6492496566   -0.0536040835
 C   -1.4424532609   -0.5854433543    0.2923656344
 C   -2.3991809684   -0.9799086133   -0.8658214286
 C   -2.3660796981   -2.4690826496   -0.3769884077
 C   -1.4535722350   -3.3287698398   -1.1008780361
 C   -0.6897000475   -4.0483616225   -1.6890396230
 C   -1.7947168651   -1.9245635380    0.9976918906
 O   -0.7818685997   -2.6016770261    1.6573270221
 H    1.4633484891    0.3164705972   -0.9405041342
 H   -0.1081254835    0.5976183460   -1.7303295927
 H    0.2636121894    1.3985867386   -0.1799265449
 H   -1.6578505011    0.3494017180    0.8290893814
 H   -3.3917138421   -0.5366455536   -0.7543081625
 H   -2.0355261335   -0.7999062829   -1.8779178534
 H   -3.3446133697   -2.9507386288   -0.2945879304
 H   -0.0221963457   -4.6866410032   -2.2125761529
 H   -2.6205572097   -1.7927903671    1.7019485681
 H    0.0075054030   -2.5140952198    1.1069505795