23

 C    0.0332296039    1.3888437560   -0.0185709641
 O    0.0558541510   -0.0280952445   -0.0035894077
 C    0.7068392542   -0.5742675908    1.0913162848
 C    0.5193012155   -2.0874756657    1.0710160867
 C    1.3149985400   -2.7564182232    2.2051128400
 C    1.2151676012   -4.2824336885    2.1485138878
 C    2.7721911753   -2.2655741325    2.1634751710
 C    2.8257535084   -0.7379307753    2.1140630524
 O    2.0832941623   -0.2315606399    1.0170918727
 H    1.0421384811    1.8073014367   -0.0963191834
 H   -0.5533698573    1.6860004129   -0.8904868850
 H   -0.4468523786    1.7881236940    0.8879808892
 H    0.2984299100   -0.1491369617    2.0338960356
 H   -0.5479413311   -2.3202972851    1.1501361637
 H    0.8663426127   -2.4494462422    0.0956791955
 H    0.8811246772   -2.4217305199    3.1600368178
 H    1.6371693487   -4.6678517905    1.2131303642
 H    1.7611874882   -4.7464869358    2.9768450217
 H    0.1729509928   -4.6143350437    2.2044863345
 H    3.3272901288   -2.6285351200    3.0369844632
 H    3.2693262616   -2.6668250483    1.2708474335
 H    2.4404711389   -0.3175512549    3.0600338521
 H    3.8494597449   -0.3761484672    1.9826801238