18

 C   -0.0931816258    1.5339770310   -0.0665873840
 C    0.0291342851    0.0204871926    0.0319361602
 O    0.8696606307   -0.4952365403   -1.0270897304
 C    1.8694329625   -1.1919340139   -0.3145941403
 C    1.2528753780   -1.9636715885    0.8909356630
 C    2.5547686721   -1.7239811378    1.6862220392
 C    2.3116288587   -0.3904086077    0.9450429225
 C    0.7769649816   -0.5151664289    1.2513809128
 H    0.8823038220    2.0146868932    0.0537327536
 H   -0.4966490352    1.8202950796   -1.0420153416
 H   -0.7673588171    1.9162662074    0.7075090868
 H   -0.9649678123   -0.4398696473   -0.0596754371
 H    2.5887161203   -1.6513272759   -0.9920608926
 H    0.6346782841   -2.8616060591    0.8528437312
 H    2.4598667957   -1.6981137754    2.7745538830
 H    3.4326104354   -2.3037476211    1.3854510053
 H    2.9155750531    0.5171647043    0.9723648814
 H    0.3950430412   -0.2946185823    2.2489219470