21

 C    0.0237876786    1.5553949398    0.2094917653
 C    0.0431050448    0.0676034783    0.0590356739
 C   -0.1256449385   -0.6376398484   -1.0620093947
 C   -0.0885611169   -2.1194883255   -0.8375084869
 C   -1.3233976506   -2.9504429239   -1.2990303642
 C   -0.3343864011   -3.6704846147   -2.2291781948
 O    0.7584605697   -2.8475484027   -1.7799365018
 C    0.4055712984   -2.2446559909    0.6214971940
 C    0.2362158794   -0.8442635299    1.2534481832
 H    0.9668675804    1.9177358995    0.6382886700
 H   -0.1327536820    2.0593385866   -0.7478189645
 H   -0.7704358051    1.8733602251    0.8972663514
 H   -0.3052957013   -0.2197516695   -2.0473101670
 H   -1.7836540520   -3.5636067028   -0.5219038098
 H   -2.0985004882   -2.3693255173   -1.8022762750
 H   -0.1629128637   -4.7330988400   -2.0148948041
 H   -0.5200442298   -3.5561490143   -3.3044208314
 H   -0.1087691715   -3.0340761770    1.1761377313
 H    1.4640911186   -2.5163420415    0.5713907820
 H    1.0948369559   -0.5455711322    1.8674814446
 H   -0.6393517949   -0.7958408585    1.9157176585