17

 O    0.0265995849   -0.0391278389   -0.1442307840
 C   -0.0223043782    1.1567081220   -0.0176442802
 C   -1.3082422559    1.9733815994    0.0295455038
 N   -1.3331244942    3.0081105831   -1.0132303373
 C   -0.1585602706    3.8801581398   -0.9776139974
 C    1.1741138273    3.1228412599   -1.0862358124
 C    1.2711581916    2.0184212569    0.0045730656
 C    1.4481456015    2.6050284011    1.3330834044
 N    1.5687709747    3.0762587402    2.3822634418
 H   -2.1603883282    1.3004746205   -0.0870721254
 H   -1.3872073361    2.4652133550    1.0081013247
 H   -1.4032376611    2.5632714098   -1.9240114577
 H   -0.2418317450    4.6073800927   -1.7910067823
 H   -0.1857996752    4.4463254979   -0.0379902433
 H    1.2392037193    2.6300882952   -2.0635682505
 H    2.0286017795    3.8029733571   -1.0045708601
 H    2.1099275757    1.3442866382   -0.1917362597