15

 N    0.6562009511   -1.0094682138   -0.0081886353
 C    0.3639006153    0.1072348275   -0.0109639405
 C    0.0010113195    1.5461414886    0.0141139937
 O    1.1207467343    2.3953009834    0.0557208828
 C    1.7311174118    2.4682481851    1.3260456763
 C    2.8086803470    1.4832485748    1.6931760640
 C    3.1540152096    2.9129035778    1.3306555124
 C   -0.7893080079    1.8870031728   -1.1822688061
 N   -1.4331267711    2.1580660604   -2.1001554614
 H   -0.6453026192    1.7021226271    0.8933931626
 H    1.0588913925    2.8318170100    2.1023965523
 H    2.8800801588    1.1678554450    2.7278915667
 H    3.0501727018    0.7179899653    0.9659768452
 H    3.6094110811    3.0787038027    0.3612734850
 H    3.4710997855    3.5979336933    2.1080439922