17

 C   -0.0551012667   -1.2373343434    0.0090752606
 C   -0.0234525718   -0.0363632595    0.0219633265
 C   -0.0001324263    1.4205228097    0.0331330026
 C   -0.7388227153    2.0552817956    1.2227309331
 N   -0.1745015857    1.7164289536    2.5357285808
 C    0.2046104384    2.9897187883    1.8859919914
 C    1.5130845162    2.9345039087    1.1318086929
 C    2.2606584179    1.6504553744    1.1321177659
 N    1.3838632399    1.9865455296   -0.0000249737
 H   -0.0795375336   -2.2987743406   -0.0018263747
 H   -0.4882397036    1.7844635525   -0.8806567082
 H   -1.8026294906    2.2510542490    1.1286315307
 H   -0.8662919913    1.8876588303    3.2612435241
 H   -0.1184715400    3.9293585753    2.3200509269
 H    2.0048811070    3.8797924827    0.9205995200
 H    3.3170876271    1.6376974040    0.8780991324
 H    1.9345508584    0.8946858598    1.8376150087