23

 C    0.0152273361    1.5540414164   -0.1474769589
 C    1.5323911758    1.8470897509   -0.0210048440
 C    2.0008708347    2.0357606113    1.4425281235
 C    1.7821900714    0.8355142884    2.3822403044
 C    0.3214335150    0.3739045417    2.5450085375
 C   -0.2710653521   -0.5018652228    1.4202238138
 C   -0.0846838030    0.0132380457   -0.0351709430
 C    1.2502751835   -0.4080248893   -0.6248993620
 C    2.1258435613    0.5953951042   -0.6369807517
 H   -0.5939495357    2.0883027954    0.5870621066
 H   -0.3239628241    1.8631838422   -1.1414492897
 H    1.8054078046    2.7521999167   -0.5763110725
 H    3.0704464035    2.2840293537    1.4422784575
 H    1.4856284857    2.9134641633    1.8559933917
 H    2.3982921379   -0.0099363528    2.0547100499
 H    2.1623306313    1.1234490165    3.3700849887
 H    0.2380272474   -0.1998644289    3.4761708209
 H   -0.3116158684    1.2587890390    2.6923681465
 H    0.1579047064   -1.5099553256    1.4875166890
 H   -1.3429889783   -0.6193277862    1.6224521421
 H   -0.9167455858   -0.3736715548   -0.6349062621
 H    1.4493417145   -1.4279472756   -0.9381264814
 H    3.1607234082    0.5304440405   -0.9565948870