19

 C    0.1428277181    1.3622830965   -1.1136694502
 C   -0.0016187533    0.2622243461   -0.0851916562
 C    0.8103415863   -0.9889581576   -0.2457497032
 N    1.1178431099   -0.0502756265    0.8311494717
 C   -1.3732334538    0.1367483529    0.5228610043
 O   -2.3378924446    0.6485209921   -0.0161691755
 C   -1.5311414242   -0.6388247032    1.7918341633
 C   -2.3888644759    0.0040558586    2.8405959338
 N   -2.8826943307   -1.1429912623    2.0930126339
 H    1.1346743453    1.3320085737   -1.5752439536
 H   -0.6129922975    1.2569654125   -1.8950030553
 H    0.0027825479    2.3460664530   -0.6543879912
 H    0.4156481532   -1.9489450323    0.0751969925
 H    1.4583639858   -1.0330296082   -1.1173030619
 H    1.9207793856    0.5238582862    0.5860639419
 H   -0.7060012874   -1.2618756396    2.1112269346
 H   -2.1528556450   -0.1794771509    3.8846800519
 H   -2.7911941891    0.9864177581    2.6100019412
 H   -3.4915569407   -0.7955476489    1.3502721881