21

 O   -0.0103240436    1.4241747620   -0.0214129212
 C    0.0228042928    0.0040716224   -0.0089191628
 C   -1.4105105001   -0.5133300936    0.0171996778
 C   -2.1792825901   -0.0947125931   -1.2384475044
 O   -3.5553257848   -0.4350242478   -1.1599005695
 C   -3.8407655591   -1.7559392144   -0.8063424168
 C   -3.2503286348   -2.9420440998   -1.5183836980
 C   -2.8351406280   -2.6201397533   -0.0879635169
 C   -1.4461981088   -2.0437986895    0.1820079446
 H    0.8928082787    1.7481185924   -0.0811229077
 H    0.5403538065   -0.3893575244   -0.9004565894
 H    0.5636425277   -0.3743179600    0.8737166221
 H   -1.9187529146   -0.0504396786    0.8726663938
 H   -2.1488131111    0.9890440033   -1.3606478004
 H   -1.7132873957   -0.5451062729   -2.1322646468
 H   -4.8812185457   -1.8191327783   -0.5052999735
 H   -3.8879884880   -3.8004876238   -1.7000881435
 H   -2.5130625964   -2.7653683130   -2.2948628285
 H   -3.2248122817   -3.2741432450    0.6854272523
 H   -0.7097615002   -2.5006128771   -0.4932160126
 H   -1.1309053828   -2.3066191155    1.1972445315