18

 C   -0.0055523325    1.5312056472    0.0470420858
 C   -0.0016523251    0.0304482740   -0.0219723730
 C    0.0003653776   -0.6532442074   -1.1667644207
 C   -0.0388748567   -2.1539369765   -1.2275567618
 O   -0.3174232982   -2.7612211536    0.0262597894
 C    0.4264571287   -2.1709845303    1.0745644093
 C   -0.0001621884   -0.7099874271    1.2966297768
 C    0.2295248767   -2.9852911540    2.2817507309
 N    0.0947905202   -3.5905485226    3.2557724471
 H    0.8833833872    1.9066359370    0.5697389176
 H   -0.0329190809    1.9801514992   -0.9490896728
 H   -0.8743058351    1.8964566073    0.6095896497
 H    0.0296354222   -0.1358222629   -2.1225449292
 H   -0.8364300262   -2.4935401658   -1.8977929512
 H    0.9099986884   -2.5462158282   -1.6362752939
 H    1.5028919417   -2.1921576973    0.8339658623
 H    0.6879553111   -0.2337519837    2.0057662030
 H   -0.9943263908   -0.6833538253    1.7598500707