24

 C    0.4075590589    1.4906844384    0.2531747118
 C   -0.2298426457    0.1624082583   -0.1740476440
 C    0.4891354952   -0.5037056089   -1.3411128728
 C    0.4162800450    0.2504250841   -2.6573129481
 N    1.7697793800   -1.1487645743   -0.9859594345
 C    0.6362364424   -1.9853790298   -1.4204445988
 C    0.0751541284   -2.9725845034   -0.4296146561
 O    0.6798990157   -4.2257196722   -0.6809938355
 C    0.2406373896   -5.2291229616    0.2003628947
 H    1.4633393223    1.3409956273    0.4990292202
 H    0.3459245238    2.2501162898   -0.5327552620
 H   -0.0936295697    1.8947874084    1.1379656465
 H   -0.2287561858   -0.5156563959    0.6834578842
 H   -1.2810725858    0.3215445854   -0.4484596579
 H    0.9008407596    1.2298160683   -2.5825395116
 H    0.9116218463   -0.3077245219   -3.4582763274
 H   -0.6234588829    0.4189530864   -2.9600342108
 H    2.4455156107   -1.0472137923   -1.7393372007
 H    0.6809066312   -2.4019488856   -2.4261564387
 H    0.2837232075   -2.6448648854    0.5992273180
 H   -1.0211797610   -3.0513408302   -0.5433154344
 H    0.4839065842   -4.9906513775    1.2481950957
 H   -0.8480678656   -5.3884248624    0.1315703663
 H    0.7498594257   -6.1555366151   -0.0769557842