11

 O   -0.0658281504    0.0282721935    0.0044288274
 N   -0.0397032380    1.2554666450    0.0064004373
 O    0.9619920460    1.9501069650    0.0028834644
 C   -1.3357937583    1.9103641878    0.0171810246
 N   -1.4194824355    3.2333447006    0.0214420706
 N   -2.7372706806    3.4502092283    0.0310805073
 C   -3.4812519840    2.3108735548    0.0330625576
 C   -2.5870916156    1.2645237221    0.0240393331
 H   -3.0677057579    4.4017497750    0.0359427108
 H   -4.5591100707    2.3374808038    0.0405536067
 H   -2.7819514951    0.2073328840    0.0224573002