21

 C   -0.0660957791    1.6845805515    0.0025250060
 C    0.0795336158    0.1759532149    0.0418056516
 C    1.3030266904   -0.6267290601   -0.3339300341
 C    0.7934148659   -0.6387190096    1.0949424890
 C    1.8319478483    0.0102661455    1.9928405224
 O    2.4051191853   -1.0478318929    2.7558379844
 C    2.8538290291    0.6804881983    1.0354975533
 C    2.6719054029    0.0300206786   -0.3622629988
 O    3.6041349902   -1.0196388112   -0.6060329779
 H    0.8267777139    2.2222226089    0.3256070404
 H   -0.2977444550    2.0192709381   -1.0148620604
 H   -0.8911644709    2.0052867010    0.6484072797
 H   -0.8343663018   -0.3145477669   -0.2882586028
 H    1.1848283418   -1.4775601860   -0.9948660109
 H    0.2881906082   -1.4986555739    1.5191807800
 H    1.3867222716    0.7556212766    2.6703702135
 H    3.0563499358   -0.6627898766    3.3504011329
 H    2.7031681335    1.7630323298    0.9908404998
 H    3.8736532398    0.5139828762    1.3978307581
 H    2.7519280511    0.7877280595   -1.1574382647
 H    4.4825966531   -0.6292828418   -0.6483632915