18

 C    0.0113880950    1.4763202569    0.0084060051
 C    0.0435006812   -0.0259765790   -0.0241417396
 N   -0.8228737435   -0.8429265238    0.8569787508
 C    0.6501436999   -0.9070577522    1.0195309877
 C    1.3554903552   -1.9794177317    0.1734254970
 C    0.3142663325   -2.2663603017   -0.9552347478
 C    0.4822917749   -0.7568699973   -1.3126373615
 C    1.9682727634   -1.0241829128   -0.9031283891
 O    3.0511636668   -0.7415935661   -1.3085210887
 H    0.9179443527    1.8943053777   -0.4426082259
 H   -0.8477688119    1.8683855936   -0.5479094666
 H   -0.0544395671    1.8485716047    1.0363583592
 H   -1.1922759592   -0.2353839234    1.5855374949
 H    1.1163405518   -0.5184548128    1.9173694967
 H    1.9262442906   -2.7625815296    0.6663628166
 H    0.7146217911   -2.9225699909   -1.7295106837
 H   -0.6747969138   -2.5769514575   -0.6296330427
 H    0.2016140305   -0.3399258242   -2.2774599224