21

 C    0.8095082882    1.3570176913    0.1945502104
 C   -0.0134256491    0.0967441635   -0.0595469623
 C    0.6560819569   -0.9121402707   -1.0413643356
 C    1.1102114841   -1.7474028252    0.1813210705
 C    0.0977772092   -0.9881434320    1.0560102283
 O    1.0384760833   -3.1840206224    0.1062817977
 C    2.4702042681   -3.3248744726    0.1890806654
 C    2.6179506508   -1.8326580426    0.5489603399
 O    3.5590275522   -1.0352362475   -0.1144736864
 H    1.8582166980    1.1120790380    0.3961322195
 H    0.7881319465    2.0203984540   -0.6773033926
 H    0.4196369469    1.9178080556    1.0510117783
 H   -1.0390552183    0.3685495135   -0.3217424470
 H   -0.0695002438   -1.4791700637   -1.6304741393
 H    1.4252614354   -0.5142859166   -1.7117986929
 H    0.4373736217   -0.6680845677    2.0462091091
 H   -0.8223603445   -1.5688420923    1.1661958893
 H    2.7752680058   -4.0647252079    0.9368179946
 H    2.9210190885   -3.5875245171   -0.7799006876
 H    2.7855011952   -1.6679911193    1.6163850591
 H    3.4498077050   -1.1632650984   -1.0633299182