14

 N   -0.0328921245    1.2987109231    0.1327178897
 C   -0.1393141841    0.0869177235   -0.1975364503
 O   -1.0428977889   -0.7030081205    0.4321727711
 C   -0.9778938179   -2.0554549806    0.2002509128
 C    0.1396401488   -2.8611760260    0.2410897287
 N   -0.2932392477   -4.1409165652   -0.0140120884
 C   -1.6493584712   -4.1531686260   -0.2012383356
 C   -2.1108450325   -2.8632361487   -0.0760042264
 H    0.6603964192    1.7560604422   -0.4557976901
 H    0.4202348112   -0.4486147735   -0.9746733134
 H    1.1716788665   -2.6376496621    0.4515300583
 H    0.3016263890   -4.9494349300   -0.0452707942
 H   -2.1736344254   -5.0711901798   -0.4106750055
 H   -3.1294877725   -2.5234865663   -0.1689469667