18

 C   -0.2964361439    1.4819107878    0.1617410923
 C   -0.0178196211   -0.0084580570    0.0076533159
 C    0.8704246625   -0.4069911007   -1.2292007303
 C    0.9843445338    0.4700974775   -2.4672092923
 C    2.0622308305   -0.4865267875   -0.2718849172
 O    3.2433755949   -0.3911657466   -0.3899799402
 C    1.1098548482   -0.5543660818    0.9663908632
 C    1.4576765396    0.1769733090    2.1652732900
 N    1.7331030705    0.7863349931    3.1087126086
 H    0.6224351736    2.0764110190    0.1241121238
 H   -0.9596897981    1.8349439692   -0.6333059016
 H   -0.7771178035    1.6870622392    1.1222718027
 H   -0.9462465468   -0.5771317046    0.0834307068
 H    0.6194957445   -1.4356379917   -1.5221118323
 H    1.2422144165    1.5006861700   -2.2106595030
 H    1.7690863447    0.0862626105   -3.1252033237
 H    0.0458226247    0.4808610179   -3.0295688745
 H    0.9340914595   -1.6072328533    1.2132348919