22

 C   -0.0775026633    1.5495922776    0.0886041003
 C    0.1193397516    0.0654515815    0.0181575543
 N   -0.8083654574   -0.8555542938    0.7185298670
 C    0.6496640330   -0.9254477341    1.0026317587
 C    1.2931298159   -1.7722620427   -0.1126573838
 C    0.4310028209   -2.8933354703   -0.7641085051
 C   -0.1292403493   -1.8642434545   -1.7956821424
 C    0.7541812824   -0.7414716463   -1.1617124355
 C    1.6947433469    0.0329818487   -2.0582341012
 H    0.8058817042    2.0918266559   -0.2627514088
 H   -0.9289655135    1.8673616718   -0.5258487189
 H   -0.2747773300    1.8666235849    1.1191296433
 H   -1.2331343250   -0.3249713909    1.4790839975
 H    1.0074419465   -0.7861317524    2.0172094907
 H    2.3660537519   -1.9377749728   -0.0008664458
 H    1.0323099095   -3.6858873609   -1.2165145308
 H   -0.3148482648   -3.3411541939   -0.1062030661
 H    0.1433500964   -2.0829411265   -2.8322646084
 H   -1.2049636175   -1.6937697532   -1.7364950504
 H    1.1502556156    0.7260027600   -2.7118123045
 H    2.4149384656    0.6207452713   -1.4766710927
 H    2.2662338304   -0.6461386695   -2.7000515677