19

 C   -0.0893760043    1.5572629448    0.3819866656
 C    0.0491724998    0.0612385202    0.1998078935
 N    1.2714460264   -0.5903331637   -0.2760663661
 C    2.4562590004    0.1854204356   -0.6127639849
 C    0.9019280998   -0.7565943784    1.1095911094
 C    1.6336233341   -0.3220813063    2.4033832216
 N    1.2892440267   -1.6490571354    2.9273692360
 C    0.5957248639   -2.0841802724    1.8126902161
 O   -0.0103811859   -3.0896283088    1.5652667952
 H    0.7892322822    2.0134414309    0.8437474598
 H   -0.2610810608    2.0509715822   -0.5806334306
 H   -0.9517086552    1.7738811420    1.0211653373
 H   -0.8481599862   -0.4232208544   -0.1840793082
 H    2.6576577702    1.0437686622    0.0450705018
 H    3.3270273288   -0.4766056181   -0.5797770955
 H    2.3551101491    0.5564646177   -1.6371353566
 H    2.7104304022   -0.1485397191    2.3062402148
 H    1.1745477179    0.5120566891    2.9450891321
 H    1.3251205512   -2.0150115382    3.8662190686