21

 C   -0.8556995562    0.9728412995   -0.1780760379
 C    0.0399199452   -0.2391790393    0.1066705205
 C   -0.7511864809   -1.3730090170    0.7487828004
 O   -0.2909271753   -2.4535855058    1.0370530469
 C    0.7688835197   -0.7285528441   -1.1396652668
 C    2.1755489740   -0.2582182167   -1.4964169964
 C    2.9594547781    0.7195784516   -0.6482352275
 C    1.9448152553   -1.6734381555   -1.0279999641
 O    2.4124190668   -2.0140299696    0.2393041253
 H   -0.2638050775    1.8042788925   -0.5681327589
 H   -1.6212032169    0.7311661671   -0.9242450897
 H   -1.3667301018    1.3167970522    0.7274051440
 H    0.7874365244    0.0358705154    0.8609738338
 H   -1.8208688199   -1.1553051745    0.9666309110
 H    0.1020181540   -0.8968368020   -1.9829930877
 H    2.3448418606   -0.1505818180   -2.5647703982
 H    2.9648378329    0.4217472532    0.4017748021
 H    4.0034944499    0.7465657212   -0.9773275356
 H    2.5625179015    1.7379691960   -0.7272349495
 H    2.0159567678   -2.4700736906   -1.7692554703
 H    1.6687858584   -2.4416557358    0.6931598089