21

 C   -0.0346724058    1.5172985567   -0.0084992291
 C    1.2826545830    0.7698188258    0.0172777902
 C    2.0874022033    0.6476739035    1.3091259314
 C    1.8966550322   -0.7396448537    1.9299990489
 O    0.5321818321   -0.9970438475    2.2306737770
 C   -0.3374724425   -0.9539421787    1.1212629773
 C   -0.3269717128   -2.1006205388    0.0614273405
 C   -0.4514973722   -1.0177038345   -1.0537592909
 C   -0.0274695007    0.0237267821   -0.0154371412
 H   -0.3484322229    2.0273225230    0.8987717728
 H   -0.3083160669    2.0285238186   -0.9263072051
 H    1.8586118535    0.7834900437   -0.9041986355
 H    3.1518517393    0.8174676061    1.1161944259
 H    1.7707291914    1.4015296663    2.0391364050
 H    2.3036381541   -1.5108516533    1.2562888960
 H    2.4248891129   -0.8216989024    2.8843535296
 H   -1.3385363534   -0.8154508789    1.5431250943
 H    0.6379498878   -2.6121678521    0.0279120258
 H   -1.1199038499   -2.8471738988    0.1366909469
 H    0.1868719216   -1.1338577026   -1.9337255465
 H   -1.4847954942   -0.8821657944   -1.3888332432