16

 C    0.0059231813    1.4312555391    0.0287765464
 C    0.0328858059   -0.0223341350    0.0279810044
 C    0.0525296415   -1.2275281112    0.0304759630
 C    0.0789043428   -2.6531013968    0.0167896315
 N    0.8615506043   -3.5097754173    0.9816974154
 C    0.2156193823   -4.5222879537    0.0902032315
 C   -1.0993007560   -3.6986177647   -0.0072497043
 O   -1.1832204687   -3.7647137565   -1.4551995474
 C    0.2425396512   -3.6500876003   -1.2052285646
 H    0.7871317566    1.8384415761    0.6799619059
 H    0.1687249194    1.8316726610   -0.9778485946
 H   -0.9573882158    1.8099877244    0.3875098309
 H    1.8610591320   -3.4374237514    0.7744229573
 H    0.3396366942   -5.5983325453    0.2003377394
 H   -2.0106515853   -3.7319749726    0.5868496914
 H    0.9311052341   -3.6229760058   -2.0511950662