22

 C    0.0220356277    1.5680508018   -0.2735011878
 C    0.0130694282    0.0695383135   -0.0598098449
 C    1.2820378673   -0.7419615325   -0.1568243577
 C    0.5832169049   -0.5942667572    1.1778582379
 C    1.2147485118    0.1661400173    2.3111585173
 C    0.3285617377    0.6246833880    3.5083788052
 C    1.4979039627    0.2675451170    4.4640621213
 C    2.0993185263   -0.6099346117    3.3337209425
 H    0.9427602468    2.0293367054    0.0949292595
 H   -0.0560222335    1.8069742636   -1.3401245975
 H   -0.8185986741    2.0516337651    0.2370044063
 H   -0.8748232422   -0.4163940047   -0.4575901965
 H    1.2602413410   -1.7027024364   -0.6599301489
 H    2.2110101609   -0.1947874095   -0.2907233955
 H    0.0344924237   -1.4732944048    1.5127003025
 H    1.7801977770    1.0223124564    1.9284712165
 H   -0.0425364681    1.6528818410    3.5056610725
 H   -0.5231952985   -0.0500730213    3.6453542875
 H    2.1256579074    1.1377682917    4.6776340769
 H    1.2516564355   -0.2200467616    5.4102288322
 H    1.7763060550   -1.6529273298    3.4188388824
 H    3.1823949327   -0.5950805714    3.1876063783