21

 C    0.0707806165    1.5615275238   -0.1054606345
 C   -0.0239984723    0.0414609860    0.0522254809
 C   -1.4582041306   -0.5088855634    0.0679160179
 C   -2.2991095645    0.0122449602    1.2447876284
 O   -2.0810536181   -0.2008343676   -1.1838078998
 C   -2.9284695471   -1.2827027995   -1.5711074339
 C   -2.2126548517   -2.5500376962   -1.0999226008
 C   -1.4340169638   -2.0484392063    0.1158218840
 O   -0.8993895452   -2.7114983854    0.9653683223
 H    1.1167327011    1.8685013803   -0.1998206668
 H   -0.4630550720    1.8904829610   -1.0011472908
 H   -0.3491877554    2.0909216422    0.7549336940
 H    0.5058553398   -0.4394696121   -0.7784636622
 H    0.4682249877   -0.2897681939    0.9730235108
 H   -2.3948260876    1.0990160665    1.1929337502
 H   -3.3067953105   -0.4148749985    1.2283363887
 H   -1.8314314210   -0.2649974740    2.1935103357
 H   -3.9194402799   -1.1941629273   -1.0998467914
 H   -3.0615158656   -1.2225053267   -2.6535043024
 H   -2.8613080782   -3.3887788348   -0.8406378485
 H   -1.4878888715   -2.8990569744   -1.8449288417