19

 C   -0.4266973397    1.3511896334    0.0489144577
 N    0.0712301299   -0.0282988152    0.0911180866
 C    0.7709295514   -0.4292476998   -1.0658112468
 C    0.0275707764   -0.8475082501   -2.3424887441
 C    0.9815329979   -1.7917551803   -1.7055357645
 O    2.3333942520   -1.4428518481   -2.0973950135
 C    2.2141500999   -0.2107531090   -1.4293552187
 N    3.0734145357    0.6586247777   -1.1721105727
 C    4.4414437771    0.4702895073   -1.6359422790
 H    0.3632212218    2.1024356792   -0.0918960192
 H   -1.1422192463    1.4486487930   -0.7735112516
 H   -0.9550991504    1.5664191993    0.9818844002
 H    0.6539792879   -0.1592116999    0.9112605921
 H   -1.0232606028   -1.0499511243   -2.1591741209
 H    0.2682482303   -0.4049492743   -3.3037763826
 H    0.8042039460   -2.7971228334   -1.3508281495
 H    5.1261473965    0.6081354735   -0.7924235040
 H    4.6269053478   -0.5107160107   -2.0881215929
 H    4.6812249085    1.2461272915   -2.3717813866