20

 C    1.1738422844    1.3202574061    0.7324020915
 C    0.5626626734   -0.0545054347    0.4512383036
 C   -0.9413912978   -0.0281492488    0.6693097811
 O   -1.5557630121   -0.8952562971    1.2473662019
 N    0.7953437131   -0.3914304558   -0.9623837273
 C    1.9329568625   -1.2792199240   -1.2384954564
 C    0.5460078035   -1.7448891742   -1.4881638838
 C   -0.0899806668   -2.9089853276   -0.7369741073
 O    0.2855010363   -3.0408397009    0.6182139221
 H    2.2494697136    1.2935700597    0.5375739825
 H    0.7318749617    2.0800156115    0.0808359649
 H    1.0230453645    1.6133012773    1.7764792370
 H    0.9778862196   -0.8013269364    1.1368600308
 H   -1.4716544782    0.8480205412    0.2391237101
 H    2.5828237543   -0.9835114463   -2.0579811756
 H    2.4375414064   -1.7135656550   -0.3776376845
 H    0.1907774366   -1.7098775637   -2.5194140926
 H   -1.1820732162   -2.8402803967   -0.8371146371
 H    0.2154496126   -3.8274899701   -1.2559100902
 H   -0.3471660212   -2.5193050546    1.1339042692