17

 O    0.0891917982    1.2035151721    0.8158416048
 C   -0.0920343860    0.2208487446   -0.1562915241
 C   -1.3771584789   -0.5617246718    0.0678036951
 O   -2.1270724855   -0.2225358597    0.9628244358
 C   -1.6653624416   -1.7324110852   -0.8432675952
 C   -3.1447919190   -2.1750648417   -0.8778898515
 O   -3.3549975370   -3.0224714329   -1.9721105330
 C   -3.5613263919   -2.8729195842    0.4092987335
 O   -3.9851336834   -4.0043351915    0.3858311683
 H   -0.7192036897    1.1863637608    1.3521501379
 H   -0.1429939546    0.6540448719   -1.1710339134
 H    0.7530080918   -0.4865035897   -0.1702707410
 H   -1.3626450665   -1.4899852941   -1.8678827292
 H   -1.0253087530   -2.5722783734   -0.5392738284
 H   -3.7681054916   -1.2680440785   -0.9582815316
 H   -3.7243686847   -3.8394967974   -1.5979883019
 H   -3.4586365766   -2.2933282396    1.3423093140