19

 C   -0.2813216367    1.4555517547   -0.1076611188
 C   -0.0202647014   -0.0427592345    0.0125683927
 C   -1.2911426281   -0.8690800008   -0.1886202327
 C    1.1901033301   -0.6050475558   -0.8366872992
 C    1.8898957393   -1.0015316330    0.4654505305
 O    2.0586002116    0.1652482369    1.2476233209
 C    0.7617862812   -0.4637311764    1.2826549172
 C    0.3134468443   -0.9248543883    2.6096701878
 O   -0.8410739092   -1.0589731207    2.9375487964
 H    0.6299964868    2.0260113439    0.0881397361
 H   -0.6330465847    1.7041000074   -1.1149621659
 H   -1.0501932971    1.7762709638    0.6034002415
 H   -1.6930458098   -0.6966747477   -1.1930423018
 H   -1.0958995500   -1.9414178832   -0.0833137881
 H   -2.0535058022   -0.6000217512    0.5458764710
 H    0.9048736180   -1.4592974199   -1.4544255964
 H    1.7446129033    0.1179994278   -1.4396394187
 H    2.5511640725   -1.8371522754    0.6690319715
 H    1.1573492920   -1.1459315776    3.2995572457