18

 O    0.4017505001    0.7607562691   -0.8209588034
 C   -0.0435930655    0.2326396737    0.4211305004
 C   -1.3445711381   -0.4303603388    0.3448212808
 C   -2.4327607437   -0.9444597828    0.2630148158
 C   -3.7320277088   -1.5765034164    0.1516479232
 C   -4.6017908793   -1.2817041499   -1.1150976581
 C   -4.5268804351   -2.7764958937   -1.4006114406
 C   -3.1306727716   -3.2446105596   -1.4621348194
 N   -3.7432636487   -3.0752017852   -0.1305633815
 H   -0.2978691571    1.3293550814   -1.1590609569
 H    0.7237182051   -0.4857314759    0.7305019243
 H   -0.0782258369    1.0119831248    1.1992554505
 H   -4.3031465192   -1.4177307219    1.0700150824
 H   -5.6001000171   -0.9298727798   -0.8510216832
 H   -4.1743554945   -0.6176467743   -1.8705174492
 H   -5.3644931285   -3.3970541654   -1.7014718042
 H   -2.9605088180   -4.2885874325   -1.7057354337
 H   -2.3345013631   -2.5690355727   -1.7657825473