15

 C    0.0204455881    1.3494711255    0.1050628316
 N   -0.1668170292   -0.0728431269   -0.1142557955
 C    0.5561693450   -0.6831805834   -1.1178140409
 C    1.2121902153   -0.1636881838   -2.1938223116
 O    1.7312105631   -1.1672189507   -2.9450325280
 N    1.4412456233   -2.3752772946   -2.3708084454
 C    0.7411578834   -2.0989799918   -1.2831824552
 C    0.2635894261   -3.1022132570   -0.4071214850
 C   -0.1669786251   -3.8974574615    0.3871879497
 H    1.0701712392    1.6274963678    0.2901675327
 H   -0.3283824585    1.9082179637   -0.7707689510
 H   -0.5821760771    1.6632249662    0.9596985368
 H   -0.2255802912   -0.6295788847    0.7261235975
 H    1.3859511862    0.8355246645   -2.5550644218
 H   -0.5413766586   -4.6216131132    1.0682975361