18

 C   -0.2174330387    1.5224787083    0.0131053772
 C   -0.0270747094    0.0188168998    0.0022568295
 O   -1.3391293191   -0.5882826934    0.0111548670
 C   -1.3663780972   -1.9289292867    0.0043494662
 O   -0.3860195590   -2.6319677208   -0.0084272773
 C   -2.7958797143   -2.4376616834    0.0149349417
 C   -2.8331175428   -3.9736742818    0.0070463663
 C   -4.1998659887   -4.4885808572    0.0172268246
 N   -5.2860451606   -4.8824991586    0.0253355007
 H    0.7580008261    2.0176273674    0.0065848824
 H   -0.7772023118    1.8525377971   -0.8663515252
 H   -0.7599678865    1.8419294125    0.9071573486
 H    0.5110121728   -0.3226802873   -0.8873282688
 H    0.5279164675   -0.3333161752    0.8771783377
 H   -3.3066905688   -2.0360781451    0.8958668061
 H   -3.3229842110   -2.0266837439   -0.8519518110
 H   -2.3100834782   -4.3569853259   -0.8743245263
 H   -2.2935600101   -4.3663547856    0.8742146206