22

 C   -0.0431909552    1.5635392488    0.1494103342
 C   -0.0003650296    0.0309136128   -0.0380020203
 C   -1.3685979980   -0.4968467200    0.0368660712
 N   -2.4527117023   -0.8940209473    0.0972307432
 C    0.7188925583   -0.4923045328   -1.3301627230
 C    0.7656616599   -2.0315191630   -1.2792196581
 C   -0.0062994853   -0.0366871779   -2.6082086298
 C    2.1606742860    0.0512845108   -1.3294410787
 O    2.8594606516   -0.5310751291   -2.4187442077
 H    0.9651900306    1.9718854092    0.2430454899
 H   -0.5434946352    2.0563050357   -0.6871846221
 H   -0.5918742952    1.8132020463    1.0609602582
 H    0.5376763926   -0.3949245025    0.8200038596
 H   -0.2425147889   -2.4545790908   -1.2864660517
 H    1.3133301422   -2.4193547283   -2.1394529986
 H    1.2730898500   -2.3812017900   -0.3725604112
 H   -0.0538479646    1.0543985737   -2.6837770190
 H    0.5325570833   -0.4038049229   -3.4841888096
 H   -1.0283544677   -0.4246459123   -2.6409866466
 H    2.1514658391    1.1464450021   -1.4231099318
 H    2.6463325348   -0.1993374471   -0.3707729157
 H    3.7295559637   -0.1261185353   -2.4705011922