18

 C   -0.0205110009    1.4470813609    0.0167855429
 N    0.0629572975   -0.0103995403    0.0340884288
 C   -0.0705587823   -0.6630704666   -1.1912053807
 O   -0.2998977588   -0.0894943770   -2.2270668127
 O    0.0242124687   -2.0091702446   -1.1639372611
 C    0.7164945322   -2.6483988874   -0.0748705995
 C    0.3487110922   -2.0296486301    1.2324074897
 C    0.0533449675   -0.7276076353    1.2506862570
 C   -0.3237547247    0.0218233500    2.4956485817
 H    0.8040082163    1.8864259417    0.5852765814
 H    0.0451043338    1.7638081082   -1.0215593700
 H   -0.9680375928    1.8076191175    0.4312748962
 H    0.4271978320   -3.7004495093   -0.1328851160
 H    1.7983041418   -2.5899380140   -0.2750948392
 H    0.3106631788   -2.6302913402    2.1310218493
 H   -0.3110712712   -0.6577308089    3.3493198663
 H    0.3707440673    0.8421169438    2.7062597233
 H   -1.3257069176    0.4583478517    2.4185564126