20

 N   -0.5467228413   -0.6563641769   -1.0268586037
 C   -0.3663798826    0.3445654114   -0.4752681608
 C   -0.0954734192    1.5919703895    0.2154931003
 C    0.1133874386    1.5721849919    1.7612815922
 C    1.2370479626    2.6231655659    1.5750082830
 C    1.3286178240    2.2250844431    0.0764701750
 C    2.5488799245    1.3572089826   -0.3352495986
 C    3.1415327478    2.6046988819   -1.0462870033
 C    1.7287283947    3.2497498850   -1.0071096588
 H   -0.8595203594    2.3265814457   -0.0602221274
 H   -0.7488117404    1.8400224201    2.3738131761
 H    0.5004232227    0.6069914105    2.0937796829
 H    0.8624239893    3.6441568813    1.6995367434
 H    2.1407979574    2.5052393761    2.1771359398
 H    3.1306168392    0.9008752313    0.4701353359
 H    2.2660944692    0.5762077443   -1.0469139846
 H    3.8541557327    3.1403596322   -0.4137282214
 H    3.5955942723    2.4507677048   -2.0269626870
 H    1.1798530916    3.0833130538   -1.9396218395
 H    1.6521243564    4.3078644455   -0.7409456734