24

 C    0.5226919550    1.2308705149   -0.6226088829
 C    0.4958180700   -0.1895933769   -0.0609902685
 N   -0.8839620791   -0.6478684291    0.0621063197
 C   -1.4577323984   -1.4192822358   -1.0327360250
 C   -1.2173989388   -2.0595890053    0.3012907555
 C   -0.1325313922   -3.1219854046    0.4348827114
 C   -0.5386005702   -4.5140697730   -0.0721591179
 C   -2.4080096113   -2.1892215358    1.2438564241
 O   -3.2162053610   -3.3360965469    1.0105471289
 H    1.5505877737    1.6013796121   -0.6866046713
 H    0.0889517500    1.2600086340   -1.6275961952
 H   -0.0554438007    1.9067627288    0.0133492431
 H    1.1132418572   -0.8415478086   -0.7005344690
 H    0.9450966624   -0.2040338804    0.9392795650
 H   -2.4580126760   -1.1329494929   -1.3543413301
 H   -0.7948070899   -1.7160861117   -1.8462172572
 H    0.7636955287   -2.8013536854   -0.1041169215
 H    0.1546837611   -3.1911292439    1.4927087773
 H   -1.4102447484   -4.8920473200    0.4641714198
 H   -0.7877948489   -4.4818168792   -1.1388120810
 H    0.2863848803   -5.2224981693    0.0545721214
 H   -2.0538613666   -2.2885934285    2.2764858747
 H   -2.9932550644   -1.2615045116    1.1826300132
 H   -3.5436183926   -3.2797865710    0.1066256155