22

 C   -0.0874533941    1.6409292554    0.0117269013
 C    0.0248222971    0.1123765146    0.0024284352
 C   -1.3533803963   -0.5612077351    0.0120096509
 C   -1.3707733094   -2.1192625532    0.0038280851
 C   -0.6968095352   -2.6812651187   -1.2697933788
 C   -0.6724991225   -2.6947973968    1.2581528040
 C   -2.7768972744   -2.5428072753    0.0151157909
 C   -3.9308263394   -2.8816114174    0.0242225756
 H    0.9001029869    2.1125722665    0.0048054918
 H   -0.6365947590    2.0029112950   -0.8645048270
 H   -0.6196739561    1.9934079136    0.9021590389
 H    0.5921311834   -0.1996738415   -0.8821832493
 H    0.6089416669   -0.2091132380    0.8726028587
 H   -1.9100309998   -0.2234650974    0.8950784528
 H   -1.9268076987   -0.2140698157   -0.8565624172
 H    0.3688303534   -2.4353459261   -1.2858387206
 H   -0.7938549209   -3.7698650963   -1.3049330682
 H   -1.1610567098   -2.2711659290   -2.1713866311
 H   -1.1192950113   -2.2944463506    2.1728493916
 H   -0.7689249597   -3.7837251979    1.2834799226
 H    0.3932668835   -2.4489116097    1.2563294298
 H   -4.9487503545   -3.1833065063    0.0318311429