20

 C   -0.3364117031    1.2722065165   -0.0394270415
 O    0.0910625779   -0.0639398384    0.0634189061
 C    0.5772323250   -0.5793799673   -1.1571500973
 C    0.9805862532   -2.0331473704   -0.9253290779
 C    1.4523791353   -2.7321312887   -2.1876258697
 C    2.7449109480   -2.2454361915   -2.8094870889
 C    1.0096801202   -4.1109014878   -2.4463510970
 O    0.4037477905   -3.0132706439   -3.1328263650
 H    0.4836122590    1.9431354404   -0.3428212060
 H   -1.1556808375    1.3852870340   -0.7672742795
 H   -0.6953143691    1.5788100931    0.9462153070
 H   -0.1983113030   -0.5292463533   -1.9388679493
 H    1.4336768926    0.0214889429   -1.5073298089
 H    1.7685798358   -2.0699233556   -0.1635639617
 H    0.1129108399   -2.5626586099   -0.5203411532
 H    3.5750674952   -2.3381402820   -2.1008358332
 H    2.9823426467   -2.8279616994   -3.7028499464
 H    2.6722980619   -1.1936202775   -3.1035463389
 H    1.6218773506   -4.7671607359   -3.0645253193
 H    0.3733691209   -4.6204871353   -1.7235556793