21

 C    0.0206842180    1.5607388013   -0.0417417357
 C    0.0123128689    0.0340982980    0.0494377619
 O    0.6486248241   -0.4092894125    1.2484546255
 C   -1.4000957882   -0.5475454561   -0.1014804646
 C   -1.4563104366   -2.0705973898   -0.1452266800
 C   -1.2094364647   -2.9117540442    1.1675436587
 C   -2.6101642188   -3.5071441429    0.9943347755
 O   -3.5343379147   -2.4088081871    1.0060355472
 C   -2.8549389054   -2.7124856201   -0.2189821085
 H    1.0359211615    1.9425171019    0.0960851507
 H   -0.3529749916    1.9046040756   -1.0116384395
 H   -0.6191132665    1.9992863316    0.7346423075
 H    0.6458049067   -0.3710940960   -0.7507005628
 H    0.1607763360   -0.0331499787    1.9898610748
 H   -2.0340533045   -0.1885374866    0.7201707933
 H   -1.8394032404   -0.1489918917   -1.0266077494
 H   -0.8211678117   -2.4521800527   -0.9526011794
 H   -0.3993302900   -3.6347410356    1.0530910498
 H   -1.0592338904   -2.3476364565    2.0886386921
 H   -2.9949594876   -4.4754860244    1.2927804239
 H   -3.4737265743   -2.9075982733   -1.0883733109