15

 C   -0.0277589827    1.4367698601   -0.0660833979
 C    0.0081137775   -0.0520004392   -0.0148281299
 N   -0.0139562628   -0.8075361691   -1.0979554342
 N    0.0339889915   -2.0724202459   -0.5848338298
 C    0.0824158696   -2.0073013065    0.7691487287
 N    0.0678280027   -0.7567672108    1.1648115540
 C    0.0308187256   -3.2510206743   -1.3954014625
 N   -0.0230020110   -2.9617577158   -2.7112924691
 O    0.0749241595   -4.3448657959   -0.8836503139
 H    0.8682174451    1.8571249665    0.4010317832
 H   -0.0863435982    1.7808870107   -1.0997005830
 H   -0.8908283361    1.8173380180    0.4885601312
 H    0.1253156304   -2.8932245673    1.3821041549
 H   -0.0573310365   -2.0021134845   -3.0149445238
 H   -0.0307258246   -3.7232933260   -3.3660027679