17

 C   -0.2827095392    1.5531287354    0.0037488601
 C    0.0407775473    0.0648842034    0.0123585951
 C    1.1786470478   -0.5205767445   -0.9000747557
 C    1.7545015731   -1.2461689155    0.3230646887
 C    2.1932872463   -0.2483917567    1.3736198674
 C    2.7997384244    1.0149918084    1.0449793059
 N    3.3112560831    2.0185660254    0.7787790065
 C    0.7193304850   -0.5891790063    1.2278032725
 H    0.6017167312    2.1701910070    0.1755491916
 H   -0.7115142217    1.8439714523   -0.9614977664
 H   -1.0195823368    1.7931127721    0.7783410833
 H   -0.8745286077   -0.5012592396   -0.1897849985
 H    0.8029607930   -1.1949185410   -1.6711394936
 H    1.8491703064    0.2084859339   -1.3637721762
 H    2.1439665029   -2.2565039509    0.3433278208
 H    2.6408137130   -0.7084273320    2.2503266469
 H    0.2019256217   -1.0013733013    2.0867890416