19

 O    0.0227927837    1.4307780303   -0.1575395614
 C   -0.0248059711    0.0435541946    0.0167527069
 C   -0.4431429664   -0.6230356863    1.3153692652
 C   -1.2237271691    0.1746299024    2.3681756163
 C   -2.6316374350    0.4220896416    1.8028088229
 C   -2.8220855902    1.3738068489    0.6491519811
 C   -2.6651089250   -0.1068451425    0.3847747892
 C   -1.3145912187   -0.7358379204    0.0766690866
 O   -1.3525093515   -1.9541906590   -0.6105390423
 H    0.7486525104    1.7677636208    0.3793655797
 H    0.7602435489   -0.4956193397   -0.5168562132
 H    0.1591680686   -1.4632146996    1.6450410667
 H   -1.2933570744   -0.4219388932    3.2826258640
 H   -0.7195420478    1.1097470045    2.6420819580
 H   -3.4698970233    0.2681228816    2.4738853170
 H   -3.8208887668    1.7797094219    0.5208486327
 H   -2.0192896439    2.0392833701    0.3690291331
 H   -3.5096475038   -0.6725811388    0.0082533123
 H   -1.4773002545   -1.7610371070   -1.5465280648