20

 C   -0.1371814325    1.5783638829   -0.1961903670
 C   -0.0200195517    0.0607705332   -0.0306839695
 C    0.9672130799   -0.5564841642   -1.0881847656
 N    2.3084100665   -0.5994933360   -0.4667719754
 C    2.0959311796   -0.5040214864    0.7768977912
 O    3.0011805770   -0.3891585588    1.7662783887
 C    2.2868495889   -0.0541939905    2.9816463195
 C    0.8910425092    0.4510428797    2.5446438485
 C    0.6771989978   -0.3847744702    1.2750007485
 H    0.8451309462    2.0615715440   -0.1546051929
 H   -0.5811938553    1.8198628385   -1.1670038070
 H   -0.7694357163    2.0247931499    0.5783481739
 H   -1.0149126594   -0.3853287534   -0.1207113593
 H    0.6584606030   -1.5698273228   -1.3796568287
 H    1.0050731188    0.0408374228   -2.0055093740
 H    2.2143797108   -0.9558256823    3.6019406714
 H    2.8798016103    0.6912895899    3.5156737392
 H    0.1422147812    0.2992337372    3.3249256410
 H    0.9355838040    1.5189750275    2.3129636208
 H    0.3198610419   -1.3845850012    1.5601612367