19

 C    0.0314533984    1.5964649697   -0.1268594778
 C    0.0382704950    0.0718423034    0.0012840243
 O    0.7682510002   -0.3508498856    1.1481278132
 C   -1.3680132299   -0.5416917273    0.1227294151
 C   -1.3749054012   -2.0850275479    0.1573150787
 C   -2.2731340052   -2.4716782643    1.3415846387
 O   -2.6278907264   -3.5904471017    1.6315152638
 C   -2.6108812643   -1.2124325354    2.0462765701
 C   -2.1079492185   -0.1623643434    1.3900570269
 H    1.0526927599    1.9729745649   -0.2533074852
 H   -0.5485437182    1.9175802254   -0.9984028158
 H   -0.3877554449    2.0665802589    0.7671670040
 H    0.4932526449   -0.3498276623   -0.9106503296
 H    1.6754696742   -0.0435051383    1.0586459827
 H   -1.9395566649   -0.1752455789   -0.7413481640
 H   -1.7371955360   -2.5493651059   -0.7630777454
 H   -0.3708835916   -2.4723094243    0.3552605347
 H   -3.1964215660   -1.1945631491    2.9566292901
 H   -2.2220881553    0.8715833121    1.6971796155