23

 C   -0.0638199329    1.5323777055    0.0095825793
 C    0.0491578147    0.0198224647    0.0024987221
 C    0.9812824541   -0.6971251791   -1.0294413754
 C    0.9575852467   -1.8607074376    0.0081735162
 C    0.9418877301   -0.7098481433    1.0600336918
 C   -0.4646199116   -2.5675011091   -0.0228811910
 C   -1.3629491666   -1.8554822233   -1.0808015639
 C   -1.3766077535   -0.7030654886   -0.0287155328
 C   -1.4021939824   -1.8681395888    1.0091105988
 H    0.9245425416    2.0039640620    0.0310001478
 H   -0.5897861515    1.8950318005   -0.8818092873
 H   -0.6229384967    1.8842757412    0.8849640433
 H    0.6567815554   -0.8558759449   -2.0561680882
 H    1.9639272573   -0.2172010290   -1.0535275362
 H    1.7762574059   -2.5826160668    0.0192128674
 H    1.9228163319   -0.2304811751    1.1269950387
 H    0.5789301718   -0.8810201500    2.0717847964
 H   -0.3847324010   -3.6564845625   -0.0279765345
 H   -1.0021625243   -1.6837480126   -2.0927323346
 H   -2.3435017907   -2.3345566431   -1.1442674085
 H   -2.1923336623    0.0240276831   -0.0396285604
 H   -2.3843289285   -2.3477235793    1.0299243056
 H   -1.0796712675   -1.7087441540    2.0358744354