20

 C   -0.2974289984    1.3946988213   -0.2028629040
 C   -0.1875765650   -0.1278389259   -0.3078516228
 C    1.0212079146   -0.5927994550   -1.1190164583
 C    1.0982375662   -2.1179629309   -1.3295677760
 C    0.3934126167   -2.3306029804   -2.6671324618
 O   -0.9900770265   -2.5826072540   -2.4430135384
 C    0.5605182986   -0.9845963628   -3.3568640450
 N    0.3032816501   -0.7884405061   -4.5790578390
 O    0.9583380493   -0.0435829120   -2.4643897171
 H    0.5842515733    1.8234712502    0.2869394679
 H   -0.3813551955    1.8482323521   -1.1939838916
 H   -1.1765572041    1.6838721637    0.3801122062
 H   -0.1004754079   -0.5687495536    0.6935410030
 H   -1.0891614346   -0.5550258614   -0.7604654315
 H    1.9410760981   -0.1925192832   -0.6806716724
 H    2.1405743981   -2.4392421725   -1.4060472265
 H    0.6177950804   -2.6821392595   -0.5284932348
 H    0.8415464049   -3.1298073702   -3.2681859630
 H   -1.4334147586   -2.4456176308   -3.2894239785
 H    0.4080787804    0.1983090311   -4.8220528263