15

 O   -0.0411580073   -0.0437277684    0.0214361864
 C   -0.0000327911    1.1634285223   -0.0296138805
 N    1.1631256337    1.8969930007   -0.0089968380
 C    2.4529144273    1.3645463285    0.0652523280
 N    3.4143872266    2.1944290565    0.0675724284
 C    2.8399769289    3.5403429481   -0.0311030307
 C    1.2720617222    3.3717226940   -0.0413071610
 C    0.6125489173    3.9704797679   -1.1932015490
 C    0.0766769566    4.4818081617   -2.1392192037
 H   -0.8948529249    1.8073831490   -0.1016387150
 H    2.5518167356    0.2874397519    0.1138355922
 H    3.1657920639    4.1510238123    0.8152987828
 H    3.1884601984    4.0267319474   -0.9463704160
 H    0.8396656252    3.7871654438    0.8762317513
 H   -0.3975613224    4.9300045744   -2.9777240551