19

 C    0.3330814902    1.2948377488   -0.2073332690
 C   -0.1105824069   -0.1501945510    0.0462809477
 C    0.2736606556   -0.6197393097    1.4537982645
 N   -1.5611024761   -0.2294047846   -0.0957476219
 C   -2.0275413381   -0.9849435002   -0.9775605213
 O   -3.3786163425   -1.0737746565   -1.1517304610
 C   -3.8142697146   -1.9810498270   -2.1449985311
 C   -3.7015062910   -3.3881374521   -1.7250872155
 N   -3.6032272694   -4.4923129151   -1.4011065345
 H    1.4171553964    1.3893677733   -0.0897221405
 H    0.0670944665    1.6141605267   -1.2193489561
 H   -0.1553860763    1.9711897917    0.5006565763
 H    0.3918694958   -0.8041980526   -0.6890969809
 H   -0.2160844813    0.0034395100    2.2081814879
 H   -0.0352179831   -1.6561083347    1.6175443307
 H    1.3569236242   -0.5553739634    1.5967429860
 H   -1.4403728864   -1.6110399582   -1.6660952877
 H   -4.8648329202   -1.7469813514   -2.3331208138
 H   -3.2648403627   -1.8484856940   -3.0865125797