20

 C    0.0978357500    1.5019066518   -0.4160285321
 C   -0.0259947376    0.0648388050    0.0393236475
 O   -1.2992337905   -0.4881370401   -0.1862701477
 C    1.1505204735   -0.8813938885   -0.0523146472
 C    0.6001885412   -0.4485105571    1.3025974566
 C    1.4154498253    0.4094331593    2.2419622879
 N    2.3450038161   -0.4016895525    3.0173941277
 C    2.5110411424   -0.2699560924    4.3593197702
 O    1.9420641962    0.5393135260    5.0614746258
 H    1.0914986088    1.9128293327   -0.2220638656
 H   -0.0784694434    1.5720865739   -1.4966338829
 H   -0.6438308197    2.1300864918    0.0871325994
 H   -1.4390219579   -0.5246291243   -1.1395083835
 H    0.9522306283   -1.8966129113   -0.3767217894
 H    2.1074129798   -0.4750427781   -0.3680859470
 H   -0.0064153075   -1.1970401070    1.8040055804
 H    1.9646674527    1.1803923011    1.6865332989
 H    0.7816964633    0.9246104188    2.9683604686
 H    2.8670197348   -1.1171945810    2.5362234404
 H    3.2420140843   -1.0040763382    4.7542458121