19

 O    0.2036441586    1.0852124904   -0.4791627628
 C    0.1107507557   -0.2315368797    0.0361358296
 C   -1.3429764555   -0.6509476442    0.1353294980
 O   -2.0133494416   -0.5554286608   -1.1563043934
 C   -2.6099991313   -1.8673273152   -0.9914770664
 C   -2.1504479995   -2.8859726440   -2.0229545888
 C   -0.7374440951   -3.2377417223   -1.5326128594
 O   -0.7668389190   -3.0974449035   -0.1074478597
 C   -1.7414146154   -2.1410130901    0.2575731023
 H   -0.3126776106    1.0902411580   -1.2941145269
 H    0.6755601286   -0.9467671972   -0.5771178822
 H    0.5638261188   -0.2210336083    1.0333325250
 H   -1.8626878333   -0.0170601254    0.8672029038
 H   -3.6949824899   -1.8010551521   -0.8687539761
 H   -2.8083959562   -3.7605888497   -1.9857406042
 H   -2.1635178189   -2.4812545722   -3.0376627687
 H   -0.4374533301   -4.2647920949   -1.7554848480
 H    0.0044397757   -2.5575694275   -1.9711431184
 H   -2.1989736909   -2.4535488715    1.1974555463