14

 C    0.0372145226    1.3767624761    0.0694667302
 O    0.1144246064   -0.0559634941    0.0070078939
 C    0.6273545432   -0.5786918822   -1.0865631282
 N    1.0470199537    0.1439259300   -2.0680826206
 C    1.5577343730   -0.5514340715   -3.1436726585
 N    1.6740232032   -1.8210058701   -3.3047780318
 O    1.2148290956   -2.6053499814   -2.2312942863
 C    0.6801588467   -2.0582254139   -1.0915218199
 N    0.2682285522   -2.7659989891   -0.1281621320
 H    1.0344250944    1.8158961697   -0.0093135578
 H   -0.5849672522    1.7605798857   -0.7423515058
 H   -0.4088962790    1.5959849880    1.0384454349
 H    1.9161772962    0.0400963496   -3.9801622433
 H    0.3954726440   -3.7593223869   -0.3342579148