15

 O   -0.1467731412    0.0162282897    0.0731007955
 C    0.0106751496    1.2099511065   -0.0501556765
 C    1.2968156987    1.8884290366    0.0203957570
 C    1.5159441847    3.3133664551    0.5923431235
 O    2.6369021260    3.3417927451    1.4126900555
 C    3.4790181098    2.4261346787    0.7619134892
 C    3.2549539890    2.4247023474   -0.7385015457
 C    2.7024984329    1.2920202365    0.1282097215
 C    1.8554589040    3.0556235566   -0.8394228029
 H   -0.8521040722    1.8915842495   -0.2364428771
 H    0.6901640962    3.9310204707    0.9179123234
 H    4.4495978431    2.3040975385    1.2212757782
 H    4.0261880868    2.4267620549   -1.4948302208
 H    2.9532889624    0.2432348572    0.1781551533
 H    1.4013401202    3.5401183469   -1.6921393141