16

 O    1.1050200306    1.3817768893   -0.4538108250
 C    0.2625687348    0.3822874871    0.0375383584
 C   -0.0460484457   -0.6329914207   -0.9990379391
 N   -0.3145244090   -1.4167747067   -1.8036786717
 C    0.8850990317   -0.2866295893    1.2526856243
 N    2.0398060490    0.0817751087    1.6531068853
 C    2.3678634452   -0.7718093451    2.8103540477
 C    1.0458840761   -1.5119860027    3.1682231703
 N    0.2772599620   -1.3162349713    1.9285233232
 H    1.9326299826    1.2813103612    0.0514492673
 H   -0.7009564865    0.8266890799    0.3356958864
 H    3.1542736950   -1.4779456870    2.5185740219
 H    2.7548379162   -0.1714857914    3.6372495167
 H    1.1925270207   -2.5731855917    3.3821568990
 H    0.5389611389   -1.0516783188    4.0266003736
 H   -0.7278401216   -1.3998024313    1.9353599316