19

 C   -0.0860159353    0.8121751354    0.4904783758
 O   -0.3787363182    0.2745026931   -0.7895049386
 C    0.6830052900   -0.3908299499   -1.4265544559
 C    0.7458970822   -1.9046179857   -1.1291520531
 C    1.3419132509   -2.7606964445   -2.2557459367
 C    1.8762479332   -3.9768035982   -1.4919200428
 O    2.2337335080   -3.4825591978   -0.1893408122
 C    1.6077899063   -2.3041991280    0.0708931425
 O    1.7670769946   -1.7225139372    1.1070858063
 H    0.1814149891    0.0370673987    1.2151679865
 H    0.7430342672    1.5339916820    0.4359824497
 H   -0.9870324788    1.3365881770    0.8183478695
 H    0.5091037766   -0.2734702484   -2.5029515334
 H    1.6497714296    0.0793576669   -1.1912282480
 H   -0.2790843477   -2.2303724650   -0.9089099300
 H    0.6192900325   -3.0324403902   -3.0276049604
 H    2.1675805948   -2.2245615191   -2.7379914082
 H    1.1128330297   -4.7550042449   -1.3734392513
 H    2.7683677553   -4.4256200442   -1.9332141095