13

 O    0.1582706582   -0.0932944452   -0.0208172144
 C    0.0979712364    1.1039572622   -0.0939382778
 C    1.2993871977    2.0378626721   -0.0341038073
 C    1.3602580968    2.7684744005    1.3538121848
 O    2.6096746550    2.3711497944    1.8894907054
 C    2.9740385027    1.1927352085    1.2072480352
 O    2.5291562255    1.3572349028   -0.1214430522
 H   -0.8773415671    1.6389148058   -0.1908320906
 H    1.2293060021    2.7501569134   -0.8648517757
 H    1.3491876542    3.8567876069    1.2592397126
 H    0.5307958537    2.4621352865    2.0076514944
 H    4.0624543038    1.0979578633    1.2120973478
 H    2.5011559110    0.3083426087    1.6641428680