17

 N    0.2175231481    0.9953808039    0.7862868516
 C    0.0115726602    0.0495281743   -0.1723951992
 O    0.8524768359   -0.2356534231   -1.0057595326
 C   -1.3429212834   -0.6492215704   -0.1308825243
 C   -1.9518320339   -0.6725729994   -1.5355303915
 O   -3.1637080121   -1.4367421675   -1.5678986481
 C   -3.2048072033   -2.5275039622   -0.7669462510
 N   -2.3683727153   -2.9246083314    0.0934904076
 C   -1.1802547223   -2.1151055309    0.3261848846
 H    1.1193155932    1.4419317780    0.8307974548
 H   -0.4603124938    1.1980445534    1.4991845636
 H   -2.0317938510   -0.1346078025    0.5491405423
 H   -2.2222900794    0.3268049598   -1.8840894267
 H   -1.2270226641   -1.1029363748   -2.2336362879
 H   -4.1250177736   -3.0802750527   -0.9462906322
 H   -0.3263219306   -2.5575920864   -0.2012331700
 H   -0.9447088645   -2.1564916682    1.3952710891