15

 C   -0.0717794529    1.5483800655    0.8999188972
 C   -0.6509057660    0.2241335955    0.4264045259
 C   -0.4687374511   -0.2771312110   -0.9563791725
 N    0.1847845107   -0.9486803968    0.1815515404
 N    1.0911518606    1.9867363128    0.1382192730
 N    2.2844322747    1.4148525273    0.2108860964
 N    3.0252897220    2.0616044280   -0.6377180178
 N    2.2838822072    3.0224358742   -1.2199020146
 N    1.0778844031    2.9771128845   -0.7413971137
 H   -0.8096623357    2.3473737992    0.8034441290
 H    0.2355737270    1.4792803831    1.9475072767
 H   -1.5813612938    0.0027205858    0.9465846607
 H   -1.2629355369   -0.8429863377   -1.4338330691
 H    0.1420979812    0.3061244114   -1.6401043273
 H    1.1726944899   -0.7028158718    0.2161909256