18

 O   -0.2316988381    0.0813311165   -0.0763601682
 C    0.0018990382    1.2399872248   -0.3171031184
 C    1.3279608310    1.9049403395   -0.0375159322
 C    1.3067765502    2.7627979584    1.2675244493
 C    2.1026172515    1.5991122166    1.9056597971
 C    3.2563367051    1.8150535496    2.8999919348
 O    2.5301013700    1.1477862247    3.9534488858
 C    1.4804414083    0.7600781318    3.0464675250
 N    2.3476296045    1.0359282669    0.5665729497
 H   -0.7706126873    1.9064157415   -0.7638337899
 H    1.6476612839    2.4352639098   -0.9451126789
 H    1.8773464256    3.6887604377    1.1772220606
 H    0.3286141564    2.9812210386    1.7011630412
 H    4.1757240667    1.2834547027    2.6212718253
 H    3.4989383727    2.8536670541    3.1574338148
 H    0.4879773475    1.0622973938    3.4033915799
 H    1.4757380671   -0.3215577491    2.8512231258
 H    2.1252215668    0.0470909319    0.4772164880