21

 C    0.0389072138    1.3314337626   -0.3970551698
 C    1.4598472650    1.5354393775    0.1594055516
 C    1.2759495606    0.1296157512    0.7797377819
 C    2.1114214002   -0.9916813190    0.1670202042
 C    1.5581154349   -2.3629001181    0.5809803087
 C    1.2952121019   -2.4314340226    2.0620957200
 C    1.1895982241   -1.3496803368    2.8319124733
 C    1.3074305914    0.0582427033    2.3067021890
 O   -0.0966998966    0.0651172294    0.2751467941
 H   -0.7171283557    2.0540881936   -0.0673472249
 H   -0.0293323632    1.2274494574   -1.4875657377
 H    2.2603749115    1.6218293721   -0.5781008765
 H    1.5556031274    2.3421555447    0.8893519167
 H    2.1205413324   -0.8944572784   -0.9239491867
 H    3.1476950990   -0.8858424917    0.5140353256
 H    0.6243304793   -2.5550987138    0.0351947374
 H    2.2540296249   -3.1556870614    0.2817220085
 H    1.1752177367   -3.4192057503    2.5005211347
 H    1.0002165223   -1.4572538703    3.8973220002
 H    2.2401194499    0.5191657629    2.6666192183
 H    0.4932200200    0.6798031676    2.6995694115