14

 N   -0.0639367456    1.3174384008    0.0084228245
 C    0.0914201859   -0.0197988250    0.1805131508
 O    1.0399192994   -0.5710483140    0.6806843425
 O   -1.0327031617   -0.6650078962   -0.2781456037
 C   -1.0238400852   -2.0675382449   -0.1776656796
 C   -2.1674231491   -2.7257648964    0.6157589858
 O   -2.5825311444   -3.4499443325   -0.5875140745
 C   -1.6650217838   -2.7968560452   -1.3743695395
 O   -1.5259891378   -2.8596971841   -2.5501352115
 H    0.7479456279    1.8922626971    0.1516446389
 H   -0.7995228337    1.6569733560   -0.5871969914
 H   -0.0237123952   -2.4222925189    0.0774189050
 H   -1.8861827132   -3.4164935930    1.4118270317
 H   -2.9445646835   -2.0332731637    0.9442841010