23

 C   -0.0512575784    1.5474790283    0.0002690355
 C    0.0077885102    0.0387470265   -0.0246425545
 C   -0.0146665871   -0.6264973455   -1.1835819617
 C   -0.0065751741   -2.1242335223   -1.3252119767
 C   -0.3519068554   -2.8178525729   -0.0043193315
 C    0.4239763141   -2.1713564284    1.1422264613
 C    0.0556109240   -0.6907846818    1.3209917838
 C    1.0368659866   -0.0301002377    2.3020776637
 O   -1.2592807141   -0.7043858829    1.9148457306
 H    0.8664197472    1.9916285017    0.4028435504
 H   -0.2051666315    1.9474024401   -1.0051647455
 H   -0.8742741399    1.9202880718    0.6260912286
 H   -0.0477327255   -0.0544769402   -2.1101430425
 H   -0.7096808412   -2.4199020742   -2.1140451178
 H    0.9831594902   -2.4525369686   -1.6801180073
 H   -1.4232781603   -2.7128892475    0.1967999379
 H   -0.1336003633   -3.8892134361   -0.0637233071
 H    0.2220801493   -2.6807513178    2.0901492408
 H    1.5021491751   -2.2465750868    0.9529705377
 H    2.0472527227    0.0230709415    1.8828517253
 H    0.7238214595    0.9864052846    2.5599225581
 H    1.0731828475   -0.6126476260    3.2272177588
 H   -1.5836502356    0.2014566144    1.9430116922