15

 C   -0.0558252058   -1.2253378300   -0.1173291337
 C   -0.0918062725   -0.0256050204   -0.0227735780
 C   -0.0983620851    1.3797977839    0.0961048148
 N   -1.1377103842    2.1998534321   -0.0696687645
 C   -0.7026005173    3.4842406117    0.1391425687
 C    0.6409711850    3.4435759924    0.4407824298
 C    2.0481441367    3.9065581939    0.7994643727
 C    2.4212831015    2.3760802050    0.7529349117
 N    1.0003415556    2.1347643234    0.4103187223
 H   -0.0383527955   -2.2833435661   -0.2039537058
 H   -1.3760254956    4.3224115583    0.0580055352
 H    2.5544598795    4.5194921542    0.0506551884
 H    2.1621478732    4.3712384755    1.7812165883
 H    3.1139636580    2.0786669406   -0.0368376175
 H    2.7196965765    1.9295567254    1.7034958277