16

 C   -0.0270072325    1.5090649978    0.0465806867
 C    0.0118795244    0.0193014370   -0.0063223755
 C   -0.0463824260   -0.7902547614   -1.0739852162
 N    0.0013683083   -2.1524526851   -0.7136058780
 C    0.0506225240   -2.3031483087    0.6570776247
 O    0.0647134418   -3.3336305007    1.2865528722
 C    0.1055923918   -0.8687588732    1.1842337107
 C    0.7916732129   -0.5916604156    2.4616369597
 O   -0.6257864013   -0.5863408931    2.3830922078
 H    0.9169711666    1.9306603821    0.4152707941
 H   -0.2169515372    1.9349106106   -0.9424290621
 H   -0.8157262313    1.8524162940    0.7256191635
 H   -0.1134935795   -0.5233855683   -2.1194074733
 H   -0.1005797301   -2.9274824684   -1.3466929632
 H    1.2251709061   -1.4331632112    2.9995451210
 H    1.2626540220    0.3786821142    2.6110974179