20

 C   -0.2161484293    1.0208477959   -1.8294247592
 C   -0.0416992985   -0.1657240130   -0.9037088096
 C    1.3290750100   -0.6325579050   -0.3872320255
 C    2.5755404293    0.0959324365   -0.6973806013
 O    3.6457809206   -0.4450024499   -0.8552976549
 C    0.2538056302   -0.0692841816    0.5623572393
 C    0.4571830179    1.2767452841    1.2369729769
 C   -0.3968854008   -1.0945031719    1.4750479938
 H    0.3992982121    1.8793020553   -1.5536187056
 H    0.0408485506    0.7500103277   -2.8588235121
 H   -1.2602245611    1.3524637731   -1.8250676889
 H   -0.6800337223   -1.0033291342   -1.1768026350
 H    1.4879620180   -1.7055787708   -0.3407497356
 H    2.4896456770    1.2008236740   -0.7841458048
 H    0.8905894604    2.0341912959    0.5821860823
 H   -0.5041354892    1.6630486416    1.5949009208
 H    1.1155971885    1.1758901005    2.1066842340
 H    0.2115885389   -1.2691601579    2.3694997527
 H   -1.3824903342   -0.7456649249    1.8057801150
 H   -0.5333529081   -2.0546975956    0.9688220677