19

 O   -0.1523243304    1.4569254559   -0.0060765761
 C    0.0246866465    0.0685575939   -0.0286748843
 C   -1.2617051599   -0.7035467719    0.0636576997
 C   -0.4671552762   -0.6791131473   -1.2437319359
 C   -0.0607950828   -2.1572252914   -1.3951630069
 C   -1.3425400510   -2.8745297532   -0.9360286002
 C   -1.2718874728   -2.1979277660    0.4607182740
 C    0.1390071983   -2.6512669887    0.8549709349
 O    0.8887937323   -2.5224321491   -0.3727597333
 H    0.5503018411    1.8505824261   -0.5340987117
 H    0.9224326828   -0.2891547222    0.4674437041
 H   -2.1670623616   -0.1195442379    0.1807154627
 H   -0.7958347880   -0.1145159107   -2.1097396495
 H    0.3626037913   -2.4298777769   -2.3619526785
 H   -2.2260614422   -2.5833727452   -1.5083079451
 H   -1.2476257350   -3.9646359970   -0.9119666167
 H   -2.0446965228   -2.4667127107    1.1809007522
 H    0.5985647912   -2.0328969761    1.6331935282
 H    0.1521845593   -3.6973234215    1.1886640123