19

 C    0.1547755896    1.5875071977   -0.1157961084
 C   -0.0035882854    0.0781713801    0.0474350255
 O    0.5781987948   -0.6000674018   -1.0786598630
 C    1.5172282319   -1.5651111790   -0.6485247972
 C    1.5852512090   -1.4507244412    0.8507350633
 C    2.5109259920   -2.3117478244    1.6443204930
 C    0.7056866766   -0.5138502017    1.2468226164
 C    0.3981275713   -0.1245853661    2.6205578673
 O   -0.4418970822    0.6979731210    2.9238632944
 H    1.2135032698    1.8644620257   -0.1307011389
 H   -0.2996967501    1.9061936850   -1.0579147008
 H   -0.3378282773    2.1029542980    0.7117099396
 H   -1.0776528776   -0.1612090171    0.0869310321
 H    1.2058026737   -2.5803287852   -0.9511204182
 H    2.4981739499   -1.3841060236   -1.1182672975
 H    2.3024550511   -3.3720332232    1.4553944912
 H    3.5497519929   -2.1402706301    1.3362183255
 H    2.4417777141   -2.1367872326    2.7187917688
 H    0.9850685958   -0.6440621816    3.4077094669