18

 C   -0.0416428881    1.5357453710    0.0099888163
 C   -0.0030657017   -0.0086407137    0.0024519833
 C    0.8962825796   -0.5026298073   -1.1855265050
 C    2.2359805249   -0.7435043516   -0.5383103203
 C    2.1584672994   -0.7519134236    0.7905489482
 C    0.7524297500   -0.5182409017    1.2806124451
 C   -1.3627421598   -0.5342685209   -0.0801588717
 C   -2.4856418305   -0.9599305601   -0.1484407388
 H    0.9766765339    1.9327332985    0.0718631033
 H   -0.5096081240    1.9169094647   -0.9020389030
 H   -0.6126804999    1.9057106918    0.8662087229
 H    0.4990849549   -1.4256375646   -1.6258798248
 H    0.9284420668    0.2387029386   -1.9922116283
 H    3.1364135717   -0.9205436002   -1.1161541702
 H    2.9857529941   -0.9368756433    1.4668708161
 H    0.6900169914    0.2128289371    2.0948548054
 H    0.3073986375   -1.4464394097    1.6601081778
 H   -3.4751615601   -1.3400077550   -0.2084547264