20

 C    0.1672736084    1.6488649631    0.0282949318
 C    0.0418581292    0.1224109638    0.0702241420
 C    0.5474359483   -0.5427886828   -1.2004406930
 C    0.3432005967   -2.0664720459   -1.4251242302
 C   -0.3744059247   -1.6941680639   -2.7149624738
 C   -1.5050358533   -0.7676769801   -2.4467431504
 N   -0.1724405535   -0.1772872718   -2.4948459579
 C   -0.1248215138   -2.2787546532   -4.0442467314
 O    0.4626364051   -3.3178307262   -4.2265377630
 H    1.2119936904    1.9551003520   -0.0916438815
 H   -0.3964916373    2.0646585879   -0.8121484081
 H   -0.2112850083    2.1015972461    0.9493043198
 H    0.6216304511   -0.2821107212    0.9102359643
 H   -0.9996741716   -0.1624064705    0.2632752843
 H    1.5937947073   -0.2658239898   -1.3582111641
 H    1.2684924754   -2.6166612996   -1.5970024695
 H   -0.2586041136   -2.6033760892   -0.6864205564
 H   -2.1248589019   -0.4689744234   -3.2874366069
 H   -2.0397213279   -0.8707817124   -1.5056518913
 H   -0.5171907360   -1.6672303428   -4.8878599745