22

 C    0.0730760124    1.5804201800    0.2692849476
 C   -0.0109408122    0.0793974696    0.0594342241
 C   -1.3425132531   -0.4467109505   -0.4525432841
 C   -1.7127207867    0.0507473656   -1.8555857170
 C   -2.8956635185   -0.7181358662   -2.4430081202
 N   -3.6667282241   -0.0060544032   -3.3185611330
 O   -3.1354226273   -1.8778749476   -2.1668791216
 C    1.2394742543   -0.6396523254   -0.3946782628
 C    0.7464317513   -0.7994067391    1.0255247873
 H    1.0442839389    1.8663309372    0.6851095635
 H   -0.0550618666    2.1324208289   -0.6690241558
 H   -0.7012127897    1.9250906547    0.9655240556
 H   -1.3270721578   -1.5399584839   -0.4853187453
 H   -2.1413903505   -0.1739281090    0.2498910350
 H   -1.9217607485    1.1262337614   -1.8598902252
 H   -0.8613541971   -0.1031985942   -2.5329873165
 H   -3.4223815732    0.9227447018   -3.6131095012
 H   -4.3947598658   -0.4941950243   -3.8143333502
 H    1.1304747412   -1.4852412596   -1.0663398347
 H    2.1391254684   -0.0558773627   -0.5604281340
 H    1.3118329472   -0.3207441475    1.8184134172
 H    0.3065159976   -1.7505287461    1.3066104312