23

 C   -0.1488202491    1.5659904759   -0.1173400191
 C   -0.0221087406    0.0398749364   -0.0482060466
 C    0.8451076018   -0.5245260691   -1.2110471954
 C    2.3289026521   -0.4328486445   -0.7380621328
 C    2.2097221913   -0.3036165211    0.7575095966
 C    2.9990289499    0.0434451123    1.7708118720
 C    2.2097500247    0.1389184749    3.0640551965
 C    0.7328409403    0.2069069339    2.5715912544
 C    0.7667544136   -0.4710601544    1.1865312270
 H    0.8267127865    2.0577270004   -0.0321648687
 H   -0.5945857060    1.8711929419   -1.0698773684
 H   -0.7851049511    1.9552220161    0.6836342654
 H   -1.0275669541   -0.3934606333   -0.0865501960
 H    0.5820749236   -1.5743951467   -1.3806076008
 H    0.6699667681    0.0023746457   -2.1538583885
 H    2.9017208819   -1.3144826214   -1.0465228215
 H    2.8422410251    0.4335869286   -1.1691608658
 H    4.0656025262    0.2350128405    1.7183050237
 H    2.3791537346   -0.7429688032    3.6998537250
 H    2.4891095113    1.0084061562    3.6702892801
 H    0.0316654966   -0.2609666334    3.2681707762
 H    0.4415464568    1.2569259792    2.4695166441
 H    0.5416300566   -1.5448734047    1.2927219524