20

 C   -0.1020521864    1.4730604003   -0.1273221237
 C    0.0947821841   -0.0466345235   -0.0288587422
 C    0.9284355387   -0.4244304625    1.2018359539
 O   -1.1883238569   -0.6899460290    0.0353292840
 C    0.7388708145   -0.5905427404   -1.3124519486
 C    0.4817188420   -2.0126314435   -1.7182760120
 N   -0.1189950034   -0.9219097964   -2.4770221263
 C    2.0579832577   -0.0447714216   -1.7496956406
 O    2.7889818664    0.6627037650   -1.0992667194
 H    0.8581186447    1.9869455457   -0.1993128524
 H   -0.7071710890    1.7254025981   -1.0030307894
 H   -0.6194588279    1.8420126055    0.7661225567
 H    0.4510662547   -0.0427232144    2.1119201925
 H    1.0077359774   -1.5116336839    1.2868700277
 H    1.9303714859    0.0033488999    1.1333010499
 H   -1.6694845206   -0.3074767703    0.7755912535
 H    1.2529709362   -2.5734545815   -2.2399351102
 H   -0.1460180032   -2.5875889397   -1.0459866156
 H   -1.0829177955   -0.8114475181   -2.1663873351
 H    2.3248621406   -0.3689793397   -2.7792075027