18

 C   -0.1022330264    1.4939698676    0.0097615769
 C    1.2316082430    0.7596542149   -0.0086210027
 C   -0.0544456028    0.0056572853    0.0631374584
 C   -0.4854499409   -1.0105277472    1.1563963485
 C   -1.9405988532   -0.7130040794    1.4382696623
 C   -2.6538845748   -0.9714864120    0.3346674098
 C   -1.7684758573   -1.5698782082   -0.6961354093
 C   -0.5134919966   -2.0008091139   -0.0487541980
 N   -0.4208397237   -0.8874998561   -1.0461524849
 H   -0.3765998625    2.0409635775    0.9057614567
 H   -0.4388333480    1.9467636882   -0.9168103692
 H    1.7794786256    0.7233163655   -0.9439257349
 H    1.8515326386    0.8064214420    0.8811663953
 H    0.1811393802   -1.1724076321    2.0017904255
 H   -2.2856938315   -0.1922108295    2.3228446195
 H   -3.6980273050   -0.7422364248    0.1658362644
 H   -2.1594164006   -2.0852967580   -1.5644650768
 H    0.0010108060   -2.9491963196   -0.1649044515