16

 O    0.3556518419    1.4379373947    0.3801032592
 C   -0.0069441364    0.1338688912    0.0373597404
 C   -1.5088117677   -0.0668745875   -0.2315376371
 C   -1.5605421752   -1.3340721911   -1.1171256366
 C   -0.3298633020   -1.2290573330   -2.0453142499
 C    0.6116717788   -0.2669798830   -1.3406462453
 O    1.6195507257    0.2448862059   -1.7457209814
 C    0.4715339698   -0.8446344155    1.0416095442
 N    0.8489831764   -1.6251920544    1.8067411572
 H    1.2131683685    1.5971895615   -0.0464878946
 H   -2.0970656169   -0.1525747491    0.6830094268
 H   -1.8520352965    0.8162657352   -0.7810319211
 H   -1.4875339722   -2.2267191750   -0.4894215524
 H   -2.4975400942   -1.4018738712   -1.6722555721
 H    0.1686978924   -2.1829269279   -2.2392031827
 H   -0.5726800723   -0.7973197210   -3.0225316045