21

 C    0.1035876451    1.5119737246   -0.0327753517
 O   -0.1289035658    0.1264418111   -0.0893944394
 C    0.6228505133   -0.5482762714   -1.0804363301
 C    2.0826162511   -0.8380595979   -0.6258252730
 C    2.0450620822   -2.2531250903   -0.0864244874
 O    0.9804258187   -2.4851867733    0.8447482007
 C    0.8046131153   -2.9039899377   -0.5151606569
 C   -0.0211143207   -1.9423655358   -1.3520919697
 C   -1.5277012498   -2.0124644302   -1.0971605977
 H    1.1382281042    1.7578338674    0.2514671502
 H   -0.1091564772    1.9999216513   -0.9980218640
 H   -0.5684356857    1.9208535148    0.7258488439
 H    0.6151909747    0.0576666695   -1.9993401421
 H    2.7761215981   -0.7898904018   -1.4744166026
 H    2.4212845453   -0.1110233211    0.1180789170
 H    2.9647961394   -2.7996749404    0.1095661163
 H    0.7179829128   -3.9782059358   -0.6664280501
 H    0.1757179773   -2.1930169885   -2.4044316652
 H   -1.7471259829   -1.8110750457   -0.0475293269
 H   -2.0667548710   -1.2769846537   -1.7015162614
 H   -1.9111386046   -3.0059269651   -1.3527636698