15

 O    0.0157141758    1.4835279883    0.0062573265
 C    0.0065067215    0.0909581823    0.0604539222
 C    0.7589131453   -0.4748175817   -1.1486899311
 O    1.2326883222    0.2483664098   -1.9869329749
 C    0.5701463975   -0.4844145083    1.3438552722
 C   -0.3266232637   -1.3180851941    1.8780145518
 N   -1.4864015624   -1.4220951913    1.0951715362
 C   -1.4274373605   -0.5216853632    0.0305603246
 N   -2.2929243417   -0.2137502937   -0.8413459652
 H    0.3458325790    1.7097646197   -0.8786750719
 H    0.8395317572   -1.5775425117   -1.1972504503
 H    1.5515307642   -0.2507984806    1.7247228986
 H   -0.2528911180   -1.9038947443    2.7839578671
 H   -2.3659516078   -1.7381634734    1.4725101569
 H   -3.1780635587   -0.7036468776   -0.6979337527