17

 C   -0.0596827597    1.6230696178   -0.0147629707
 C    0.0971091450    0.1094924259   -0.0226894601
 C    0.7756001346   -0.6192229088   -1.1718699952
 C    2.2755007907   -0.7486247232   -1.0428381019
 C    3.0198297114    0.1435400121   -0.1126301008
 C    2.3838072732    0.1482606243    1.0603706098
 C    1.1215804301   -0.6566973204    0.9055964365
 N    1.3949182354   -1.6352269198   -0.2476626597
 H    0.8996142684    2.1306922301   -0.1412985589
 H   -0.7176937002    1.9399196797   -0.8315939338
 H   -0.5091956793    1.9698864355    0.9225390409
 H   -0.8767851634   -0.3674291123    0.1262191601
 H    0.2815583989   -0.9137471089   -2.0943653702
 H    2.7860601055   -1.2310696943   -1.8712102810
 H    3.9127314333    0.6908331771   -0.3849739380
 H    2.6264525879    0.7380385790    1.9350293693
 H    0.7193421481   -1.1262830338    1.8024059136