17

 O    0.2612439752    0.1734485378   -0.6081016177
 C    0.2295895102    1.3286761761   -0.2513687946
 N    1.2543804581    1.9873003819    0.3847481262
 C    2.6724580838    1.9547173395    0.1223504414
 C    3.1158232061    1.6356885206   -1.2963330216
 C    2.2527045485    2.5487841082   -2.2009590681
 C    1.8668284653    3.7690624381   -1.3282814047
 C    1.8967317894    3.2543786170    0.1033895310
 H   -0.6752644710    1.9633531819   -0.3346453796
 H    3.3043247256    1.6748190540    0.9604825475
 H    4.1804819906    1.8814765045   -1.3842858804
 H    2.9945621123    0.5781401402   -1.5431856288
 H    2.7823367119    2.8484703768   -3.1081429971
 H    1.3576299520    2.0114803920   -2.5236834251
 H    2.6131231382    4.5681405614   -1.4130501969
 H    0.9028398610    4.2025098810   -1.6122905829
 H    1.9357934226    3.9613719390    0.9276664613