17

 C   -0.0487843119    1.3897594276    0.0154662255
 N    0.0700699018   -0.0507398130    0.0944303157
 C    0.5187782873   -0.6500583903   -0.9147585376
 O    0.6566763305   -1.9927507309   -0.9126075284
 C    1.1753440334   -2.5680838617   -2.1087988857
 C    1.2448970930   -4.0800290327   -1.8816777650
 C    1.7652238844   -4.7784921765   -3.0490133892
 C    2.1973253099   -5.3270284058   -4.0267715875
 H    0.5444031692    1.8517878121    0.8128608835
 H    0.2765895500    1.8158526758   -0.9480385418
 H   -1.0911620433    1.6824680090    0.1856379123
 H    0.8276828342   -0.1614799441   -1.8527858326
 H    0.5219929661   -2.3422443803   -2.9610226634
 H    2.1747755765   -2.1709175381   -2.3268084175
 H    1.8742311913   -4.2754879055   -1.0056584305
 H    0.2417047602   -4.4447073312   -1.6321012519
 H    2.5776284375   -5.8272968443   -4.8827594860