21

 C    0.1266746620    1.5340159663   -0.3573308074
 O   -0.2820560438    0.1951358396   -0.5135302128
 C    0.6835937402   -0.6272901338   -1.1325204846
 C    1.9045740381   -0.9971395013   -0.2404920956
 C    2.1564275242   -2.4455527704   -0.5891561064
 C    1.1477981787   -2.9707187376   -1.2862204881
 C    0.0734365451   -1.9786496465   -1.5377445778
 C   -1.3818076330   -2.3017535751   -1.2624073706
 C   -0.9120457813   -2.0866507942   -2.6752052696
 H    0.9872509090    1.6300990792    0.3211433249
 H    0.3980914635    1.9907710174   -1.3224843013
 H   -0.7165862466    2.0832345324    0.0687895387
 H    1.0512305253   -0.1210908786   -2.0413871604
 H    2.7718514893   -0.3531207242   -0.4227828190
 H    1.6373255044   -0.8832441326    0.8197672917
 H    3.0418220273   -2.9812771426   -0.2666611767
 H    1.0772659683   -3.9993687192   -1.6233057923
 H   -1.6220456902   -3.3108040964   -0.9444095648
 H   -1.9691074730   -1.5198583390   -0.7972073823
 H   -1.2023777703   -1.1633996568   -3.1675313166
 H   -0.8391642669   -2.9438548366   -3.3369906591