24

 C   -0.0229225398    1.7323973200    0.3512618799
 C   -0.0610774428    0.2311079128    0.0330717972
 N   -1.3957723711   -0.3655182192    0.0330740086
 C   -2.1003391895   -0.5596333850   -1.2498056992
 C   -2.1933055387    0.7271549577   -2.0756948953
 C   -1.4885391913   -1.7166308541   -2.0529873959
 C   -1.9698551833   -0.9105868148    1.1594389643
 C   -1.1892668058   -0.8174701094    2.4652502598
 O   -3.0573800037   -1.4668706526    1.1341241843
 H    1.0132823284    2.0873408682    0.3547161716
 H   -0.5782456031    2.3127853857   -0.3888631755
 H   -0.4551357170    1.9442494755    1.3333801751
 H    0.3812304586    0.0604253197   -0.9532360693
 H    0.5777053184   -0.3072571809    0.7385370513
 H   -3.1083349136   -0.8545305132   -0.9550071340
 H   -2.8113741374    0.5466593055   -2.9606751470
 H   -2.6554166805    1.5340178519   -1.5000346556
 H   -1.2146429380    1.0700405731   -2.4294395834
 H   -1.4911724532   -2.6359176770   -1.4611900166
 H   -2.0712067739   -1.8952917655   -2.9624078151
 H   -0.4578477411   -1.5057369803   -2.3605124465
 H   -0.8185047603    0.1878766775    2.6777592234
 H   -1.8602920894   -1.1326422159    3.2635459094
 H   -0.3268409019   -1.4932443196    2.4513427386