15

 O   -0.0386329252    0.0362276893    0.4634552359
 C   -0.0808837770    1.1797619089    0.1268656068
 C   -1.1924438172    2.2278275987   -0.0989371517
 C   -0.0286587664    3.2560575840   -0.0597935408
 C    0.5321888890    3.7179229705    1.3274168228
 C    1.6345067705    2.6289752135    1.1775497012
 N    0.9732108985    2.1209248845   -0.0733282140
 C    0.0315172799    4.2307755385   -1.1349776105
 N    0.0597481363    5.0286324967   -1.9709197695
 H   -1.7075279554    2.1651868832   -1.0597238101
 H   -1.9261920611    2.2871429311    0.7065585048
 H    0.8806185104    4.7500447552    1.3593142408
 H   -0.1667689582    3.5484455919    2.1490587168
 H    2.6306502274    3.0211129761    0.9657532908
 H    1.6994010386    1.8707519679    1.9602600168