19

 O   -0.1987008640    1.3742177403   -0.0330050523
 C   -0.0118079749   -0.0298224610    0.0093870031
 C    0.1397543444   -0.6291394939    1.4454724722
 C   -1.4110051306   -0.5034059940    1.5730026969
 C   -1.4312614903   -0.6705569815    0.0186222147
 O   -2.4249699651   -0.0556121366   -0.7437669674
 C   -1.3380444935   -2.1536506517   -0.3549554012
 C   -0.2177379126   -2.8117027531    0.4170067805
 C    0.4956887426   -2.0892244114    1.2829407946
 H    0.6422321627    1.8054174319    0.1445379278
 H    0.7071321262   -0.3647794984   -0.7490667626
 H    0.7695776603   -0.0920021871    2.1564365780
 H   -1.9299406776   -1.2478449069    2.1801502972
 H   -1.7142360481    0.5057709170    1.8561245130
 H   -2.2682141502    0.8948188776   -0.6768613893
 H   -2.3010752754   -2.6422542281   -0.1533931878
 H   -1.1748210052   -2.2402153281   -1.4375365656
 H   -0.0205543150   -3.8658232225    0.2465358947
 H    1.3139924761   -2.5150758725    1.8547024034