16

 N    0.1444657986   -1.1170852349    0.0965863000
 C    0.0885488410    0.0367852981    0.0473472165
 C   -0.0300370500    1.4719121254   -0.0080055790
 C    0.2692261006    2.2407040866   -1.2570292997
 N    1.2153905013    2.2789962175   -0.1437565223
 C    1.1098616225    3.4269849932    0.7921299060
 C   -0.2258300803    3.3384698920    1.5185457417
 N   -1.3960692099    3.4741697998    0.6304517293
 C   -0.9338473263    2.1314204103    1.0199555823
 H    0.6305493227    1.7065248130   -2.1308889757
 H   -0.3706047697    3.0973636187   -1.4416412630
 H    1.9286720657    3.3397684243    1.5131716108
 H    1.2323345426    4.3668187092    0.2456800275
 H   -0.2989901016    3.6663660559    2.5508891847
 H   -2.2213003058    3.7228562992    1.1703286789
 H   -1.5497099214    1.4999847718    1.6487108520