21

 C    0.2881267694    1.7222529320   -0.1136217334
 C    0.0653592936    0.2165810902    0.0680739964
 C    0.6132244681   -0.5939492996   -1.1239436969
 C    2.0427888403   -0.9815971712   -0.7336574138
 O    2.8702144141   -1.4650936979   -1.4611412235
 C    2.2405642385   -0.6421665577    0.7481463920
 C    0.8184666031   -0.4023338603    1.2835494481
 C    0.7561273215    0.4055137131    2.5764637942
 O    0.1678432599   -1.6690725508    1.4676322967
 H    1.3489075565    1.9700748601   -0.2375407223
 H   -0.2318516484    2.0713724123   -1.0111384533
 H   -0.0935939297    2.2975266644    0.7342136252
 H   -1.0025925737    0.0301001114    0.2138816184
 H    0.0527470996   -1.5244843942   -1.2602335323
 H    0.6030650477   -0.0611935496   -2.0785866609
 H    2.7824833019   -1.4351889800    1.2714853647
 H    2.8557650069    0.2643337548    0.8126525232
 H    1.2469457961    1.3776128571    2.4783876457
 H   -0.2843222475    0.5657159262    2.8754316274
 H    1.2590917116   -0.1358495750    3.3865888450
 H    0.6504768904   -2.1555864352    2.1445645194