15

 C    0.0128278735    1.5567324177   -0.0231141197
 C   -0.0066100160    0.0543495965    0.0254124159
 N    0.3672401125   -0.7481922809   -1.2100138157
 C   -0.2878301688   -1.9159753325   -0.5117485684
 C    0.5706539280   -2.0115738279    0.7270161141
 C    0.7554551424   -0.7279562549    1.0759083672
 C   -1.3342946187   -0.8314902355   -0.0079115821
 O   -2.5083664962   -0.6655800620    0.0327348006
 H    1.0129137024    1.9239987497   -0.2729188764
 H   -0.6929240463    1.9380627809   -0.7673550574
 H   -0.2722681285    1.9715399979    0.9482255693
 H   -0.2328816139   -0.4499772247   -1.9860164444
 H   -0.5427016448   -2.7990512733   -1.0920799083
 H    0.8633005487   -2.9198107235    1.2320335536
 H    1.2418405456   -0.3048461476    1.9428727817