13

 N   -0.1555999899    1.2505604138   -0.1003417765
 C   -0.0850063138   -0.1008525755   -0.0461133026
 N   -1.0494992673   -0.9611225344   -0.2393372703
 C   -0.4026076718   -2.1509084547    0.0018102865
 C   -1.1431580798   -3.4519509608   -0.0934714777
 O   -1.9554574228   -3.4948361985   -1.2481443436
 N    0.8596013742   -2.0594909336    0.3116940450
 O    1.0844103910   -0.6497053806    0.2899784573
 H    0.7109942320    1.7524211519   -0.2069912187
 H   -0.9540646285    1.6283567664   -0.5834488690
 H   -0.4310480963   -4.2784780062   -0.1500281991
 H   -1.7381201247   -3.5827252131    0.8253310331
 H   -2.4137375023   -2.6469002249   -1.2940755543