17

 C   -0.0824958885    1.5354946753    0.0374770717
 N    0.1114955289    0.0905630716    0.0916499684
 C    1.3781506195   -0.5504943181   -0.1590441454
 C    2.5865809132    0.2518879535    0.3712875401
 C    1.9214097014    0.1979039390    1.7603652042
 C    2.5564602860    0.0966017225    3.0725337227
 O    1.8336473442    1.2737957676    2.6838515515
 C    0.7334961787   -0.5759303639    1.2168687443
 H    0.7312840683    2.1349121633    0.4636588022
 H   -0.2229296387    1.8266980432   -1.0081873084
 H   -0.9985985262    1.7779897198    0.5837287059
 H    1.4266426606   -1.3426136766   -0.8975891600
 H    3.5215389899   -0.3126098031    0.3343644416
 H    2.7487353946    1.2424317151   -0.0613779622
 H    2.0905729605   -0.4971213771    3.8588006035
 H    3.6356449431    0.2173142671    3.1603936408
 H    0.1873754346   -1.3598572592    1.7312033590