15

 N   -0.0942472993    1.4801143684    0.0164071360
 C   -0.0421545404    0.0217135462    0.0080893747
 C    0.1920224945   -0.6536742233    1.3996659613
 N   -1.1155147687   -1.3900740421    1.3424143943
 C   -2.1551188837   -0.3504114552    1.2456896191
 C   -1.4048437461   -0.6933827547    0.0245253765
 C    0.8494981792   -0.5131155856   -1.0321418440
 N    1.5630344551   -0.8805129791   -1.8651743460
 H    0.8431694302    1.8565239316    0.1362584686
 H   -0.4275579386    1.8217896542   -0.8820256697
 H    1.0245754774   -1.3571271744    1.4106961513
 H    0.2771775935    0.0511400758    2.2317290928
 H   -3.1589768706   -0.7539263424    1.3313246786
 H   -1.9943409344    0.6140077871    1.7187274966
 H   -1.8290561580   -1.2183148166   -0.8240770701