18

 O   -0.0780098882    1.3295530187   -0.3203454511
 C    0.0126509328   -0.0320001851    0.0435671767
 C    0.3974343221   -0.9911638816   -1.1294716736
 C   -1.0685062665   -1.5086691572   -1.1931193882
 C   -1.3891414792   -0.7181253916    0.1131551840
 C   -1.3233435250   -1.5037978637    1.3914367144
 C   -0.1976491722   -1.2847837862    2.0740038289
 C    0.7126941570   -0.2848771283    1.3995099859
 H    0.8141629264    1.6522982303   -0.4885183211
 H    0.7508371704   -0.4726385510   -2.0242127458
 H    1.1284396833   -1.7546237441   -0.8505731945
 H   -1.6180382629   -1.1368336766   -2.0609689643
 H   -1.1976626295   -2.5920150598   -1.1356433347
 H   -2.2532637858   -0.0497357272    0.0548975781
 H   -2.1158887828   -2.1770051398    1.7024199402
 H    0.0517914470   -1.7461692143    3.0239315413
 H    1.7375760665   -0.6607673150    1.2790703534
 H    0.7796499967    0.6499600224    1.9729606005