12

 O    0.0392290927    1.3603702209    0.2457037680
 C    0.0594708898    0.0296323928    0.0398712644
 C    0.1159832735   -0.7639278215   -1.0903377439
 O    0.1681310986   -0.2932389128   -2.3593941982
 N    0.1121837738   -2.0713263280   -0.7614347071
 C    0.0543425076   -2.1108617378    0.5662765492
 N    0.0199953539   -0.8384506974    1.0900562921
 C    0.0280160452   -3.2605910924    1.3825851834
 N    0.0045497581   -4.1810660905    2.0876869742
 H    0.0752002444    1.7960800695   -0.6139045371
 H    0.2019071583   -1.0585485754   -2.9458593460
 H   -0.0253895158   -0.5837628174    2.0638889809