20

 C    0.2549520992    1.4934646001    0.1303981371
 C   -0.1237721333    0.0397051947   -0.1619941457
 N    0.6228131084   -0.5271063229   -1.2689235496
 C    1.7503207832   -1.2940889258   -1.2114668236
 C    2.1584782041   -1.4965109207   -2.5152827681
 N    3.3004337220   -2.1692722075   -2.9912654749
 C    1.2070856926   -0.7990297661   -3.3018665926
 C    1.1614184471   -0.6873916407   -4.7917210651
 N    0.2856561797   -0.2170322579   -2.5302160277
 H    1.3103780701    1.5753088719    0.4069779983
 H    0.0814380019    2.1109522773   -0.7542612635
 H   -0.3497607335    1.8850906396    0.9545108369
 H    0.0548756066   -0.5928735875    0.7130319805
 H   -1.1854340976   -0.0324973380   -0.4145962491
 H    2.1589984634   -1.6312361832   -0.2717308693
 H    3.6579644591   -2.8445121033   -2.3274857381
 H    3.1231437569   -2.6452154659   -3.8676848658
 H    1.0332182626   -1.6654448052   -5.2742961773
 H    0.3228818124   -0.0547060899   -5.0901748704
 H    2.0846001753   -0.2505756390   -5.1905736121