17

 O   -0.7742674171    1.3864677499   -0.3821511255
 C    0.3534903880    0.9709199534   -0.4364375384
 C    1.5922690892    1.8483123092   -0.1959732482
 O    2.6781578461    1.3336097596   -0.3350759842
 C    1.3382563058    3.2931785020    0.1612435784
 C    2.5975222742    4.0812881178    0.5879308420
 C    2.6767987158    5.2210639003   -0.4479577579
 O    1.3503957743    5.3928587726   -0.9291930088
 C    0.8134620262    4.0982551205   -1.0768213599
 H    0.6094688241   -0.0829486677   -0.6735086727
 H    0.5611380445    3.3135923251    0.9297883003
 H    2.4724476707    4.4775078805    1.5977666655
 H    3.4854635954    3.4465870413    0.5722544120
 H    3.0086291999    6.1752512644   -0.0330735134
 H    3.3512253171    4.9461647787   -1.2745036319
 H    1.1656331977    3.6335431404   -2.0134888806
 H   -0.2743696418    4.1666854822   -1.1084070968