16

 C   -0.0496136894    1.5869136295   -0.0257797750
 C    0.0625728327    0.0520241224    0.0269087943
 C    0.7060232559   -0.4586188340   -1.2033332190
 N    1.2222228778   -0.8442782548   -2.1622367489
 N    0.7469437594   -0.4405347112    1.2110002256
 C    2.1442628507   -0.0947559243    1.4356343218
 C    0.1022898353   -1.2784232337    2.0842202997
 O    0.5838332389   -1.7421863454    3.0915138606
 H    0.9346805609    2.0550812073   -0.0922479431
 H   -0.6294403853    1.8902075035   -0.9009450194
 H   -0.5526103622    1.9430220426    0.8766052102
 H   -0.9503331820   -0.3668956122    0.0524277661
 H    2.2630750960    0.9693795789    1.6646478083
 H    2.4878003904   -0.6812997743    2.2872724406
 H    2.7452065588   -0.3387667465    0.5534924438
 H   -0.9378526178   -1.4847151077    1.7628631744