16

 C   -0.1378161000    1.5299452736    0.0211011549
 C    1.3997009208    1.5249364647   -0.2037631802
 N    1.4246255636    0.1343269580    0.2809235280
 C   -0.0399478314   -0.0019143494    0.2598615265
 C    2.3047751845   -0.8146036875   -0.1332278238
 N    2.0583928556   -2.1265537706   -0.1188995453
 N    3.2260068779   -2.5895001053   -0.5778076892
 N    4.1224896208   -1.6685649240   -0.8616511342
 N    3.5583183287   -0.5182617931   -0.5873634920
 H   -0.4477173270    2.0897386564    0.9044368163
 H   -0.7419995999    1.8408232708   -0.8308524910
 H    1.7039382472    1.6198078553   -1.2529859036
 H    1.9936702384    2.2181883047    0.3980724213
 H   -0.4671161433   -0.3904198861    1.1889404848
 H   -0.4005454970   -0.6142077384   -0.5764178196
 H    3.4092104211   -3.5735073089   -0.6984089431