16

 C   -0.1026415572   -1.2201353608   -0.0595041628
 C   -0.1040563022   -0.0180716842   -0.0338356213
 C   -0.1367012748    1.4297082751   -0.0014674332
 C   -0.0980691092    2.0063808900    1.4604577389
 O    1.3320437312    2.3646654882    1.2962133411
 C    1.1898567393    2.1534292286   -0.0426557082
 N    1.6186467320    2.6926113554   -1.0942842160
 C    0.5704874837    2.3330909943   -2.0997355362
 C   -0.7426852443    2.0743388256   -1.2730143832
 H   -0.0885860599   -2.2818184255   -0.0840103824
 H   -0.6886733619    2.9119331496    1.6195159506
 H   -0.2284847976    1.2814416171    2.2626816743
 H    0.4558268951    3.1644739719   -2.7988934649
 H    0.8648539304    1.4480933856   -2.6768136406
 H   -1.4699132282    1.4415001047   -1.7839388762
 H   -1.2120585964    3.0329320745   -1.0300446301