22

 C    0.0138864730    1.5405973858    0.3508363415
 C    0.0405050178    0.0477535675   -0.0148625549
 C    0.8017886650   -0.7576294147    1.0479606481
 C   -1.3884740515   -0.4824086597   -0.1643950902
 O    0.6041814014   -0.1445966737   -1.3287499492
 C    1.9272872416    0.2345199138   -1.5402602228
 C    3.0381659156   -0.7809323491   -1.4147728132
 C    2.5638279266   -0.3166731244   -2.7767502651
 H    1.0179638328    1.9394155197    0.5226094002
 H   -0.4572596508    2.1187385112   -0.4495604206
 H   -0.5593377124    1.6944730323    1.2702138374
 H    0.3125551152   -0.6526868040    2.0216476659
 H    0.8190348270   -1.8198829918    0.7869046254
 H    1.8334046397   -0.4115293765    1.1504173727
 H   -1.9234797073    0.0816887200   -0.9335141571
 H   -1.3715886384   -1.5341181909   -0.4635527376
 H   -1.9366719313   -0.3954940142    0.7782598669
 H    2.1625361753    1.2650238160   -1.2801054914
 H    4.0083563900   -0.4535983024   -1.0556032888
 H    2.7554690747   -1.7827423055   -1.1136398038
 H    1.9641187038   -1.0125774097   -3.3523046299
 H    3.2024151823    0.3312985403   -3.3663844134