19

 O   -0.9041913031    1.3793732657   -0.2723882942
 C    0.2021993031    0.9112436772   -0.2198239825
 C    1.4644779659    1.7140803377    0.0893120984
 C    1.2134199268    2.7989491935    1.1366616195
 C    2.2937435287    3.8817685943    1.2016440734
 C    3.7198794143    3.4370542850    1.4086442041
 C    4.3270554043    2.3132370289    1.0248851640
 C    3.7816443466    1.1248029571    0.2724289167
 O    2.4322771540    0.7712321951    0.4985787925
 H    0.4068158285   -0.1650577260   -0.4097611257
 H    1.7660081564    2.1786348203   -0.8702971479
 H    0.2446476024    3.2593810815    0.9173455974
 H    1.1258736226    2.2973023858    2.1069176636
 H    2.2565145422    4.4787101035    0.2761316442
 H    2.0289041781    4.5845882873    2.0004106593
 H    4.3454265583    4.1775890027    1.9044517698
 H    5.3938792431    2.2294758444    1.2276292725
 H    3.9489373068    1.2805068519   -0.8104896448
 H    4.3554079209    0.2340896643    0.5489209697