17

 O    0.0063796410    1.3857763199   -0.2463453672
 C    0.0382773155   -0.0154728580   -0.1259030332
 C   -1.3697200659   -0.5523915555    0.2051531425
 N   -2.3272223741   -0.0700427433   -0.8048911393
 C   -2.5051568863   -1.1667607232   -1.7866495111
 C   -2.3371186834   -2.4796738258   -1.0045351194
 C   -1.4086588999   -2.0871127275    0.1493660907
 O   -0.7983800181   -2.8302750055    0.8727714869
 H   -0.7793569836    1.5668046889   -0.7832101440
 H    0.4092282810   -0.4926854643   -1.0494701518
 H    0.7290457618   -0.2790268177    0.6795691414
 H   -1.6431535514   -0.1941154518    1.2019182296
 H   -3.2172022357    0.1295446708   -0.3631419530
 H   -3.4727669151   -1.0700063237   -2.2825917514
 H   -1.7337325518   -1.0824941834   -2.5603650829
 H   -3.2904315083   -2.8060957104   -0.5690078009
 H   -1.9296229259   -3.3192266896   -1.5718777470