25

 C   -0.4438081696    0.9295856233   -2.1057252060
 C   -0.0964226021   -0.1901671410   -1.1135611020
 C    0.8237740652    0.3328711699    0.0000666991
 C   -1.3620457140   -0.7940999631   -0.5239431507
 C   -2.2010814577   -1.7855311552   -1.2946427107
 C   -1.4690680615   -2.2241151889   -0.0450239812
 C   -0.3329448101   -3.2461723072   -0.0884323131
 C   -0.8097818224   -4.6185747628    0.3960219626
 O    0.2866543935   -3.3550056686   -1.3685223978
 H    0.4609867394    1.3579902432   -2.5502172627
 H   -1.0769118184    0.5591253412   -2.9182314380
 H   -0.9850941561    1.7434419279   -1.6073865237
 H    0.4353570181   -0.9797724402   -1.6537902525
 H    0.3298463989    1.1233015893    0.5789757206
 H    1.1026595638   -0.4632893473    0.6974285404
 H    1.7455533818    0.7543388448   -0.4147348634
 H   -1.9297497463   -0.0822132702    0.0750251084
 H   -3.2826060324   -1.7071373394   -1.2719622756
 H   -1.8010798384   -2.1114206252   -2.2501156670
 H   -2.0970873910   -2.3580897045    0.8328393427
 H    0.4771277674   -2.9067930596    0.5689887460
 H   -1.6397408753   -4.9795280035   -0.2242468933
 H    0.0068965610   -5.3432937392    0.3390468103
 H   -1.1643947700   -4.5735978350    1.4307140847
 H   -0.3543304038   -3.7592966084   -1.9638279370