15

 N   -0.0269502934   -1.1569748117   -0.0253917732
 C   -0.0132366832    0.0020898022   -0.0167901893
 C    0.0015885912    1.4155228947   -0.0059746913
 C   -1.0720823497    2.2833327954    0.1212441304
 C   -2.5169846013    2.7139139577    0.2865644822
 C   -1.9346827286    4.1807668079    0.2348655981
 N   -0.6090191380    3.5506583035    0.0808601618
 C    0.7531934397    3.5911860585   -0.0703729360
 C    1.1560037610    2.2721461412   -0.1270640796
 H   -3.1893086990    2.4616788451   -0.5364847802
 H   -2.9916203431    2.4455903036    1.2330171261
 H   -2.2380505461    4.7800866225   -0.6268495507
 H   -2.0390188568    4.7636974872    1.1530573784
 H    1.3174300945    4.5069074248   -0.1251443137
 H    2.1712539728    1.9262601372   -0.2433814729