16

 O   -0.0213994438   -0.0857522869   -0.0618870951
 C   -0.0403985645    1.1263744580   -0.0160765718
 C    1.1755347138    1.9229880202    0.0113284814
 C    2.1579704286    2.6188283944    0.0353787192
 C   -1.3219867931    1.9111861992    0.0166225351
 C   -1.8534962486    2.9758869035   -0.9792494474
 N   -2.9882285968    2.9044718404    0.0587693860
 C   -2.7660492925    1.3772268582    0.0002624005
 C   -1.8479163432    2.8972519936    1.0931763444
 H    3.0395409879    3.2129892312    0.0557890948
 H   -1.3500758811    3.9445957322   -1.0142148575
 H   -2.1459105096    2.6331103520   -1.9747742500
 H   -3.1311237600    0.9173408554   -0.9203377935
 H   -3.1262607844    0.8488522455    0.8853315221
 H   -2.1350860648    2.4799761873    2.0614123956
 H   -1.3441189078    3.8606292360    1.1987195263