19

 C   -0.1825895452    1.5983740065   -0.0033929568
 C   -0.0454641603    0.0834865382    0.0030348864
 C    1.1957722987   -0.5815478296   -0.6501660418
 C    2.1394419982   -0.2749071372    0.5619620561
 C    2.5763696289   -1.7536084458    0.6737698499
 O    2.9766793214   -2.2564661311    1.9200530149
 C    1.0902404785   -1.8483252752    0.2672825167
 C    0.7125663796   -0.6201689659    1.1494780010
 O    0.3784998765   -0.7567037478    2.4936691937
 H    0.7587375539    2.0928265734    0.2593958851
 H   -0.4826297472    1.9622880005   -0.9918542484
 H   -0.9474919542    1.9286346789    0.7090232144
 H   -0.9946158274   -0.4009432774   -0.2591212657
 H    1.4921200349   -0.5831774437   -1.6966064855
 H    2.7206320430    0.6331867282    0.7267897059
 H    3.3090785277   -2.1028791792   -0.0599259917
 H    2.3068905363   -1.9914688729    2.5636040461
 H    0.4584780618   -2.7195611352    0.0881351838
 H    0.3765628347    0.1169556955    2.9010985058