13

 C   -0.0199999437    1.4863105945    0.0832120855
 C   -0.0063565462   -0.0021376083   -0.0543364557
 N   -0.1007754534   -0.6052993050   -1.1719611157
 C   -0.0802548508   -2.0255097320   -1.2231989599
 O   -0.1688891657   -2.6128498216   -2.2775734551
 C    0.0538687598   -2.6948197223    0.0764130891
 C    0.1456045526   -1.9617195252    1.1899429926
 O    0.1197170015   -0.6041178462    1.1711824182
 H    0.9041622551    1.8306647478    0.5581386572
 H   -0.1208143426    1.9377103918   -0.9021487164
 H   -0.8509483301    1.7993180267    0.7233401817
 H    0.0766655660   -3.7758548818    0.1145688241
 H    0.2473041574   -2.3418170184    2.1989937845