12

 N   -0.0075385187    1.3333471890    0.1284535383
 C   -0.0076164262   -0.0294905576    0.0425514568
 N   -1.1068815499   -0.7606986749    0.0291910448
 N   -0.5947661527   -2.0358431058    0.0037740092
 C   -1.3746888478   -3.1961575546   -0.0183512031
 O   -2.5710660442   -3.2225751005   -0.0151431546
 C    0.7706534083   -1.9747510677   -0.0060066250
 N    1.1823063175   -0.7379486018    0.0169815089
 H    0.8301775286    1.7803130233   -0.2085284424
 H   -0.8701926146    1.7864437422   -0.1295781350
 H   -0.7246350716   -4.0904788880   -0.0404541381
 H    1.3929565112   -2.8575484535   -0.0301107398