18

 C   -1.5456605175   -0.7143954507   -0.4284171201
 O   -0.2134652637   -0.3732701454   -0.0966319299
 C    0.7403400282   -0.7375534660   -1.0497628105
 C    0.6830278837    0.0329232282   -2.3680843334
 C    0.8195195796    1.4760297133   -2.2008888478
 C    0.9312459956    2.6641310986   -2.0612562274
 C    2.0684951259   -1.1037082687   -0.4703731983
 C    1.1823861602   -2.1817103232   -1.0689242366
 H   -1.9298026721   -0.1230603913   -1.2710952294
 H   -1.6428391478   -1.7816483616   -0.6739657912
 H   -2.1545224295   -0.4947186806    0.4515904946
 H    1.4786111672   -0.3412941620   -3.0231404819
 H   -0.2583310004   -0.1888021449   -2.8875103988
 H    1.0310210268    3.7133757053   -1.9340336166
 H    2.9643644527   -0.8075511302   -1.0047425964
 H    2.1467557468   -1.0686380968    0.6096510111
 H    0.6877565382   -2.8537774604   -0.3768920614
 H    1.4734195461   -2.6337330736   -2.0113221361