20

 C   -0.0113217147    1.4501344378    0.0246181518
 N   -0.0240921280   -0.0030497488    0.0072576208
 C   -1.3603503509   -0.5491365895   -0.2137590142
 C   -1.2985308036   -2.0624227189   -0.4253372015
 C   -0.6730561512   -2.7517836885    0.7968601312
 O   -0.4934125588   -4.1249303300    0.6019456317
 C    0.6444834515   -2.0713307636    1.1363994020
 O    1.6402744576   -2.7292668242    1.3438657848
 C    0.6112330833   -0.5542370926    1.2020360902
 H    1.0174116112    1.8108114584    0.1209759435
 H   -0.4198415311    1.8331638322   -0.9153232712
 H   -0.6024621751    1.8791387443    0.8564442748
 H   -2.0434174167   -0.3118589963    0.6286082609
 H   -1.7792886274   -0.0676861684   -1.1030746896
 H   -2.2994636411   -2.4693608764   -0.5969529100
 H   -0.6882822025   -2.2888537395   -1.3056763738
 H   -1.3369105656   -2.5672394697    1.6640347431
 H    0.4278889125   -4.3001366823    0.8527686343
 H    1.6385983914   -0.1897417620    1.2815522529
 H    0.0787532092   -0.2628714617    2.1343961583