17

 C    0.0356004389    1.4912103571    0.1182389390
 C   -0.0222761840   -0.0083391346   -0.0099488156
 C    0.2385622241   -0.7009552876   -1.3759443880
 N   -0.9168374913   -1.6423396942   -1.1700775978
 C   -0.8244336122   -2.1383886730    0.2365406724
 C    0.4949544772   -2.0090773911    0.9826364207
 O    0.7857726755   -0.6094547799    1.0013418511
 C   -1.3635751992   -0.7927345287   -0.0054430893
 H    1.0614075153    1.8457989053   -0.0206603361
 H   -0.6011727931    1.9680903298   -0.6318948792
 H   -0.2995697583    1.8009374296    1.1126565797
 H    0.0112797083   -0.0639649124   -2.2344534734
 H    1.2176244705   -1.1707765178   -1.5175471101
 H   -1.4720669330   -2.9857559984    0.4303713164
 H    0.4046983256   -2.3685653415    2.0142242829
 H    1.3067355722   -2.5692007634    0.4978228895
 H   -2.3792947464   -0.4433581892    0.1347521477