22

 C   -0.2057994890    1.5381598677   -0.1009042832
 C   -0.2543911174    0.0202375045   -0.2938080431
 C    1.0207591169   -0.5414007763   -0.9357109609
 C    0.9804888895   -2.0450312694   -1.1163303078
 C    0.2815862964   -2.6565518935   -2.3199894432
 C    1.7853173348   -2.7211461004   -2.1836793034
 O    2.5789371453   -1.9120247422   -2.9931006062
 C    2.7892414958   -2.4570279269   -4.2790016547
 H    0.6288622721    1.8288116491    0.5469956645
 H   -0.0725363750    2.0538833596   -1.0585465021
 H   -1.1271122460    1.9145237012    0.3548665101
 H   -0.4187087669   -0.4679967144    0.6761081007
 H   -1.1175982661   -0.2472224841   -0.9164577114
 H    1.1909365001   -0.0662750535   -1.9076780968
 H    1.8874223500   -0.2749223832   -0.3152333112
 H    0.8899990156   -2.6047356388   -0.1878588282
 H   -0.3031869172   -3.5620575616   -2.1991154263
 H   -0.1040886002   -1.9619817141   -3.0599804269
 H    2.2327087725   -3.6907453879   -1.9556961357
 H    3.3042591525   -3.4287009803   -4.2278461161
 H    1.8427838848   -2.5975301685   -4.8208123597
 H    3.4180131214   -1.7530769168   -4.8294569085