20

 C    0.0494329112    1.4610815077    0.3909466038
 N    0.1316533842   -0.0003749561    0.1425140428
 H   -0.8098557512   -0.3615750523   -0.0088579350
 C    0.8436196970   -0.9010112878    1.1340221911
 C    1.3339399312   -1.7881939762   -0.0226510511
 C    1.0435884856   -0.6103454416   -0.9951855462
 C    0.2651626722   -0.8759965506   -2.2589129420
 C    2.3582428272    0.2742994488   -1.2041193228
 O    2.7817045425    0.8072120705   -0.1532880241
 O    2.7807507562    0.2568927268   -2.3592354610
 H    1.0735666020    1.8239547525    0.4777216715
 H   -0.4543454700    1.9289019553   -0.4577194685
 H   -0.5308129238    1.6280077095    1.3021694432
 H    1.6579976755   -0.3184395727    1.5580216852
 H    0.1721760035   -1.3103240720    1.8906158510
 H    2.3756722487   -2.0991280112    0.0312063497
 H    0.6945282111   -2.6595393875   -0.1961794311
 H   -0.5903976419   -1.5464171185   -2.1005721021
 H   -0.0827970794    0.0591218964   -2.7091466421
 H    0.9510548883   -1.3264363311   -2.9778434224