21

 C   -0.3498798997    1.5092832351    0.0068306257
 C   -0.0094132500    0.0356334548    0.0044097508
 C    1.1711941609   -0.4361849411   -0.9018456113
 C    1.8587570657   -1.1048612476    0.3227795423
 C    0.6880314666   -0.6426604313    1.2466419816
 C    1.0389697708    0.1585510518    2.4805211617
 O   -0.2099386806   -1.6838853559    1.6199742482
 C   -1.0214105609   -1.9364836246    0.4978220749
 O   -1.2120182120   -0.7093017471   -0.1649029360
 H    0.5448393368    2.1171606712    0.1705284054
 H   -0.7822979346    1.7961364039   -0.9572029394
 H   -1.0792774329    1.7376115356    0.7890763582
 H    0.8583454825   -1.1169429762   -1.6967728350
 H    1.7362671747    0.3834602683   -1.3521687627
 H    1.9627680851   -2.1909696595    0.2702414049
 H    2.8279107119   -0.6781809765    0.5922327431
 H    1.7012364447    0.9925281230    2.2300680503
 H    0.1369432997    0.5548348993    2.9552484557
 H    1.5554251621   -0.4775388898    3.2066728881
 H   -0.5409122428   -2.6718005538   -0.1734388538
 H   -1.9897553778   -2.3195185994    0.8323324975