18

 C    0.0311747865    1.4426152418    0.0690071612
 C    1.3550981607    0.7259395293    0.0704964625
 C    0.0296144579   -0.0628061516    0.0786301282
 C    0.3646942836   -0.6080403096   -1.3004658106
 C   -0.2737817100   -0.3849754761   -2.6485516560
 O    0.7555818047    0.1890480581   -3.4686923284
 C    1.7587867602    0.8238108369   -2.6609979662
 C    1.6620404560    0.1636913214   -1.3083666809
 N    1.6531877344   -1.2983491424   -1.3627555650
 H   -0.2444559080    1.9153223771    1.0078593665
 H   -0.2996595747    1.9896970432   -0.8094494804
 H    2.0691668977    0.8433996840    0.8779199876
 H   -0.4068984778   -0.6300183118    0.8930996758
 H   -0.6050529140   -1.2972806683   -3.1531522203
 H   -1.1339816983    0.2943786651   -2.5472335216
 H    2.7139970124    0.6765723153   -3.1734126359
 H    1.5734606011    1.9045169181   -2.5638600514
 H    1.8969566977   -1.6986252103   -0.4604854150