18

 C    0.4573290348    1.9334302285    1.4737569421
 C    0.0361423198    0.4913510146    1.3646041202
 O    0.2025119259   -0.1663644481    0.0947144903
 C    0.9335647489   -0.6680899144    1.2237049598
 C    2.4395676483   -0.5653202138    1.0819736664
 O    2.8965948139   -1.4517710598    0.0727372071
 C    0.4446385104   -2.0421772318    1.6887334018
 C    0.7081331469   -2.2680651709    3.1078414731
 N    0.9263673319   -2.4189482994    4.2325901068
 H    1.4046411022    2.1274476492    0.9688217758
 H   -0.3045187270    2.5757652091    1.0207042807
 H    0.5533428553    2.2186512629    2.5264740058
 H   -0.9305757395    0.2789014225    1.8269576479
 H    2.7374122826    0.4681208672    0.8718295781
 H    2.9273300790   -0.8761709553    2.0114485725
 H    2.4787013540   -1.1736149962   -0.7508257285
 H   -0.6286361862   -2.1303096201    1.4975642236
 H    0.9557586190   -2.8117180744    1.1002477364