18

 C   -0.0753297816    1.4353105459    0.1044226393
 N   -0.0226301999   -0.0183415496    0.1308184384
 C   -1.0891823083   -0.6755430811    0.0435361257
 O   -2.3782912665   -0.1749691382   -0.0811835359
 C   -3.1578169199   -1.3735548635   -0.1343128916
 C   -2.6066076596   -2.4098308985    0.8835154566
 C   -3.0020116102   -3.5448735932   -0.0878983166
 C   -2.4347850085   -2.4378679138   -1.0050156258
 C   -1.2951533665   -2.1589309147    0.0468193034
 H    0.5377249137    1.7987266905   -0.7282146611
 H   -1.0849252772    1.8498897702    0.0064373389
 H    0.3784686670    1.8247730987    1.0228866006
 H   -4.2167093516   -1.1437730171   -0.2340657796
 H   -2.6953761884   -2.3775779567    1.9696105378
 H   -2.4155239157   -4.4634663376   -0.0209010792
 H   -4.0691413996   -3.7669554057   -0.1816910221
 H   -2.3260441283   -2.4378446357   -2.0897728572
 H   -0.4295653388   -2.8098534398    0.1352362285