22

 C   -0.1389961277    1.5245052517    0.0934246030
 C   -0.0103953742    0.0202361824    0.0476314978
 C    0.9094962897   -0.7385614845   -0.9338028970
 N    0.8968074886   -1.8833726223    0.0346698350
 C   -0.5931954608   -2.1419529858    0.3628125840
 C   -0.2790661259   -1.8053797168    1.8326793077
 C    0.7257409098   -0.8580294691    1.1708833954
 C    1.9355175410   -0.3127590498    1.8819329093
 C   -1.2809653387   -0.8437104083   -0.1135334129
 H    0.8343196916    2.0102204725    0.2228857044
 H   -0.5784100606    1.9092805421   -0.8344808656
 H   -0.7844219897    1.8454573186    0.9191763930
 H    0.5346649716   -0.9521234469   -1.9409883913
 H    1.9272636033   -0.3444735948   -1.0029304985
 H   -0.9994483366   -3.1036484683    0.0521273014
 H   -1.0826330876   -1.4069867355    2.4575276071
 H    0.2461648306   -2.6134499556    2.3477899374
 H    2.4885852917   -1.1205596337    2.3709800352
 H    2.6212280815    0.1996648424    1.1995021896
 H    1.6337650550    0.4081863160    2.6505417852
 H   -2.1114855605   -0.5511767643    0.5358949127
 H   -1.6411025122   -0.8651612800   -1.1464262728