17

 N    0.0868250187    1.3270514703    0.2575117776
 C   -0.0057533509   -0.0087296563    0.0072622393
 C   -1.1105883184   -0.8103646730   -0.0215806420
 C   -0.7293168591   -2.2454133764   -0.3214223080
 C    0.8012143169   -2.2640923995   -0.0930708663
 C    1.2526367662   -0.7976310334   -0.2746303313
 C   -2.4742766936   -0.3843171291    0.1559947046
 O   -3.4502166575   -1.1119473144    0.0930763960
 H    0.9373214715    1.8024138526    0.0073806409
 H   -0.7441433907    1.8951917581    0.2422453923
 H   -1.2601393922   -2.9564046279    0.3181734271
 H   -0.9876106929   -2.5130405777   -1.3549568823
 H    1.0151764931   -2.5796991441    0.9328074350
 H    1.3279791718   -2.9494607231   -0.7613276600
 H    1.5844050995   -0.5943959086   -1.3033356325
 H    2.0789364576   -0.5094055212    0.3852829627
 H   -2.6121207200    0.7051314738    0.3704747069