16

 C    0.2193299844   -1.2126466328   -0.0078435822
 C    0.1349642359   -0.0127963494    0.0017978729
 C    0.0291544210    1.4128834116    0.0255449036
 C    0.4258885349    2.2041883510    1.2819107113
 C    1.0217116286    1.4814870920    2.4785096264
 N    2.3944543155    1.0173102542    2.3242137802
 C    2.9836339021    1.1510162160    1.2197625716
 O    2.5408447517    1.7008407806    0.0520239625
 C    1.2735738561    2.2912082067    0.0558435792
 H    0.2987812389   -2.2713245959   -0.0225789053
 H   -0.7994818754    1.8258651765   -0.5429643297
 H   -0.2012009728    3.0597632687    1.5091971436
 H    1.0008381574    2.1562357855    3.3417375701
 H    0.4086556439    0.6138121896    2.7521005148
 H    4.0042292473    0.8027569728    1.0808945715
 H    1.2737425204    3.1854754231   -0.5566199904