16

 N   -0.4360569174    0.8373968985    0.9946849530
 C   -0.1857419181   -0.0643066004    0.1199124961
 N   -1.1220218635   -0.5166266851   -0.7621912620
 C   -2.4905312357   -0.0333785609   -0.7470325563
 C   -3.3454032624   -0.6632063738    0.3787490594
 C   -4.7231580170   -0.1954185276    0.3311257572
 C   -5.8516494971    0.2107514914    0.2537373212
 C    1.1214775021   -0.6870161848   -0.0383289549
 N    2.1711320229   -1.1635171099   -0.1285142524
 H    0.3939085737    1.0726325439    1.5316630682
 H   -0.8853577649   -1.3053163760   -1.3393473695
 H   -2.4700328427    1.0510283761   -0.6150863131
 H   -2.9364849552   -0.2509072915   -1.7204744552
 H   -3.3162796095   -1.7562487486    0.2880822927
 H   -2.8893876180   -0.4075428733    1.3410081416
 H   -6.8521367873    0.5630493619    0.2049418641