17

 C   -0.0233714415    1.6136802998    0.0425602362
 C    0.1131495312    0.0983307031   -0.0690099794
 C    0.4829163559   -0.7526999152   -1.2425254426
 C    1.7841071367   -0.3588951398   -1.9601877681
 C    2.5575567402    0.7642656506   -1.3792699456
 N    2.6161241470   -0.5526685184   -0.7205665172
 C    1.3284926973   -0.8292815853    0.0373285580
 C    1.3831804613   -1.8419074471    1.0401885320
 N    1.4068124010   -2.6592906317    1.8599490151
 H    0.1333205731    2.1199906504   -0.9117967262
 H   -1.0384512038    1.8533831515    0.3718444453
 H    0.6638602147    2.0377427891    0.7808008794
 H   -0.6801482565   -0.4078574541    0.4795067622
 H   -0.1663855306   -1.5230806445   -1.6373244208
 H    2.0789901954   -0.8382198693   -2.8871415181
 H    3.4969437326    0.9909999441   -1.8767838260
 H    2.1026115660    1.6091895869   -0.8881789543