17

 O    0.0545180089    1.3343395554   -0.4647284200
 C    0.0585410095    0.1170437973    0.2571067189
 C   -1.3208716406   -0.4966758344    0.3050411750
 N   -1.7588687250   -1.0996981026   -0.9719599173
 C   -1.5443385503   -1.9532234146    0.1856938459
 C   -0.6188924530   -3.1829741327    0.2791792966
 N   -1.7269364181   -3.8315615837    0.9993379012
 C   -2.6100417045   -2.7803362977    0.9011182729
 O   -3.7548506628   -2.6137992318    1.2287427145
 H   -0.2858355714    1.1262084941   -1.3427973727
 H    0.7650268668   -0.6069062663   -0.1773046418
 H    0.4024638158    0.3571801753    1.2685756191
 H   -2.0653315701    0.0587018040    0.8725324741
 H   -2.7599649140   -0.9680011702   -1.1079260005
 H   -0.3801209853   -3.6382862740   -0.6862741482
 H    0.2905329389   -3.0578450944    0.8746325913
 H   -1.8290089246   -4.7590904038    1.3804259610