15

 O    0.1433226776    1.3357534782    0.0881017931
 C    0.1024124580   -0.0237696762   -0.0443962191
 C    0.6611520103   -0.9356956184   -1.1604402118
 C    0.0971201820   -1.9316711778   -0.1270556945
 C    0.4712080276   -1.0253989086    1.0859547097
 O   -0.8556507570   -1.0660431516    1.6818391428
 C   -1.1207610050   -1.0162633993    0.2449214873
 C   -2.4495028900   -0.9982386859   -0.2673162480
 C   -3.5581456184   -0.9553431634   -0.7329384827
 H   -0.2996703356    1.7385123111   -0.6675179636
 H    0.1509296875   -0.8996913733   -2.1268308780
 H    1.7463460993   -0.9313917829   -1.2902817471
 H    0.0815752631   -3.0178302606   -0.1421770427
 H    1.3416202010   -1.0535764818    1.7382310800
 H   -4.5418061904   -0.9284206595   -1.1330412654