14

 N    0.0214488814   -1.1450618056   -0.0550526683
 C    0.0013750404    0.0080560942    0.0128900196
 C    0.0264075723    1.4540596754    0.0566250934
 C   -0.3988771492    2.2615523447   -1.2318558104
 C    0.7771318415    3.1956558245   -0.9529815509
 C    1.3919659187    2.2359391360   -0.0071893651
 N    0.9422642410    3.5248812307    0.5205428091
 C   -0.2152957081    3.2135254939    1.3052006836
 N   -0.7322893125    2.0588625182    1.1700886595
 H   -0.2026878328    1.6830871153   -2.1363699251
 H   -1.4209550022    2.6460399247   -1.2294861502
 H    1.2285314413    3.9018730795   -1.6367084967
 H    2.4025022932    1.8795401507    0.1507772356
 H   -0.6024982650    3.9705147378    1.9783119559