17

 C   -0.1316524953    1.4672777037    0.1364666030
 O    1.1436749659    0.8599786661   -0.0765223482
 C   -0.0081164421    0.0071962503    0.0269743582
 C   -0.3150583751   -0.9424806826    1.1477940353
 C   -0.5165786577   -2.1610181709    0.5995036164
 C   -1.9446715328   -2.5449211723    0.2067454690
 C   -1.4745890045   -1.9617300204   -1.1833975198
 C   -0.0368481602   -2.2269461111   -0.8622553550
 C   -0.3741727824   -0.8176114713   -1.1988844393
 H   -0.2749642693    1.9309137040    1.1124710549
 H   -0.5325792142    2.0319190047   -0.7059353084
 H   -0.8536719848   -0.5941989836    2.0242202705
 H   -2.1495537197   -3.6123444516    0.0705219490
 H   -2.7570564424   -2.0667287494    0.7608403914
 H   -1.9798947211   -2.1859434773   -2.1198554847
 H    0.6860059249   -2.8954763930   -1.3091301514
 H   -0.1832589792   -0.4111112354   -2.1891637708