17

 O   -0.6167961316    0.6043440126    0.5813705474
 C    0.1594992104    0.9202473728   -0.2796815207
 C    1.2756248431    1.9423003725   -0.1003206199
 C    1.2827013035    2.9634588214   -1.1891067698
 C    1.0237248723    4.2748647863   -1.1900454531
 C    1.2447056754    4.6343468258   -2.6696946891
 C    0.4587935592    3.4981386521   -3.3930137625
 C    1.6182818476    2.7353617717   -2.6861167034
 O    2.4736145483    3.8872853789   -2.9748533095
 H    0.1091104657    0.4643740599   -1.2956241717
 H    1.1656231753    2.3996024881    0.8860839812
 H    2.2221568086    1.3783673423   -0.1120095652
 H    0.7433256124    4.9383565339   -0.3852407405
 H    1.2520046546    5.6750499862   -2.9890140968
 H   -0.5712075796    3.2966773389   -3.0919191848
 H    0.5769418276    3.5272904185   -4.4784993270
 H    2.0172261772    1.7766735482   -3.0180869047