19

 C   -0.0525904427    1.5289333954    0.1277801874
 C   -0.0562847869    0.0113698912   -0.0579357974
 C    0.7321420745   -0.4922925217   -1.3133149492
 N    0.2574435001    0.0433050889   -2.6030903769
 C    2.1519538273   -0.0810286124   -1.1663595100
 N    3.2413495556    0.2720640571   -1.0155853113
 C    0.6644343463   -1.9588281944   -1.3576007857
 C    0.5662339650   -3.1575494596   -1.3681582408
 C    0.4714590496   -4.6093239601   -1.3937396692
 H    0.9658583324    1.9166934402    0.2261205871
 H   -0.5362027508    2.0447843097   -0.7082890355
 H   -0.6026485099    1.7969124491    1.0340902130
 H    0.3669778870   -0.4781185032    0.8252019191
 H   -1.0801002026   -0.3629357873   -0.1682938816
 H   -0.6911622258   -0.2857300080   -2.7581554642
 H    0.2307952702    1.0581675212   -2.5644105486
 H    0.3011426126   -4.9749420266   -2.4118452140
 H    1.3962108904   -5.0663642797   -1.0258530469
 H   -0.3514746422   -4.9667689298   -0.7657150953