16

 C    0.0286458177    1.5374632592   -0.0451832227
 C    0.1163205135    0.0299873831   -0.0466845355
 O    0.9104358636   -0.4247818800   -1.1198499651
 C    1.3007855919   -1.7312374203   -0.7504864154
 C    1.4547516873   -1.6384216269    0.7998883978
 O    0.7665632604   -0.4289569330    1.1314328013
 C    0.9151291522   -2.8002736194    1.4994786082
 C    0.4814804960   -3.7694668046    2.0622188493
 H    1.0331693186    1.9641110963    0.0032238909
 H   -0.4677472552    1.8827271982   -0.9555842918
 H   -0.5472440514    1.8742335501    0.8200368384
 H   -0.8863283740   -0.4328861908   -0.1089919768
 H    0.5321185679   -2.4711379051   -1.0123076931
 H    2.2337985813   -1.9805756048   -1.2586195045
 H    2.5066182200   -1.5030845493    1.0785869131
 H    0.0990591503   -4.6216713927    2.5678659061