16

 O   -0.0200978909    1.4540663078   -0.2230170861
 C    0.1134277008    0.0882744292   -0.1003261036
 C   -0.2368796878   -0.9037028735   -1.1686688069
 C    0.6759103741   -1.8263709747   -1.9105521327
 O    0.3199556137   -2.4809713975   -2.8600049673
 C   -0.9329214642   -0.9189496984    0.2364803808
 N   -0.2170187009   -1.4239529748    1.4536780435
 C    1.0809472331   -2.0046974841    1.0886888918
 C    0.9333879851   -0.5276928689    1.0706658144
 H    0.6485545881    1.7750168774   -0.8390166115
 H   -0.9986647041   -0.5139319723   -1.8432751769
 H    1.7389051663   -1.8241968747   -1.5871003497
 H   -2.0130033928   -0.8665092734    0.2649459076
 H    1.6013869761   -2.4185780711    1.9493572652
 H    1.1673009084   -2.6093131945    0.1955333862
 H    1.3883509950    0.1168079436    1.8156514152