21

 C    0.0222273579    1.4639858109    0.1735489707
 C    0.0687349002   -0.0594888348    0.0417737714
 C    0.7199400370   -0.5187510461   -1.2505316960
 O    2.0657434328   -0.0663138609   -1.2785457492
 C    2.8953102253   -0.8546561273   -2.1312730725
 C    2.0637967801   -1.4997700249   -3.2761713859
 C    1.6240725454   -2.5049506123   -2.1736293037
 C    3.0139579728   -2.2770372933   -1.5173708086
 O    0.6266116807   -1.9329257200   -1.3282193813
 H    1.0302982169    1.8858680353    0.1537664385
 H   -0.5478352578    1.9175316503   -0.6450236387
 H   -0.4549387297    1.7579774250    1.1127588295
 H    0.6282780100   -0.5053132145    0.8708839607
 H   -0.9410374563   -0.4834441423    0.0666505216
 H    0.1899053538   -0.0846672993   -2.1154864352
 H    3.7845979314   -0.2625570837   -2.3522768000
 H    1.3125983977   -0.9074008713   -3.8008554527
 H    2.7182445704   -1.9848641893   -4.0030211164
 H    1.2856671540   -3.5082746633   -2.4363187001
 H    3.8026155585   -2.8731341590   -1.9841893571
 H    3.0630320290   -2.3422749794   -0.4293851450