16

 N    0.0997015515    1.1783664678    0.4204862295
 C    0.0618929867    0.0027138284   -0.2650574521
 O    0.9237376060   -0.3600128902   -1.0417729554
 C   -1.1987151393   -0.8314513427   -0.0537757193
 C   -0.9757082640   -2.3224165261    0.1926887783
 O   -0.4067292396   -2.4534008615    1.5076793510
 C   -1.8323828642   -2.3187604442    1.3890876725
 C   -2.0638302461   -0.8042586334    1.2836443464
 O   -1.5984799390   -0.0478701645    2.3769796139
 H    0.9467204075    1.7212935585    0.3560200926
 H   -0.5124040668    1.3093557226    1.2136576153
 H   -1.8545064955   -0.6672772630   -0.9151733696
 H   -0.7638916977   -3.1107054557   -0.5171021868
 H   -2.4468308401   -3.0888424273    1.8396631991
 H   -3.0990757532   -0.5098272274    1.1032133732
 H   -0.7825777662   -0.4826863412    2.6643375414