20

 C    0.0838517590    1.6002877126    0.0064908959
 C    0.2502005622    0.0806723689   -0.0725532719
 C    0.5193363927   -0.5601626661    1.2941557485
 C    0.6802166806   -2.0775678935    1.2403983219
 C    2.0461088432   -2.6412244768    0.8699467679
 C    1.5599567095   -2.7474773678    2.2864133406
 C   -0.4790610428   -2.8076320952    0.7966783023
 C   -1.4594789950   -3.4019830247    0.4303514596
 H    0.9831356193    2.0798514458    0.4097760891
 H   -0.1072857339    2.0312649924   -0.9811770168
 H   -0.7545919075    1.8744694590    0.6565715168
 H   -0.6501453627   -0.3705142153   -0.5053662230
 H    1.0739039081   -0.1671776893   -0.7541997641
 H    1.4323763150   -0.1319077777    1.7276401112
 H   -0.2978977527   -0.3119955228    1.9836224118
 H    2.0735516057   -3.5409819782    0.2673541962
 H    2.8256121414   -1.9209402944    0.6450361129
 H    2.0064985248   -2.1033172351    3.0363855874
 H    1.2509644841   -3.7202048475    2.6497668224
 H   -2.3205429610   -3.9309125643    0.1054057915