16

 O    0.1322160969    1.1777060293   -0.5175108790
 C    0.0648334656   -0.1103573546    0.0523267885
 C    0.0661059540   -0.1973443883    1.6188646113
 C   -1.3155047723   -0.8804537293    1.5288340829
 O   -2.0504473204   -1.3982400064    2.3234173962
 C   -1.3601178705   -0.6764402315    0.0458404166
 C   -2.5440564581   -0.1238167417   -0.7236632671
 C   -2.0785015791   -1.5173963000   -0.9830736544
 H    1.0485059565    1.4710416545   -0.4951105945
 H    0.7979512738   -0.7865971426   -0.4074421248
 H    0.8570573853   -0.7826745259    2.0947473135
 H    0.0108527947    0.7911661604    2.0852314164
 H   -3.4607094413    0.0228347623   -0.1629824704
 H   -2.3077308768    0.6483147831   -1.4466291365
 H   -1.5451415171   -1.7218170225   -1.9056688628
 H   -2.6697870211   -2.3414342568   -0.5974970359