19

 C   -0.2035638507    1.5321735133   -0.0006241393
 C    0.0211701254    0.0262026427    0.0163536616
 C    1.1556496015   -0.5883379526   -0.8525040781
 C    2.1583608410   -0.1900329546    0.2536732934
 C    0.9355575627   -0.5677293226    1.1465917078
 C    0.8093695721   -2.0693015924    0.8023363944
 O    0.9786545286   -2.0033102065   -0.6431575207
 C    1.8000710164   -2.9400274803    1.4229227941
 C    2.6016628066   -3.6565988917    1.9602159308
 H    0.7150170266    2.1094166122    0.1326917926
 H   -0.6534308286    1.8410668767   -0.9504861829
 H   -0.8938238636    1.8238158650    0.7983182797
 H   -0.9366550597   -0.4899747298   -0.1128332607
 H    1.2934755812   -0.3954797614   -1.9157183467
 H    3.0627026862   -0.7937207376    0.3441988965
 H    2.3980766971    0.8714858476    0.2803922380
 H    0.8489355444   -0.2923481143    2.1968417398
 H   -0.1960568251   -2.4497214161    1.0234672571
 H    3.3116884979   -4.2940678675    2.4265112828