16

 C   -0.2252497192    1.5925780697    0.0183546772
 C    0.0032325915    0.0768902346   -0.0308006626
 C    0.8218540233   -0.4039360170   -1.2724839866
 C    2.0412761302   -0.4702271206   -0.3079660533
 N    1.1030389390   -0.4264758003    0.8333359606
 C    2.8939717386   -1.6572871857   -0.3673743813
 N    3.5792869845   -2.5850212040   -0.4339151181
 C   -1.2666512378   -0.6278109587    0.1962599029
 N   -2.2773058207   -1.1639926336    0.3573363780
 H    0.7084273971    2.1233237808   -0.1914798131
 H   -0.9716054040    1.8975037887   -0.7207895857
 H   -0.5855932931    1.8935039099    1.0065995620
 H    0.5160580047   -1.3850156872   -1.6315988915
 H    0.8933855981    0.2982552126   -2.1019064104
 H    2.6846913723    0.4138882076   -0.4050824745
 H    1.3653400756    0.1699885132    1.6111001764