23

 C    0.0295360103    1.6426546540    0.0521521120
 C    0.0783624324    0.1172454096    0.2135219722
 C   -1.2898968224   -0.5323189051    0.0514929566
 C   -1.9600647603   -0.8369738166   -1.3275906739
 C   -2.5760083861    0.0894805661   -2.3300105144
 C   -0.9867003333   -2.0232774436   -1.5479840089
 C   -1.5023924383   -2.0704471947   -0.0863082290
 C   -1.3630496725   -3.1492439626    0.9422149270
 O   -2.8636738282   -1.7789585830   -0.6127321983
 H    1.0149200689    2.0900799044    0.2146090568
 H   -0.3040027027    1.9272471508   -0.9512923047
 H   -0.6645067993    2.0933303871    0.7698404131
 H    0.8038155608   -0.3001394232   -0.4930294696
 H    0.4589147750   -0.1251068433    1.2148872907
 H   -2.0182178727   -0.1009480175    0.7474750478
 H   -1.8071045367    0.7097030634   -2.8016134139
 H   -3.0868652012   -0.4796472065   -3.1130110176
 H   -3.3052849429    0.7482744268   -1.8486620909
 H   -1.3776575457   -2.8142560529   -2.1908610892
 H    0.0699060175   -1.8190818514   -1.7344308186
 H   -0.3161677765   -3.2536663858    1.2452472748
 H   -1.9581624670   -2.9127510310    1.8297473831
 H   -1.7033803390   -4.1093582248    0.5422416049