20

 C   -0.0645127209    1.5200865121   -0.0292438291
 C    0.0412261086    0.0216667813    0.0023738785
 C   -0.8237936111   -0.8641492354    0.8645880516
 O   -1.5161488254   -1.9810152616    0.3830331712
 C    0.6539966983   -0.9425179065    1.0567953625
 C    1.2940454342   -1.7860178744   -0.0585762730
 C    0.6691462225   -0.8341008211   -1.0901950869
 C    0.1746346538   -1.0697591091   -2.4624918665
 N    1.4322073540   -0.3214406173   -2.2235618521
 H    0.8988737371    1.9884121653   -0.2628736562
 H   -0.7913901471    1.8607310249   -0.7782812091
 H   -0.3915167975    1.9102622154    0.9396431606
 H   -1.3474025028   -0.3217437502    1.6546501445
 H   -2.1946230872   -1.6739182869   -0.2268322553
 H    1.1199226376   -0.7070267921    2.0065408142
 H    2.3835493923   -1.7151054208   -0.0734568006
 H    0.9861426456   -2.8332097312   -0.0988028802
 H    0.3065682672   -2.0403053332   -2.9331374167
 H   -0.7010116663   -0.5190811913   -2.8007675552
 H    1.2675012172    0.6765103923   -2.3396980222