12

 O   -0.0001230174    1.3760007148    0.0385244348
 C   -0.0533508399   -0.0134056473    0.0226616912
 C   -1.3544574934   -0.8002854621    0.0703969808
 C   -2.3846334023   -0.0611431155   -0.7709456294
 O   -1.4543289978    0.0483540324   -1.8921854349
 C   -0.4947058620   -0.7575547872   -1.1901745918
 H   -0.3389205953    1.6637470332   -0.8205877022
 H    0.7566239222   -0.4652968304    0.5886054565
 H   -1.5523398777   -1.5983103399    0.7732490438
 H   -3.2472098456   -0.6693608874   -1.0598722136
 H   -2.7157118787    0.9189729202   -0.4104441595
 H    0.0521556779   -1.4993437108   -1.7616035757