18

 O   -0.1334190220   -0.0702209127   -0.0731475395
 C   -0.0641479177    1.1314952062   -0.0678302129
 C    1.2182641733    1.9274252405    0.0251727275
 C    1.3772910330    2.8821979049   -1.1634348884
 C    2.6151919075    3.7456457304   -1.3279917702
 C    3.6375900426    2.9935946715   -2.1205011691
 C    3.0835751075    1.6281233875   -2.4806959535
 C    1.7421091115    2.3781006768   -2.5822295185
 N    2.5214817706    3.7142009741   -2.8290239427
 H   -0.9849001926    1.7576988297   -0.1461536366
 H    1.1684711804    2.5293911440    0.9443416086
 H    2.0584782448    1.2359912967    0.1196764554
 H    0.4946846057    3.5275273706   -1.2455582617
 H    2.8583774654    4.6621459582   -0.8012632716
 H    4.6615806331    3.3416861587   -2.1968962596
 H    3.4286436815    1.3257334175   -3.4724868440
 H    3.1815976754    0.7881135107   -1.7867470200
 H    0.9706323600    2.0691177548   -3.2845819933