21

 C    0.0580179952    1.4990224980   -0.0622799370
 C    0.0365136120    0.0437972117   -0.0080541637
 C    0.0241373786   -1.1606822932    0.0314399842
 C   -0.0017923017   -2.6149003490    0.0833066891
 C    0.4520089370   -3.2350465085    1.4640073839
 C   -0.8145627058   -4.0433460331    1.7988777738
 C   -1.1482797319   -4.7070084117    0.4310288835
 C   -1.4265191886   -3.2355632564    0.0140044922
 C   -1.9477008973   -3.0298031805    1.4635724193
 H    0.7656404915    1.8599075642   -0.8172552608
 H   -0.9282647001    1.9040508408   -0.3156299669
 H    0.3541416446    1.9316126793    0.9001060980
 H    0.6144845035   -3.0114225423   -0.7318862541
 H    1.3400318734   -3.8641565515    1.3562855461
 H    0.6668924092   -2.4601574833    2.2031900056
 H   -0.8066216190   -4.6126257825    2.7289866069
 H   -0.3538189096   -5.2525623155   -0.0888356277
 H   -2.0587216431   -5.3097092127    0.4647574013
 H   -2.0211422570   -2.9771539835   -0.8619283881
 H   -2.9447282832   -3.4511671806    1.6107869168
 H   -1.8908813776   -2.0249230896    1.8902544774