19

 C    0.0908057558    1.4260223794   -0.1626482513
 C    0.0269491691   -0.0588256259   -0.0371487405
 O    0.5916731174   -0.9091602379   -1.0834548271
 C    0.0850113098   -1.8931242183   -0.1285451992
 C    0.2419802867   -3.3511662134   -0.4007185881
 C    0.4301500503   -1.0241047423    1.1208458859
 O   -0.9081857633   -1.0946845882    1.6870669143
 C   -1.1751219468   -1.0314917090    0.2492507388
 C   -2.5784771537   -1.0507482683   -0.2564675606
 H    1.1287256719    1.7667549421   -0.2268102706
 H   -0.4384813551    1.7631147880   -1.0593472205
 H   -0.3752602058    1.8868352409    0.7137501213
 H    1.2990550893   -3.6173082845   -0.4969170028
 H   -0.1897107960   -3.9252150776    0.4249621577
 H   -0.2693070586   -3.6306243370   -1.3271822396
 H    1.2904067405   -1.0302303933    1.7906026545
 H   -3.1449695203   -0.1991146697    0.1330358600
 H   -2.5727255355   -0.9963469998   -1.3496418157
 H   -3.0889668757   -1.9707035151    0.0451760734