21

 C   -0.0114975976    1.3841884331   -0.0647149242
 O    0.0016005494   -0.0176752670    0.0856692523
 C   -1.2721024906   -0.6240957782    0.0332213178
 C   -1.7817467879   -0.8151036551   -1.4063539961
 O   -3.0635453251   -1.4257982373   -1.4040872894
 C   -3.0405331051   -2.7173464507   -0.8166309946
 C   -2.5797298998   -2.6587285325    0.6427599012
 C   -1.2007206854   -1.9828578500    0.7367309282
 O   -0.2006545598   -2.7516175602    0.0777401431
 H    1.0168062905    1.7292951208    0.0683653022
 H   -0.3580790070    1.7037617902   -1.0581282861
 H   -0.6482860700    1.8681396056    0.6927455491
 H   -2.0093055876   -0.0118328564    0.5788502990
 H   -1.9027902888    0.1461104922   -1.9124161589
 H   -1.0520049340   -1.4174310817   -1.9654844189
 H   -4.0602262722   -3.1052377570   -0.8922381371
 H   -2.3741827697   -3.3822808864   -1.3868906821
 H   -3.3083547094   -2.0947472793    1.2370598391
 H   -2.5300733758   -3.6706442291    1.0655274022
 H   -0.9211644156   -1.8163170466    1.7875021623
 H   -0.1225040187   -3.5922294645    0.5389683209