13

 N    0.0172023272    1.4074566961    0.1861519895
 C    0.0076046038    0.0156449251    0.0481096357
 C   -1.1754066270   -0.7327766928    0.0534069287
 N   -1.2030668934   -2.0602077526   -0.0111013404
 C   -0.0203865959   -2.6620265364   -0.0818656578
 O   -0.0465975416   -4.0068937723   -0.1439693193
 N    1.1747076388   -2.0719657440   -0.1011440584
 C    1.1782438699   -0.7419078013   -0.0359923873
 H    0.8333795004    1.8561900816   -0.2065689865
 H   -0.8250759279    1.8598793512   -0.1419665893
 H   -2.1404637817   -0.2302398511    0.1123761016
 H    0.8761275124   -4.2892234989   -0.1904126528
 H    2.1525854652   -0.2553171546   -0.0509073237