17

 C   -0.0044453949    1.5370202555   -0.1275470493
 C   -0.0014620016    0.0298331411    0.0584534054
 O   -0.0005338604   -0.4803128857    1.1659624530
 C   -0.0002289572   -0.7898289413   -1.1552346015
 C    0.0019680508   -2.1499532748   -1.3685140434
 C    0.0029271625   -3.2376002132   -0.3408537531
 C    0.0025749095   -2.3171996440   -2.7882072748
 C    0.0007169146   -1.0668384331   -3.3270250579
 O   -0.0009923142   -0.1278663444   -2.3617211332
 H    0.8692769270    1.8576240363   -0.7038741104
 H   -0.8876298577    1.8544129468   -0.6913283804
 H    0.0011150191    2.0105875628    0.8543668217
 H   -0.8840197118   -3.8725212249   -0.4485667948
 H    0.8769826271   -3.8869801700   -0.4652883970
 H    0.0148338801   -2.8154083934    0.6630149966
 H    0.0043545190   -3.2500962328   -3.3308528830
 H    0.0005540381   -0.7001554747   -4.3411687779