17

 O    0.2584659784    1.2256232780    0.1425714712
 C    0.1890555135   -0.1488407292    0.0731126226
 C    0.5102060967   -1.1307551160   -1.0877465744
 N   -0.0527135889   -2.0549243259    0.0041062927
 C    0.8267929612   -1.2435709714    0.9701493949
 C   -1.1188517368   -0.9545633001    0.1875639446
 C   -1.9737422452   -1.0207619281    1.4561427426
 C   -3.0046421639    0.0153950721    1.4610647679
 N   -3.8233154983    0.8304405232    1.4546349036
 H    1.1755329003    1.5036301157    0.0400134226
 H   -0.1066180578   -1.0886679381   -1.9884060939
 H    1.5585810201   -1.3332582080   -1.3184448676
 H    1.8933089476   -1.4469971994    0.8459552771
 H    0.5419739385   -1.3193179841    2.0196828510
 H   -1.7784402471   -0.8969678834   -0.6830440892
 H   -2.4630491560   -2.0015666496    1.4938073173
 H   -1.3848916724   -0.9238318657    2.3715746970