19

 C   -0.0273896564    1.5550369737   -0.0176668166
 C    0.0436404769    0.0323554728    0.0024757494
 O   -1.2728063512   -0.5465266469    0.0159643493
 C    0.7265379862   -0.5306075656   -1.2560106308
 C    1.1071543725   -1.9817833995   -1.1396619174
 C    1.1721852551   -2.6422790811    0.0132554040
 C    0.8680403120   -2.0101876909    1.3466134723
 C    0.7614424223   -0.4946933350    1.2621491476
 O    1.1740973051    0.2378861896    2.1305877882
 H    0.9724925639    1.9958868574   -0.0185538984
 H   -0.5671396750    1.8883994829   -0.9085338164
 H   -0.5421596120    1.9303986151    0.8720799876
 H   -1.7727254581   -0.1127072505    0.7166593208
 H    0.0330233692   -0.3843034455   -2.0936102163
 H    1.6158268346    0.0723991716   -1.4850744172
 H    1.3473170784   -2.4942859065   -2.0676580852
 H    1.4529378744   -3.6920558632    0.0267084665
 H   -0.0894620369   -2.3941636133    1.7282115025
 H    1.6240255890   -2.2543075050    2.0998509101