21

 C    0.0725494846    1.4450260937   -0.0003467348
 O   -0.0140633332    0.0398165333    0.0294650544
 C    0.7493908368   -0.5343445840    1.0670261514
 C    0.6507398533   -2.0633594634    0.9695518748
 O    1.3396783837   -2.5614348600   -0.1697242775
 C    0.5479686492   -2.6739315981   -1.3382019371
 C    1.2194224155   -2.6767250932    2.1708336165
 C    1.6886456993   -3.1544039167    3.1708160530
 C    2.2571513464   -3.7497031351    4.3711621088
 H    1.1059115697    1.7867428576   -0.1673433620
 H   -0.5538798647    1.7946064233   -0.8244600208
 H   -0.2898185840    1.8943939579    0.9377474218
 H    1.8089925165   -0.2458667586    0.9863934483
 H    0.3795551421   -0.2052162535    2.0518530180
 H   -0.4183002341   -2.3225052731    0.8988800160
 H    1.1843810021   -3.1302487811   -2.1009091311
 H   -0.3225830380   -3.3273531906   -1.1718927487
 H    0.1937071703   -1.6997285652   -1.6910788702
 H    3.0857185612   -4.4212308175    4.1209487874
 H    2.6451316036   -2.9838699933    5.0516923933
 H    1.5100409198   -4.3345310324    4.9189213587