16

 O   -0.5238416991    0.4952628992   -0.6143985099
 C    0.0054957413    1.2426036539    0.1721064403
 C    1.2686779972    2.0138383991   -0.0351408987
 N    2.3681054297    1.7249224735   -0.9635337404
 C    1.8108752133    1.1181095779   -2.2403556461
 C    0.9143047754    2.3480873882   -2.5193838540
 C    1.4675914888    2.9259192396   -1.2228618352
 C    1.9619034030    4.3064769224   -1.0201039499
 O    1.7063150273    5.2209949095   -1.7628435362
 H   -0.4454488404    1.4304059569    1.1717099499
 H    1.6596950200    2.4172264092    0.8976207424
 H    2.6397756136    1.0086972115   -2.9407254409
 H    1.3109429925    0.1639283615   -2.0891028944
 H    1.2207915042    2.9382690324   -3.3833154262
 H   -0.1617482726    2.1760059048   -2.5562586997
 H    2.6096950058    4.4325439305   -0.1241190409