16

 O    0.1230451623    1.4207420391   -0.0774460386
 C    0.0557698356    0.0072024044   -0.0236173294
 C    0.7833875941   -0.5474817303    1.1789269754
 C    0.1275479008   -1.0141495355    2.2394743577
 C   -1.3729299855   -1.0120955670    2.3089567143
 O   -1.9662330506   -0.2145296911    1.2934331787
 C   -1.4041525108   -0.4976051937    0.0193123808
 C   -2.2422619218    0.1454486487   -0.9992772759
 N   -2.8932483404    0.6170817760   -1.8274805818
 H   -0.2911614151    1.7519529722    0.7290338720
 H    0.5226467359   -0.3421292936   -0.9508297860
 H    1.8680051407   -0.5161664621    1.1529161415
 H    0.6548570280   -1.4173057894    3.0999613591
 H   -1.7615295376   -2.0452332385    2.2565065388
 H   -1.7184292072   -0.5890966259    3.2581210677
 H   -1.4142702883   -1.5837568732   -0.1714269744