16

 O   -0.6649694272    0.1174735541    0.3598842474
 C   -0.2324687611    1.2074157585    0.1883404036
 C   -0.4792763332    2.6968511720    0.5463052364
 C    1.0430641966    2.7215917806    0.9040846042
 C    0.9502732191    1.9704949099   -0.4645962235
 N   -0.1607495691    2.9028332766   -0.9284936108
 C    0.1152883627    4.2289243729   -1.4909880518
 C    1.0416804993    5.1925793540   -0.8729384253
 C    1.7767053775    6.0431399623   -0.4442653581
 H   -1.3193426857    3.1844179632    1.0369686563
 H    1.5091324803    3.7002336093    0.8600138491
 H    1.3692610618    2.1484676351    1.7771795174
 H    1.7422523282    1.6287441333   -1.1280432046
 H    0.4566623843    4.0477809765   -2.5178258246
 H   -0.8623538246    4.7178392874   -1.5854531709
 H    2.4309302111    6.7807379043   -0.0487645349