17

 C    0.0055814637    1.4129683231   -0.0138533716
 N    0.0073096852   -0.0346323491    0.0402872990
 N   -0.0223600391   -0.7443190353   -1.1237947181
 C   -0.0126831532   -2.0089247343   -0.7467884422
 C    0.0230849892   -2.1389968255    0.6658349260
 C    0.0423816672   -3.3737083256    1.4325901071
 O    0.0301544359   -4.4864932122    0.9491472291
 C    0.0352013215   -0.8243167049    1.1376189190
 C    0.0707532657   -0.2670451051    2.5222237766
 H    0.9068332332    1.8245349183    0.4513365452
 H   -0.0187400559    1.6938900490   -1.0656134574
 H   -0.8735670382    1.8240767193    0.4923024737
 H   -0.0312597599   -2.8028242765   -1.4776743753
 H    0.0702135269   -3.2413148248    2.5384643815
 H    0.9606032179    0.3522220021    2.6840342564
 H   -0.8050649899    0.3596091980    2.7263493109
 H    0.0851115097   -1.0710453864    3.2593714202