15

 C    0.0832377857    1.3473415498    0.0078316883
 O    0.0050621640   -0.0605796183    0.0016244454
 C   -1.3205992277   -0.5334044415    0.0118206926
 C   -1.2529641064   -2.0550455306    0.0033368053
 C   -2.6112099014   -2.7043722481    0.0129929073
 O   -3.6644839049   -2.1179791855    0.0259081609
 C   -2.5894452927   -4.1858785776    0.0045285194
 N   -2.5627725426   -5.3417639612   -0.0020934507
 H    1.1424942721    1.6134363613   -0.0009151689
 H   -0.4029000220    1.7856557390   -0.8774085730
 H   -0.3859525107    1.7768619719    0.9064271717
 H   -1.8632832009   -0.1811592981    0.9032171971
 H   -1.8801418514   -0.1720405310   -0.8653920547
 H   -0.7010627583   -2.4129637832   -0.8761373102
 H   -0.6844440329   -2.4219378969    0.8684158194