20

 C   -0.0993266175    1.8867869035    0.1731715451
 C   -0.0832607439    0.3781616386    0.0545921206
 C   -1.2860025402   -0.1663153941   -0.7028026472
 O   -1.1373384409   -1.5666716984   -0.8765592491
 N    1.2221744105   -0.2462080543   -0.2076405414
 C    0.5390333484   -0.5046960490    1.0811681284
 C    1.2311304019   -0.0152904005    2.3394666996
 C    2.3882419990   -0.9228063762    2.7050481680
 O    2.5512106422   -1.4296976931    3.7856646909
 H    0.8126226069    2.2586496893    0.6417481510
 H   -0.1658959641    2.3469797912   -0.8192636762
 H   -0.9578666095    2.2292933483    0.7620021471
 H   -2.2056066569    0.0733640135   -0.1455837047
 H   -1.3489118807    0.3440855276   -1.6776995698
 H   -1.8647745484   -1.8882979792   -1.4154654893
 H    1.0825456744   -1.0516239518   -0.8146671263
 H    0.0744430647   -1.4826723278    1.1815327000
 H    1.6460522405    0.9850601031    2.1698313992
 H    0.5406792835    0.0319726824    3.1871092307
 H    3.1030230003   -1.0978120632    1.8702775036