16

 C   -0.1462788428    1.5175029760    0.1924359071
 C    0.0688781952    0.0324857304    0.0204786326
 C   -1.1599659641   -0.9128907857    0.1278012572
 C   -0.4307766317   -1.6862751861    1.2489587757
 O   -0.7461753831   -2.5762601544    1.9769171916
 C    0.8449567840   -0.8131277944    1.0993109658
 N    1.9193374340   -1.4824428558    0.3614631933
 C    1.8016644473   -1.0933374025   -0.8434443988
 O    0.8322492152   -0.2143752931   -1.1911045998
 H    0.8113560140    2.0438088307    0.2368787289
 H   -0.7264432219    1.9263186329   -0.6405557566
 H   -0.6934227940    1.7169280981    1.1189166546
 H   -2.0925845790   -0.4424616531    0.4533220136
 H   -1.3579637852   -1.4980095677   -0.7745898574
 H    1.2131525198   -0.3398318092    2.0139400292
 H    2.4440809322   -1.4011744362   -1.6610044670