17

 C    0.0728433453    1.3376540033    0.0500313196
 O   -0.0054378601   -0.0792414504   -0.0405829000
 C    0.6614608614   -0.6115993086   -1.1333989497
 O    2.0770067130   -0.4429402471   -1.0337452360
 C    2.6908544452   -1.6781889589   -1.0095312537
 O    3.8780706095   -1.8023787742   -0.9287402308
 C    1.6283132283   -2.7049021242   -1.1112961565
 C    0.4374316651   -2.1101728967   -1.1782130881
 C   -0.9352253046   -2.6795638345   -1.2505667955
 H    1.1047002996    1.6678976277    0.2089878133
 H   -0.3203308508    1.8133760501   -0.8601434335
 H   -0.5412067968    1.6314382305    0.9029827131
 H    0.3472813042   -0.1056543321   -2.0623501615
 H    1.8538642686   -3.7615382209   -1.1087815323
 H   -0.9212758638   -3.7711921304   -1.2356088953
 H   -1.5327615406   -2.3166402384   -0.4072534877
 H   -1.4467875036   -2.3510154153   -2.1636325953