20

 C   -0.0509875262    1.5591538289    0.0036712625
 C    0.0590583945    0.0330362328    0.0118695155
 N    0.8141582515   -0.4751330941   -1.1435061009
 C    1.7844255576   -1.1676616525   -0.6804685203
 C    2.7998181333   -1.8590570232   -1.5316014450
 N    1.8422547837   -1.2470006295    0.7199832304
 C    2.8162933202   -1.9233397133    1.5424936621
 C    0.7855097591   -0.5017910010    1.2422709451
 N    0.4676113737   -0.2838596003    2.4544365375
 H    0.9432208750    2.0160106221   -0.0039406589
 H   -0.5893814316    1.8932647982   -0.8866052186
 H   -0.5800731887    1.8945624612    0.8990491458
 H   -0.9519392111   -0.3932121989   -0.0169335255
 H    2.5612031534   -1.6649229729   -2.5770769554
 H    3.8119886247   -1.4947423511   -1.3241033128
 H    2.7960089042   -2.9413363083   -1.3610306988
 H    3.5355925578   -2.4478026871    0.9137511535
 H    3.3631809900   -1.2117480540    2.1740944533
 H    2.3319223708   -2.6580437277    2.1975044025
 H    1.1040224981   -0.7405220593    3.1092734279