20

 C   -0.1331733055    0.8722595008   -2.0037337168
 C    0.0192327693   -0.2797821673   -1.0343133959
 C    1.3309110855   -0.6435222099   -0.3752201097
 C    2.6218679207    0.1066855286   -0.6221239626
 C    0.2161583120   -0.0412309529    0.4414388742
 C    0.1665147713    1.2644784286    1.2582093510
 N   -0.5721262148    0.4911258046    2.2664927973
 C   -0.5376951565   -0.7055185925    1.5800419859
 O   -0.9496826446   -1.8095158122    1.8229510105
 H    0.4924642994    1.7280693333   -1.7361976306
 H    0.1401257948    0.5671953540   -3.0197253721
 H   -1.1713239352    1.2204437793   -2.0311220185
 H   -0.6248056040   -1.1288444034   -1.2527127479
 H    1.4656711095   -1.7087725649   -0.2007017020
 H    2.4617832816    1.1795720077   -0.7592784190
 H    3.3100804319   -0.0176325441    0.2209142138
 H    3.1261848135   -0.2695581186   -1.5188408834
 H    1.1347034027    1.6419685606    1.6048652919
 H   -0.4097464255    2.0826393612    0.8131816192
 H   -0.9218266161    0.7355290271    3.1797616648