20

 C    0.1642625769    1.5629683217    0.0902886000
 C   -0.0126288334    0.0806267650   -0.0432333650
 C   -0.9489938268   -0.7406812661    0.7796390538
 N    0.4810200793   -0.9733479983    0.9593728210
 C    0.9352885019   -1.8709800157   -0.1863667707
 C    2.4654318980   -1.9154681204   -0.1879897021
 C    0.3463526761   -3.2738719321   -0.2372581565
 C    0.4678449742   -0.7752869322   -1.1802891214
 O    0.6590361448   -0.5752926668   -2.3470163719
 H    1.1685170507    1.8703660634   -0.2165423433
 H   -0.5562545742    2.0898912458   -0.5440166851
 H    0.0053966607    1.8794116524    1.1248803456
 H   -1.4128581762   -0.2289227544    1.6186730321
 H   -1.5791715647   -1.4944941206    0.3172307517
 H    2.8230214946   -2.5232543776    0.6487375954
 H    2.8275589389   -2.3490484378   -1.1242011830
 H    2.8887764371   -0.9128459716   -0.0841161462
 H   -0.7453252164   -3.2858845471   -0.2660761491
 H    0.7030300442   -3.7874475375   -1.1350322868
 H    0.6720612243   -3.8500037701    0.6356358714