16

 C   -1.2368962087    0.5910447393    0.1617502942
 C    0.1092345614   -0.0897491376    0.1044056578
 N    0.9820501572   -0.0459398031    1.0521009777
 O    0.5090330793    0.7070142141    2.1256466063
 C    0.4622940075   -0.8340647665   -1.0549819755
 C    0.6888365966   -1.4499305304   -2.0685653800
 C    1.0167371397   -2.1819005815   -3.2591091892
 C    0.0696193338   -3.1373194128   -3.8718744876
 O    0.2883272685   -1.8619902826   -4.4572324060
 H   -1.1061121392    1.6645207885    0.3288478432
 H   -1.7939811032    0.4321382092   -0.7611760704
 H   -1.8156385204    0.2070564533    1.0077477717
 H    1.2438758955    0.6608362875    2.7470087305
 H    2.0802056183   -2.3519708486   -3.4228803488
 H    0.4645589824   -3.9884725239   -4.4252182210
 H   -0.9040497087   -3.2828227550   -3.4082202828