15

 C   -0.9170233268    0.8467159109    0.2459044100
 C    0.3834252307    0.1333321065   -0.0391292575
 O    1.2910663421    0.0715955625    0.7564111113
 C    0.5033694741   -0.5153400727   -1.4342867387
 C    1.7453036327   -1.4197413093   -1.5895016393
 O    1.1850337964   -2.7305107081   -1.8684818531
 C   -0.1497239874   -2.5555401966   -1.8887367187
 N   -0.6504774197   -1.4056614616   -1.6891910650
 H   -1.0720663270    1.6497240783   -0.4840590242
 H   -1.7503040574    0.1491780465    0.1223517866
 H   -0.9019925302    1.2608030801    1.2543864255
 H    0.4867717673    0.3038203498   -2.1653836350
 H    2.3906398831   -1.1441352027   -2.4258617832
 H    2.3271478670   -1.4692910359   -0.6672458833
 H   -0.7199792051   -3.4565625676   -2.0864367754