25

 C   -0.2099815372    1.5843683613   -0.1502011138
 C   -0.0266379993    0.0653257574   -0.0599559685
 C    0.8471723846   -0.5354326460   -1.1799422679
 C    2.3166919361   -0.1005157459   -1.0646849777
 C    0.7039775218   -2.0681164992   -1.2640165919
 C    1.1789609009   -2.8196083747   -0.0186885441
 C   -0.6728843956   -2.5756563221   -1.7733346583
 O   -0.0630958474   -3.2853676788   -2.8684225583
 C    1.2255491916   -2.7103653373   -2.5787403821
 H    0.7398668552    2.1183947985   -0.0496341420
 H   -0.6527935075    1.8724097350   -1.1102919246
 H   -0.8731915345    1.9452996217    0.6421369883
 H    0.4043733394   -0.1889146903    0.9166323139
 H   -1.0165594783   -0.4085795196   -0.0872791007
 H    0.4627533805   -0.1434939644   -2.1336944687
 H    2.7422888215   -0.3780357937   -0.0943517381
 H    2.9322596681   -0.5625824790   -1.8438493822
 H    2.4196417544    0.9828734363   -1.1710019927
 H    0.6174105678   -2.5214693251    0.8723403123
 H    1.0399298083   -3.8972108230   -0.1526881966
 H    2.2416959803   -2.6466550921    0.1788869976
 H   -1.2264772240   -3.2470506834   -1.1053294335
 H   -1.3513671992   -1.7864249936   -2.1269925302
 H    1.5336444855   -1.9913990841   -3.3510764771
 H    2.0042551268   -3.4762253179   -2.4754132933