20

 C    0.2395486326    1.5014341406    0.1969900103
 C   -0.1550742547    0.0382929100   -0.0504512875
 C    0.4666671464   -0.5098395698   -1.3004525159
 N    1.8887220939   -0.9300202887   -1.2930714714
 C    0.9163455947   -1.9035305389   -1.7510751520
 C    0.7794898493   -3.2200416175   -1.0490345686
 C    0.5699944262   -1.6130866966   -3.2239669041
 C    0.0669158858   -0.2259790001   -2.7285927197
 O   -0.5741321910    0.6454230461   -3.2465320612
 H    1.3243764056    1.5950656953    0.3062403396
 H   -0.0764476289    2.1324770167   -0.6387949637
 H   -0.2284426852    1.8829591475    1.1091548961
 H    0.1533617613   -0.5834370418    0.7973764025
 H   -1.2455923496   -0.0428931436   -0.1326532691
 H    2.4320374908   -0.5203111330   -2.0513654203
 H    0.9380255237   -3.1001167585    0.0256305672
 H   -0.2126549888   -3.6517896585   -1.2149226199
 H    1.5230875572   -3.9348377882   -1.4196992561
 H    1.4031277797   -1.6496492332   -3.9334249673
 H   -0.2683454690   -2.1891899777   -3.6294865791