23

 C    0.0852954341    1.6239150862    0.1843405939
 C    0.0230055355    0.1118951313    0.0755975718
 C    1.0683066598   -0.5613325126   -0.8070281663
 C    1.1455025315   -0.6842822098    0.6947712941
 O    2.1321066044    0.0137235580    1.4007228766
 C   -1.3475984802   -0.5337356596    0.1085119843
 C   -2.3334867266   -0.2725774503    1.2871458627
 C   -3.5005266888   -0.3387843736    0.2655974880
 C   -2.4726963751   -0.0752363219   -0.8676670467
 H    1.1204239209    1.9587313877    0.2682503466
 H   -0.3628218191    2.1040995519   -0.6918922028
 H   -0.4438469804    1.9845714207    1.0727376021
 H    0.7848717056   -1.4306064187   -1.3920402645
 H    1.8024271170    0.0837592130   -1.2794107101
 H    0.8792969013   -1.6465369307    1.1340203420
 H    2.9825309972   -0.3864752083    1.1925906203
 H   -1.2218638072   -1.6181408373    0.0016109124
 H   -2.3302037021   -0.9841180328    2.1166158994
 H   -2.2198292565    0.7350930003    1.6966602130
 H   -3.9249917360   -1.3450159212    0.2006610768
 H   -4.3192696987    0.3747628840    0.3834573276
 H   -2.3987846131    0.9922763844   -1.0945895528
 H   -2.5852273233   -0.6220117509   -1.8072701086