15

 O   -0.0160578620   -0.0094148678    0.0353313424
 C   -0.0031339057    1.1900882355    0.0198379312
 N   -1.0015427923    2.1386853771   -0.0141398631
 C   -0.1320276544    3.3167886065    0.0676599041
 C   -0.0139399304    3.9805161918    1.4437513384
 C    0.8992980282    3.0063851059    2.2132767526
 O    1.8050587135    2.4882673588    1.2361776514
 C    1.0836169698    2.3265886577    0.0456914424
 H   -2.0069215702    2.0464860700    0.0133031725
 H   -0.2460965411    4.0142218600   -0.7644372692
 H    0.4747023222    4.9538045135    1.3335919596
 H   -0.9792298324    4.1340280800    1.9331125534
 H    1.4934344262    3.4803156377    2.9969677655
 H    0.3141814745    2.1924271644    2.6642788505
 H    1.7691169543    2.3370274290   -0.8023118718