18

 C   -0.0818462121    1.5188973854   -0.0896164727
 C    0.0021505283    0.0200089334    0.0652292241
 N    1.3036751223   -0.6198226741   -0.1467218677
 C    0.6958709447   -0.6719761575    1.2117694215
 C    1.4393764945    0.0830958643    2.2996085088
 C    0.1255599643   -1.9249471550    1.6282699551
 C   -0.3310339555   -2.9866052917    1.9951839356
 C   -0.8505836258   -4.1772813295    2.3960366200
 C   -1.3117183053   -5.2356560264    2.7519343165
 H    0.8243158384    2.0145466798    0.2630053901
 H   -0.2102596746    1.7762968211   -1.1465301011
 H   -0.9397985853    1.9193046801    0.4604452164
 H   -0.8688558713   -0.5143642258   -0.3109164658
 H    1.1926861151   -1.5185051901   -0.6096655066
 H    1.9007525187    0.9851266469    1.8955860243
 H    0.7611970921    0.3605479236    3.1121126156
 H    2.2320155707   -0.5448450394    2.7166538168
 H   -1.7171609791   -6.1655010251    3.0648694690