7

 O   -0.0324817909   -0.0129324292    0.0034974437
 C   -0.0070703660    1.1696186978    0.0092073250
 O   -1.1158282270    2.0089519861    0.0284112736
 C   -0.6090528040    3.2562697003    0.0284281458
 N    0.6664396487    3.3341889543    0.0121196928
 O    1.0851735555    1.9789781765   -0.0005520343
 H   -1.2855162562    4.0966981242    0.0418254634