22

 C    0.0055883605    1.4470895310    0.1785795240
 N   -0.1531911445    0.0091225026    0.2699646583
 C   -1.1740769938   -0.6596366055   -0.3426013100
 O   -2.0378574841   -0.0985145863   -0.9937038228
 C   -1.1400149227   -2.1781641453   -0.1728493242
 C   -2.5454423412   -2.7636507750   -0.0094038293
 C   -2.5477015814   -4.2850781859   -0.0452628006
 O   -3.8709083642   -4.7362923902    0.1374503035
 C   -3.9812651409   -6.1374807060    0.1126665822
 H    0.9505265231    1.7167924427   -0.3068330102
 H   -0.8234190841    1.8249359430   -0.4208083869
 H   -0.0253008254    1.9160022868    1.1684521394
 H    0.5215194300   -0.5198601886    0.7961229180
 H   -0.6727493606   -2.5875747675   -1.0792153618
 H   -0.4947375113   -2.4644814471    0.6667190339
 H   -2.9844073021   -2.4315707253    0.9381378409
 H   -3.1839577457   -2.3738328463   -0.8062321676
 H   -2.1471909061   -4.6463975321   -1.0098010660
 H   -1.8916898466   -4.6958960230    0.7440380288
 H   -3.6505076240   -6.5585074970   -0.8506437321
 H   -3.3876340341   -6.6104902546    0.9120123559
 H   -5.0346632907   -6.3869217605    0.2623360066