21

 C   -0.0643378390    1.5752799956   -0.0094719960
 C    0.0518359942    0.0644497770    0.0637173421
 C    1.3186164814   -0.6924033140   -0.2614662512
 O    2.5400021013    0.0066379345   -0.1596912704
 C    2.9528118012    0.0758982368    1.1897093812
 C    2.3102385662    1.0923248472    2.0945162952
 C    1.8022239082   -0.3394328432    2.0662925532
 C    0.7170935293   -0.8268969159    1.1203828329
 C   -0.0249714378   -2.0673761523    1.5706483554
 H    0.9071950472    2.0452718435   -0.1741417533
 H   -0.7000099282    1.8458599538   -0.8588428316
 H   -0.5179327728    2.0089697378    0.8875772353
 H   -0.8306202117   -0.4362228746   -0.3320212415
 H    1.3384797342   -1.4785437060   -1.0119800392
 H    3.9855373744   -0.2243035655    1.3378855316
 H    2.8809486673    1.3701309039    2.9757531388
 H    1.7233841610    1.8951864544    1.6775128901
 H    1.9589742777   -0.9484396695    2.9493012057
 H   -0.6989068195   -1.8463278276    2.4065875558
 H   -0.6310543061   -2.4845967591    0.7608898293
 H    0.6708004814   -2.8478269169    1.9005441067