19

 C   -0.1258242309    1.4062651080   -0.0459955780
 O    0.0114705792    0.0022086728    0.0113781659
 C    0.6910676524   -0.5506540017    1.1446000303
 C    0.0263476829   -0.1409409076    2.4675136476
 C    0.7034253410   -2.0800232877    0.9413895971
 C    2.1748124704   -2.5069686018    1.0099637792
 O    2.5904046611   -3.6411099357    1.0093234102
 C    2.9775440520   -1.2601879206    1.0792609408
 C    2.1748649939   -0.1946523451    1.1403045781
 H    0.8404113888    1.9300422530   -0.0255714175
 H   -0.6117116136    1.6266396609   -0.9995986494
 H   -0.7543348807    1.8040584824    0.7620031639
 H   -1.0457333769   -0.3574157839    2.4269331983
 H    0.4645001377   -0.7028713704    3.2971282273
 H    0.1579979589    0.9233167451    2.6841285082
 H    0.1100109662   -2.6282962894    1.6768053653
 H    0.3072680887   -2.3149693883   -0.0501081971
 H    4.0605597092   -1.2667626562    1.0837312185
 H    2.5091260595    0.8351925961    1.2061897914