15

 C   -0.1972228312    1.5767613034    0.1827032245
 C    0.0223791178    0.0727874922    0.0753069183
 O    1.1357737416   -0.2739960816   -0.7958114155
 C    1.8491311199   -0.9790977184    0.2558381337
 C    0.7557592880   -0.6123541289    1.2224593888
 N    0.4716943205   -0.7109779951    2.4458580017
 O    1.4690969499   -1.3913544623    3.1467245052
 C   -1.2057062274   -0.6226126165   -0.3475489181
 N   -2.1715007792   -1.1646190328   -0.6765483021
 H    0.7304721479    2.0575972901    0.5000650747
 H   -0.4967079783    1.9787191722   -0.7885825198
 H   -0.9815639883    1.7905641049    0.9135088504
 H    1.9531775254   -2.0500513705    0.0458080860
 H    2.8360340924   -0.5471475123    0.4556483286
 H    1.1223947511   -1.4042703744    4.0462471036