20

 C   -0.2293709028    1.4249093981   -0.0421947795
 N    0.0626545849    0.0001586984    0.0346201332
 C    1.4438845735   -0.4221710591   -0.1918219138
 C    0.8224389663   -0.5146958863    1.1627646041
 C    1.3292825749    0.3484317310    2.3256023888
 C    1.9985421737   -0.6677159276    3.2659747249
 C    1.2515124621   -1.9880657652    3.0349878173
 O    1.3285255167   -2.9669481733    3.7303951495
 C    0.3972872687   -1.8429940172    1.7728423051
 H    0.5892021928    2.0777999552    0.2985491083
 H   -0.4543201316    1.6806268160   -1.0822183031
 H   -1.1178758427    1.6466766321    0.5578454265
 H    1.5757675057   -1.3088700852   -0.8078843850
 H    2.1954488778    0.3527217985   -0.3442101616
 H    2.0049223039    1.1457870313    2.0114200489
 H    0.4770161965    0.8207311359    2.8311324268
 H    3.0448659920   -0.8377445632    2.9800346551
 H    1.9955138758   -0.3933951922    4.3233174195
 H   -0.6574001209   -1.8063920592    2.0777621429
 H    0.5077639527   -2.7066422382    1.1132011824