22

 C    0.1023474502    1.6119686328   -0.1066782501
 C    0.0807433508    0.0839833444   -0.0237611731
 C    0.7665864435   -0.6079637637   -1.1924608930
 N    2.2452212073   -0.6612401415   -1.0784114932
 C    1.4188067089   -1.8448969485   -0.7271536170
 C    1.2508023197   -1.9658842091    0.7764463961
 O    2.4182998013   -2.4263191832    1.4310310923
 C    0.7289967352   -0.5562712221    1.2503348100
 C    1.8199500390    0.2856164168    1.9243821089
 H    1.1262956693    1.9926856583   -0.1454373168
 H   -0.4156264347    1.9530775734   -1.0100001079
 H   -0.3995549979    2.0690848757    0.7522374567
 H   -0.9689431366   -0.2401741012   -0.0588881123
 H    0.3326496914   -0.5322664162   -2.1855973404
 H    2.6426848577   -0.7990602354   -2.0042321448
 H    1.4956556405   -2.7397155863   -1.3362977301
 H    0.4890635488   -2.7250782301    0.9870413812
 H    3.1396277427   -1.8666516483    1.1196740593
 H   -0.0564391952   -0.7163945958    1.9965139607
 H    2.6228896440    0.5428412393    1.2294693227
 H    1.4027892928    1.2160543052    2.3203269186
 H    2.2508259012   -0.2691128944    2.7620592924