18

 C    0.3218717409    1.1232224142    0.5560995447
 C   -0.3288306465   -0.1210658290   -0.0727601234
 C   -1.8217491054    0.0937172922   -0.4363290844
 N   -2.6249436641    0.4241587416    0.7296272156
 C   -3.0230354828   -0.5897331919    1.5791712406
 N   -3.9764800604   -0.2135588537    2.5116914907
 O   -2.5838739004   -1.7223593037    1.4967903846
 C    0.4001317008   -0.5383401100   -1.2728714949
 N    0.9660678769   -0.8477104240   -2.2321481103
 H    1.3524936707    0.9166771262    0.8534379603
 H    0.3325523930    1.9592327227   -0.1501686325
 H   -0.2447807203    1.4204763571    1.4411805657
 H   -0.2985933327   -0.9524021210    0.6395554989
 H   -1.9079225944    0.9167351341   -1.1509393043
 H   -2.1995229273   -0.8169546072   -0.9110681738
 H   -3.2138147679    1.2379573018    0.6614581387
 H   -3.9908862302    0.7460753750    2.8219649866
 H   -4.0892363099   -0.8903778246    3.2508849872