21

 C   -0.2334636297    1.3298010449   -0.5329874826
 O   -0.2192593294   -0.0778512898   -0.5166869193
 C   -1.0541233365   -0.6042985976    0.4984468976
 C   -1.0150012145   -2.0597910155    0.4807098218
 C   -0.9922781937   -3.2631471397    0.4888540467
 C   -0.9822829772   -4.7209543139    0.4766697510
 C   -2.2424667002   -5.3317134277   -0.1648954748
 C   -2.2038165215   -6.8541114175   -0.1714105784
 O   -3.4035172823   -7.3158964837   -0.7706566917
 H    0.4307567990    1.6509093686   -1.3384535688
 H   -1.2431009921    1.7284684906   -0.7236059462
 H    0.1274333058    1.7555860598    0.4173702794
 H   -0.7329314594   -0.2315449800    1.4874300141
 H   -2.0925363207   -0.2553459347    0.3570896855
 H   -0.0899432460   -5.0679330405   -0.0620722617
 H   -0.8747100381   -5.0934436622    1.5046608515
 H   -3.1332520074   -4.9999536963    0.3783745285
 H   -2.3456730008   -4.9716996071   -1.1934914165
 H   -1.3181240040   -7.2014097110   -0.7294761563
 H   -2.1026252259   -7.2285745536    0.8612412303
 H   -3.3832232253   -8.2770798934   -0.7845252704