21

 C   -0.6756899730    0.8820289973   -1.6148002496
 C    0.2828802964   -0.1757185537   -1.0922194909
 C    1.8150393117    0.0072324497   -1.2903699602
 C    2.0381312668   -0.5681062591    0.1377256414
 C    3.1057743060    0.0366572064    1.0350443908
 C    0.5383971080   -0.2820961029    0.4392522696
 O    0.3741199512    0.9892033487    1.0793881429
 C   -0.3849418719    1.0660216495    2.1868468930
 O   -0.5703072992    2.0879212036    2.7764340647
 H   -0.4227113247    1.8705128959   -1.2225554307
 H   -0.6349852220    0.9271462984   -2.7081855002
 H   -1.7106932598    0.6623584803   -1.3299815330
 H   -0.0181243454   -1.1664465464   -1.4513124413
 H    2.2846473592   -0.5149687584   -2.1271353113
 H    2.0863978470    1.0667524908   -1.3396156035
 H    2.1669007954   -1.6549206818    0.0799297160
 H    2.9606124629    1.1141993983    1.1482079174
 H    3.0911626486   -0.4111270063    2.0349902119
 H    4.1011632567   -0.1317024609    0.6107304401
 H   -0.0226006526   -1.0396805631    0.9981806607
 H   -0.8099812311    0.0865291236    2.4816574823