25

 C   -0.1078547803    1.5876331707   -0.1809315957
 C    0.0039151009    0.0651150865   -0.1225970159
 C    0.9679268962   -0.5534710192   -1.1531286223
 C    1.2214693499   -1.9597666519   -0.5994660350
 C    1.3856314082   -1.7399135050    0.9239813688
 C    0.5074448858   -0.4870061313    1.2383183891
 C    1.0533621655   -2.9552564250    1.7595982326
 C    2.0767971808   -4.0391731379    1.9887923940
 C    1.6569749105   -3.1428833760    3.1290625915
 H    0.8661338113    2.0579408468    0.0002243154
 H   -0.4642516138    1.9261221298   -1.1601287369
 H   -0.8042686928    1.9675150639    0.5746003189
 H   -0.9916151514   -0.3586256112   -0.3141301215
 H    0.5633300728   -0.5492908025   -2.1703611185
 H    1.9064344990    0.0181191076   -1.1745836510
 H    0.3457079964   -2.5947667457   -0.7891792240
 H    2.0841930279   -2.4623056142   -1.0463892403
 H    2.4356821626   -1.4820296039    1.1153081313
 H    1.0973394884    0.2720089227    1.7638860753
 H   -0.3273808880   -0.7408430089    1.8994953981
 H    0.0247305354   -3.2946830659    1.6488953174
 H    1.7478478912   -5.0725250644    1.9970758581
 H    3.0680209557   -3.8944653482    1.5708646736
 H    2.3673738319   -2.3988901589    3.4751094303
 H    1.0406658859   -3.5645472780    3.9155174665