20

 C    0.0009994659    1.5769097534   -0.0893980933
 C    0.1033263226    0.0565328651   -0.0127803432
 C    0.7822389844   -0.6232668321   -1.2253863388
 C    1.2318110728   -1.9939696703   -0.7185314597
 C    2.5596754363   -2.0717996502   -0.0148438915
 C    1.2980054922   -1.9333285839    0.7968892035
 C    0.8576637165   -0.5234052825    1.2355995769
 C    1.9802397421    0.3160312047    1.6639429184
 N    2.8683363825    0.9828644490    1.9867595602
 H    0.9911052123    2.0393324064   -0.1474681091
 H   -0.5659239179    1.8765957591   -0.9765756601
 H   -0.5093917506    1.9906669173    0.7864708600
 H   -0.9076582496   -0.3625412558    0.0628144885
 H    0.0876303214   -0.7062405245   -2.0659518637
 H    1.6336575299   -0.0264565439   -1.5749047883
 H    0.8555215783   -2.8820734719   -1.2132219191
 H    3.0614850581   -3.0328000719    0.0202551869
 H    3.2328514313   -1.2218071340   -0.0741786295
 H    0.9839175859   -2.7643244220    1.4165734537
 H    0.1708004458   -0.5887612720    2.0854230683