15

 C   -0.0434039795    1.5390673700   -0.0312447143
 C    0.1398502751    0.0105180406   -0.0286871032
 C    0.7562564160   -0.4952483267    1.1901640097
 C    1.2691220901   -0.8820336021    2.2130739341
 C    1.8846050910   -1.3517822743    3.4393870813
 C    2.1014712927   -2.8498668909    3.5261665428
 O    2.2005215229   -0.5897095214    4.3288755783
 H    0.9199373409    2.0451924056    0.0697121708
 H   -0.5087666174    1.8620859675   -0.9667929732
 H   -0.6795036684    1.8546631637    0.7995125552
 H   -0.8309977476   -0.4833362840   -0.1651972253
 H    0.7518469518   -0.2947641037   -0.8873728020
 H    1.1449736557   -3.3743212183    3.4267717055
 H    2.7368725762   -3.1860594447    2.6997041816
 H    2.5669570106   -3.0978146113    4.4812267886