15

 C    0.0722668746    1.4244276046    0.0016781619
 C   -0.0419728948   -0.0566842408   -0.0053201781
 N   -1.1288732896   -0.7698775115    0.0771164619
 C   -0.6943714061   -2.0787544932    0.0256693435
 N   -1.5915012561   -3.1209555029    0.0286544170
 C    0.6750123301   -2.1051824056   -0.0830961336
 O    1.0887558320   -0.7731010693   -0.1067142249
 C    1.6081507012   -3.1385546352   -0.1608096154
 C    2.3830234338   -4.0630170130   -0.2170395198
 H    0.6958709451    1.7644510738    0.8347965032
 H    0.5349690767    1.7840246545   -0.9231277165
 H   -0.9227783692    1.8589545824    0.0967253434
 H   -2.4702544595   -2.8955315602    0.4714589284
 H   -1.2134258254   -4.0109609467    0.3179965100
 H    3.0689105372   -4.8704973569   -0.2815190810