17

 C   -0.1266054402    1.6151202339    0.3317276638
 C    0.0644206832    0.1360950723    0.0146451656
 C    0.8257561530   -0.2382422898   -1.2930489146
 N    1.8573093331   -0.8656433095   -0.4003433757
 C    1.1303342012   -0.6256435801    0.6950882784
 N    1.1585055465   -1.0224792783    1.9470274591
 H    1.7613903812   -1.7741322853    2.2494782207
 H    0.1773554046   -0.9525045637    2.3081030156
 C   -1.3298098844   -0.6477832439    0.3330720366
 O   -2.0106517095   -0.9163733512   -0.6463844847
 O   -1.4715827224   -0.8171559354    1.5674065940
 H    0.8030480433    2.1850390477    0.2227372156
 H   -0.8713955211    2.0337804667   -0.3513666483
 H   -0.4993069661    1.7313736587    1.3515805583
 H    0.2875196781   -0.9650772969   -1.9023529623
 H    1.2280478285    0.5785720514   -1.8951431530
 H    2.4995764010   -1.6251809167   -0.5828016192