17

 O    0.0390320322   -0.0593566258    0.2111375070
 C   -0.0177227943    1.1289430699    0.0069898155
 C   -1.3262029276    1.9021920062   -0.0682360908
 C   -1.2802989133    3.0566609061   -1.0828655219
 C    0.0271081124    3.8520900452   -0.9239464005
 O    1.1447380381    2.9867748844   -1.1180419874
 C    1.2445802379    1.9837302415   -0.1222402648
 C    0.1232002673    4.9489187815   -1.8807485315
 C    0.1604041971    5.8579271815   -2.6642915360
 H   -2.1406011333    1.2014979245   -0.2669027215
 H   -1.4937813723    2.3124081229    0.9391919293
 H   -1.3127460974    2.6696585639   -2.1062167016
 H   -2.1403267842    3.7206480701   -0.9535513294
 H    0.0691965498    4.2704706862    0.0986816819
 H    1.4508355627    2.4325269430    0.8677805265
 H    2.0867319719    1.3430179468   -0.3889995904
 H    0.2074055530    6.6621217821   -3.3566685846