11

 O   -0.1620165394   -0.0219782473   -0.0006161812
 C   -0.0367245549    1.1827856076    0.0076881140
 C    1.2361523515    1.8804230770   -0.0007673928
 C    2.5455689719    1.4326748384   -0.0186053087
 N    3.4200140781    2.4770237367   -0.0201769142
 C    2.6646470303    3.5626900574   -0.0035997974
 N    1.3455479870    3.2627105907    0.0093540842
 H   -0.9281177272    1.8541089057    0.0227589507
 H    2.8770772081    0.4058823475   -0.0303378574
 H    3.0273879596    4.5798969246    0.0002320645
 H    0.5803929751    3.9178950016    0.0232931784