20

 C   -0.0818208914    1.5536476975   -0.1266614439
 C   -0.1755435599    0.0389171201   -0.2407621947
 C   -0.1785603747   -0.8162967526    0.9976665492
 C   -1.4347279994   -0.6803922467    0.1681327577
 C    1.3294272455    2.0629685015   -0.0291724609
 C    1.9515831087    2.5477840449    1.1001477590
 N    3.2420354904    2.8832643285    0.7711715222
 C    3.4613549083    2.6238864495   -0.5570489560
 C    2.2962614538    2.1152645990   -1.0796192040
 H   -0.5818465988    2.0078197249   -0.9929298204
 H   -0.6491661805    1.8763940617    0.7553196766
 H    0.3525343678   -0.3727219585   -1.0969311408
 H    0.3515980301   -1.7622112624    0.9804863952
 H   -0.1485664816   -0.3115784402    1.9583261339
 H   -2.2477778925   -0.0864270485    0.5740141337
 H   -1.7615934887   -1.5330003046   -0.4173659726
 H    1.5796482823    2.6826644766    2.1036976084
 H    3.9170320875    3.2739385947    1.4038793649
 H    4.4170570773    2.8267094871   -1.0131828205
 H    2.1437742359    1.8146044476   -2.1057257871