18

 O   -0.4390080452    1.3197194063    0.1107984296
 C   -0.0711428318   -0.0538842677    0.0455948084
 C    0.7684386668   -0.3292138113   -1.2136240090
 C    0.0653544018    0.1596661856   -2.4612263179
 O    0.5472950441    0.9083450208   -3.2707197057
 C    0.6242687145   -0.5414104940    1.3081509939
 C    1.5767315955    0.3465029575    2.0690427557
 C    0.2283420135    0.0003530508    2.6535449134
 H    0.3512249916    1.8514189557   -0.0364711600
 H   -1.0280576582   -0.5848873397   -0.0485122477
 H    1.7504693295    0.1518405466   -1.1455135746
 H    0.9289549077   -1.4121905969   -1.3093678007
 H   -0.9696860853   -0.2346777704   -2.5873492096
 H    0.8855203807   -1.5959943007    1.2690126652
 H    2.4659901390   -0.1020907646    2.4969208019
 H    1.7183680676    1.3667880123    1.7279826879
 H   -0.5159389019    0.7881585158    2.6619982726
 H    0.1851519800   -0.6832541764    3.4938282967