16

 O    0.9450199152   -0.1544789196    0.2998425429
 C    0.5959555512    0.7751512733   -0.3784500440
 C    0.5130841814    2.2083811315    0.1245545128
 N    0.4833501640    3.1293426586   -0.9960482369
 C    0.8983397023    4.3047773274   -0.8390111650
 C    0.9838170521    5.3816725112   -1.9008639492
 O    1.2010640014    6.5699870805   -1.1529813040
 C    1.8359331585    6.1667774195    0.0276792845
 O    1.3598073789    4.8510882244    0.3251558909
 H    0.2865819121    0.6557554268   -1.4405815215
 H   -0.4273723431    2.2839263379    0.6938950780
 H    1.3244481389    2.3893757878    0.8404250343
 H    1.8152043299    5.1752135054   -2.5918729576
 H    0.0606680970    5.4772151877   -2.4740205762
 H    2.9312246510    6.1238397561   -0.0850469970
 H    1.5577871093    6.8411089316    0.8409453379