21

 O    0.1981958152    1.3745381124   -0.1714866024
 C    0.0344389274   -0.0129842012    0.0092296275
 C    0.3259644188   -0.6265834388    1.3755815343
 C   -0.7195888734   -0.2179505775    2.3834681524
 C   -1.0597480558   -1.2834697723    1.3838013421
 C   -1.4152887831   -0.6411883124    0.0459458176
 C   -2.6384407703    0.2808405168   -0.1945871127
 C   -2.7482327777   -0.3016459955   -1.6302950525
 C   -1.8377784928   -1.4781926057   -1.1863655914
 H   -0.0663549021    1.8121126298    0.6444952129
 H    0.6238337823   -0.4863555178   -0.7817590502
 H    1.2794852914   -1.0330003700    1.6914218918
 H   -0.5294459308   -0.5567985419    3.3966707308
 H   -1.2125534245    0.7517782769    2.3374774123
 H   -1.3207071788   -2.2928646341    1.6793860285
 H   -3.4884012169    0.0076171863    0.4384489408
 H   -2.4630032365    1.3567338308   -0.1119054119
 H   -3.7459765204   -0.5509579317   -1.9980522805
 H   -2.2563232257    0.3411216570   -2.3646619816
 H   -1.0444901564   -1.8011940147   -1.8678661921
 H   -2.4209062899   -2.3581439562   -0.8946004857