18

 C   -0.0365177477    1.5552321198   -0.0605744169
 C    0.0749835440    0.0388300830    0.0447654511
 C   -1.1017256451   -0.6422661158   -0.4555647286
 N   -2.0503196100   -1.1644098488   -0.8630487645
 C    1.3414660719   -0.7662395376   -0.1979064012
 C    2.5729743387   -0.0014477645    0.2931922274
 C    1.9627200593   -0.0408185333    1.7423644645
 O    1.7341052083    1.1565167327    2.4483997618
 C    0.7147324766   -0.7264939226    1.1985095938
 H    0.8021289577    2.0497754896    0.4253865914
 H   -0.0843682171    1.8615166838   -1.1102087121
 H   -0.9498981113    1.8965386448    0.4345885850
 H    1.3471766659   -1.5864259586   -0.9038135466
 H    3.4975055067   -0.5766013839    0.2111686107
 H    2.7328476765    0.9898852723   -0.1377496946
 H    2.5252414477   -0.7547913158    2.3577719443
 H    2.5664585743    1.4456230157    2.8359058332
 H    0.1497687236   -1.4884012008    1.7207122614