17

 O    0.0209697799   -0.1039583858   -0.0214157948
 C    0.0379487033    1.0970522455    0.0396576338
 C    1.2888515824    1.9542455182    0.0422711647
 C    1.3019216355    2.9304238263   -1.1953496344
 C    2.0524185774    4.1524802241   -0.6483231358
 O    1.4684483152    5.5039718908   -0.6525832284
 C    1.5962645279    5.5889256501    0.8018946640
 C    1.7942928486    4.0940563262    0.8177502995
 C    1.3027173426    2.9323488318    1.2287877217
 H   -0.9080847716    1.6875724483    0.0898760279
 H    2.1470779377    1.2725688731    0.0299012424
 H    1.7470223451    2.4756309277   -2.0832122850
 H    0.2732871224    3.2264384634   -1.4326499115
 H    3.0949517536    4.2079620600   -0.9874687276
 H    2.4656183173    6.1954959428    1.0857273190
 H    0.6963022074    5.9806516279    1.2861171796
 H    0.8682206653    2.6941663795    2.1922946547