21

 C   -0.1807526507    1.5603497487    0.0536213138
 C    0.1867457005    0.0807645017   -0.1203434309
 C    0.7901731544   -0.5145093757    1.1356339300
 O    2.0177510005    0.0547598283    1.5205046401
 C   -0.0692073413   -1.0546840483    2.2322940635
 C    0.7792350275   -2.0184176757    1.4074288051
 C    0.1028202103   -2.9749653056    0.4837542828
 C    0.9105003341   -4.1983304521    0.0923105865
 O   -1.0241606469   -2.7948010455    0.0663811772
 H    0.7001313691    2.1706247335    0.2836450993
 H   -0.6190624555    1.9616515521   -0.8644261457
 H   -0.9101303456    1.6975839370    0.8594024051
 H   -0.6987106143   -0.4956601779   -0.3963175880
 H    0.9129498368   -0.0225225283   -0.9358140274
 H    1.8377521632    0.9411349114    1.8525055788
 H    0.2405909699   -0.8849110911    3.2569713473
 H   -1.1372969585   -1.1234699995    2.0541754428
 H    1.6987001029   -2.3672932398    1.8637786900
 H    1.1653673736   -4.7831213112    0.9837916495
 H    0.3395450017   -4.8158330488   -0.6017179918
 H    1.8579911084   -3.8957206932   -0.3681239679