17

 C    0.1035512648    1.5774797092   -0.2316562565
 C   -0.0197961044    0.0778661832    0.0536992284
 N    0.5215009644   -0.7497113311   -1.0168860189
 C    1.8294853543   -1.1112777222   -0.7546074009
 O    2.6410931590   -1.5586867240   -1.5154826310
 O    2.0724946844   -0.8830267700    0.5714527114
 C    0.8528201713   -0.4661058805    1.2172818591
 C    1.1775820550    0.4795420450    2.3565538587
 H    1.1479506370    1.8688706078   -0.3786795517
 H   -0.4499432647    1.8326566924   -1.1412169695
 H   -0.3128682941    2.1723153819    0.5867320398
 H   -1.0699470688   -0.1727101536    0.2387697290
 H    0.2878251989   -0.5784727602   -1.9825410341
 H    0.3704047752   -1.3699956984    1.6121396699
 H    1.6929975439    1.3742675620    1.9998041828
 H    0.2604731568    0.7829408798    2.8714131470
 H    1.8243686969   -0.0219668513    3.0807643965