17

 C   -0.2098664606    1.6065983928    0.1240594238
 C    0.0955136213    0.1194402711    0.0128055093
 O    0.9701208948   -0.1260810007   -1.1062119776
 C    2.0849099839   -0.8433233705   -0.7654347173
 N    2.9836590813   -1.1938225239   -1.5773634964
 C    2.0789274819   -1.1463730674    0.7164286035
 C    0.8345176758   -0.4668167203    1.2009845251
 N    0.3881404118   -0.3389682691    2.3824174193
 O    1.2315128826   -0.9626026623    3.3112124120
 H    0.7097055666    2.1773198688    0.2802563617
 H   -0.6962123037    1.9638534383   -0.7872780527
 H   -0.8747634013    1.7772108022    0.9745712057
 H   -0.8322796628   -0.4380120119   -0.1708520963
 H    2.7595403870   -0.8727158681   -2.5208019215
 H    2.0572325189   -2.2257068158    0.9007045774
 H    2.9789267138   -0.7681119818    1.2097129139
 H    0.7880509988   -0.7848115416    4.1479725902