21

 C   -0.0698503324    1.6013997031    0.0180873186
 C   -0.0393804514    0.0716598824   -0.0055913610
 N    0.6405957814   -0.4728136693   -1.1867372123
 C    2.0322267305   -0.5769833834   -1.1503665816
 N    2.7013703569   -0.2150749859   -0.1367416734
 C    4.1391397236   -0.3836637452   -0.1991414733
 C   -0.0150852240   -0.8631381884   -2.3565436543
 C   -1.5286495441   -0.7430737117   -2.3720722962
 O    0.5941985390   -1.2889089313   -3.3180295297
 H    0.9480938128    1.9967077204    0.0208298317
 H   -0.5997946920    2.0083714674   -0.8490205635
 H   -0.5777606149    1.9515076349    0.9222312168
 H    0.5085492561   -0.2946496598    0.8648333588
 H   -1.0486281590   -0.3391984160    0.0372327424
 H    2.4443216875   -0.9944783034   -2.0710766395
 H    4.4956483537   -0.8188358888   -1.1458657826
 H    4.6302358420    0.5862432039   -0.0572133386
 H    4.4699484835   -1.0281923196    0.6237012418
 H   -1.8700673843    0.2611847253   -2.1066507783
 H   -1.8613395569   -0.9858062891   -3.3805838888
 H   -1.9875690781   -1.4471242856   -1.6700366369