15

 O   -0.1251339263   -0.0003572003   -0.1080921654
 C    0.0064426736    1.1964023860   -0.0003874135
 C    1.2655804517    1.9326667693   -0.0096968147
 C    1.4468822889    3.3013056480    0.1116643319
 C    1.1224590372    4.7813563619    0.2764356314
 C    2.6802630833    4.9963871601    0.1972935531
 N    2.7808355144    3.5219978569    0.0474285204
 C    3.4138787799    2.3142205523   -0.1105804987
 N    2.5216770036    1.3540734849   -0.1466101884
 H   -0.8793311253    1.8642865135    0.1215932588
 H    0.5575420895    5.2363709189   -0.5394802611
 H    0.6711524281    5.0643429120    1.2293936802
 H    3.0410380858    5.5458812516   -0.6742800620
 H    3.1553234681    5.3727876040    1.1052490453
 H    4.4831005374    2.1957604208   -0.1907680974