16

 O    0.1419076744    0.6262743747    1.2811862444
 C   -0.0219684934   -0.0412477176    0.0390593714
 C   -1.2652678582   -0.9093509935    0.1601085212
 C   -1.5583390950   -1.6909523409   -1.1021907583
 O   -0.9139224139   -1.5708951763   -2.1216763148
 C   -2.7243093722   -2.6443528462   -1.0787201472
 C   -2.8416208987   -3.6907569426   -0.0412463387
 O   -3.6627395229   -2.5340077084   -0.0071813182
 H    0.9113797604    1.1986660025    1.2123665518
 H   -0.1464617706    0.6662137695   -0.7926053364
 H    0.8469239564   -0.6704166654   -0.2031973103
 H   -1.1647218198   -1.5924220282    1.0127294467
 H   -2.1426424996   -0.2946306765    0.3969399385
 H   -3.1446790222   -2.8456443803   -2.0627343850
 H   -3.3432123315   -4.6221701939   -0.2981882740
 H   -2.0916908433   -3.7625009269    0.7443844390