14

 C   -0.0477832679    1.4250231726    0.1836658900
 N   -0.0141790964   -0.0315766338    0.0291964486
 C   -1.2302118178   -0.6849035629    0.0204658424
 N   -2.3345791520   -0.0875667779    0.1375222709
 O   -1.1579306433   -2.0646409841   -0.1275302880
 C    0.0529602348   -2.6472682324   -0.2487475591
 N    1.1862259263   -2.0819367802   -0.2458995028
 C    1.2270255500   -0.6796447269   -0.1009120723
 O    2.2654831855   -0.0702073406   -0.0888557478
 H    0.9820354682    1.7728769038    0.1689837515
 H   -0.6209199606    1.8708625275   -0.6319716739
 H   -0.5334758304    1.6864222806    1.1261714250
 H   -3.1091789780   -0.7460022774    0.1067775328
 H   -0.0521360882   -3.7236247583   -0.3563122073