15

 N   -0.0747556853    1.2388052524    0.2846776953
 C   -0.0328077866    0.0104770358    0.0095399762
 O    1.1138436043   -0.7058597107   -0.2414308792
 C    0.8226693611   -1.9554984517   -0.8779252579
 C   -0.6690532414   -2.2037656550   -0.6525510638
 C   -1.1266562597   -2.1362173113    0.7858422069
 C   -1.2080730670   -0.8987844875   -0.0721073222
 C   -1.3897224819   -2.9827605869   -1.6140435770
 N   -1.9575451563   -3.6219747060   -2.3931040078
 H    0.8590894415    1.6506284318    0.2540555449
 H    1.0451710003   -1.8838431369   -1.9480868975
 H    1.4588828889   -2.7234212229   -0.4294440589
 H   -2.0638178455   -2.6239577491    1.0236716026
 H   -0.3643595833   -2.1876618172    1.5560756393
 H   -2.1689921289   -0.4872592948   -0.3451371709