23

 C   -0.0251791971    1.5723874425   -0.0171636865
 C   -0.0100005448    0.0426511949   -0.0080336689
 C    0.7267348714   -0.5301035666    1.2200460080
 C    0.7552682497   -1.9887999540    1.2500613364
 C    0.7741035559   -3.1938712587    1.2449845647
 C    0.7846875039   -4.6557854246    1.2710186252
 C    1.5713755841   -5.2028752927    2.4778336687
 C   -0.6554686329   -5.1941877122    1.2473949344
 O   -0.5865168810   -6.6070237010    1.1310318858
 H    0.9919351188    1.9797846581   -0.0345694048
 H   -0.5526186766    1.9578768860   -0.8948733631
 H   -0.5250001035    1.9704613099    0.8731075349
 H   -1.0348837598   -0.3451046772   -0.0179587783
 H    0.4709293525   -0.3358770182   -0.9169028460
 H    1.7547257464   -0.1425561386    1.2366872279
 H    0.2507290567   -0.1510042553    2.1348799909
 H    1.2666960317   -5.0233982584    0.3543986337
 H    1.5419164871   -6.2943874507    2.4744181685
 H    2.6125904194   -4.8725546310    2.4427122672
 H    1.1337531477   -4.8431025165    3.4146662705
 H   -1.1703191155   -4.8879962568    2.1713930847
 H   -1.1949777334   -4.7468657341    0.3998966409
 H   -1.4806433607   -6.9571085650    1.1730975854