18

 O   -0.0247682578   -0.0382926939   -0.1817789031
 C   -0.0250992636    1.1562408139   -0.0288421380
 C   -1.2477462697    2.0943341029    0.0798550785
 N   -0.6908745089    3.3717848677    0.5698366910
 C   -0.0662363205    3.0764849096    1.9122206329
 C    1.3809716400    2.8215029249    1.4716148282
 C    1.6269839182    4.1267940263    0.6620961191
 C    0.5630778794    3.5110246906   -0.2548723416
 C    1.1543811367    2.1001294700    0.0718019598
 H   -1.6841593448    2.2375515333   -0.9172527183
 H   -2.0278353799    1.7004587929    0.7349140505
 H   -0.1506796543    3.9412454343    2.5764396770
 H   -0.5525191656    2.2250963228    2.3953561622
 H    2.0918040448    2.4354311614    2.2011072483
 H    1.4100163931    5.0826027376    1.1467942942
 H    2.6059151627    4.1548955723    0.1798660179
 H    0.3644633719    3.8549206301   -1.2698644761
 H    2.0702987483    1.7742313535   -0.4170920825