19

 C   -0.2926894195    1.3679570524   -0.1143680605
 O    0.1407198248    0.0300789753    0.0868110562
 C    0.7314166837   -0.5180745342   -1.0260798062
 C   -0.0167572673   -1.0420062392   -2.2211119650
 C    0.8350038247   -1.9809601554   -1.3824969354
 C    2.3667283440   -1.7763310394   -1.6571443561
 C    3.4364816715   -2.8013588356   -1.4837879234
 O    2.5238327134   -0.7697579109   -2.6785573422
 C    2.2670889022   -0.3576477652   -1.3267752604
 H    0.5442018593    2.0304643642   -0.3758602503
 H   -1.0459657519    1.4268328008   -0.9112773174
 H   -0.7323318267    1.7043594504    0.8269829349
 H   -1.0817626486   -1.1588896450   -2.0442080936
 H    0.2714076608   -0.7886103205   -3.2334673234
 H    0.4257957745   -2.8338650510   -0.8576949410
 H    3.3547614999   -3.5825650378   -2.2482104811
 H    4.4231411698   -2.3384580302   -1.5682472274
 H    3.3546327777   -3.2813693928   -0.5031022783
 H    2.9594327378    0.3313939640   -0.8555665296