19

 C   -0.0250521020    1.4692306937    0.0417937951
 C   -0.0318414509   -0.0298213530    0.0002672104
 C   -1.2227748594   -0.9530132337   -0.2566072774
 C   -0.3157608397   -2.1009801210    0.2583906907
 C    0.5755740503   -1.0097671271    0.9762881431
 C    1.2263555993   -0.8329225069   -0.3817521686
 C    0.7835123420   -2.2228537939   -0.8540128838
 C    1.7989376274   -3.2759670141   -0.5143479146
 O    2.1898141090   -4.1279703992   -1.2727401879
 H    0.9406019624    1.8513593287    0.3896343418
 H   -0.2117625229    1.8955604387   -0.9507340296
 H   -0.7969099294    1.8504948704    0.7196495773
 H   -2.0368253406   -0.7456707337    0.4448331321
 H   -1.6240912072   -1.0388128731   -1.2734617055
 H   -0.7378587259   -2.9952917324    0.7115249421
 H    0.9556272576   -0.8958416247    1.9810052834
 H    2.1553715148   -0.3271649470   -0.6137145482
 H    0.4456338436   -2.3572921618   -1.8860752852
 H    2.1824591216   -3.2175047000    0.5313437648