15

 C   -0.0062781237   -1.1098435807   -0.0779933084
 C   -0.0132318306    0.0907480573   -0.0188798019
 C   -0.0020715731    1.5192359610    0.0566313358
 C   -0.6568700479    2.4440213108    1.1292223206
 C   -0.0491273019    3.3546103108    0.0265197572
 C    1.2336602295    2.4758965223    0.0575518648
 N   -0.6911538298    2.4145265752   -0.9864103598
 C   -0.1340683011    4.7889383683   -0.0893934210
 N   -0.1816064003    5.9406974614   -0.1748973335
 H   -0.0071085448   -2.1708545765   -0.1316806467
 H   -1.7448915409    2.4195404181    1.1610844503
 H   -0.1849120620    2.4743690655    2.1107306418
 H    1.8539328202    2.5084926198    0.9569572873
 H    1.8313754089    2.4792779225   -0.8569357491
 H   -0.1265169726    2.4156147844   -1.8432039273