21

 C    0.0076452147    1.5308874740   -0.2224740042
 C    0.0111369771    0.0310850629   -0.0167313397
 C    1.2915244259   -0.7651715474   -0.0713298356
 C    0.5494865842   -0.6316043960    1.2356352465
 C    1.1243684637    0.1481203538    2.3980836966
 C    2.0346721499   -0.7162346466    3.2993434107
 O    3.1434105139   -1.2659989315    2.5945491307
 C    2.4708943970    0.0389942579    4.4791269272
 C    2.8533075610    0.6940826865    5.4121527172
 H    0.9184192155    2.0004621384    0.1602311472
 H   -0.0575011137    1.7730301760   -1.2890607296
 H   -0.8451150891    2.0046047020    0.2772494609
 H   -0.8599563241   -0.4629539133   -0.4406116547
 H    1.3018047179   -1.7265717891   -0.5727190612
 H    2.2188937504   -0.2093525431   -0.1705425035
 H    0.0011435501   -1.5176427968    1.5501625594
 H    1.7074420134    1.0083607709    2.0499097271
 H    0.3200023893    0.5533930242    3.0251031881
 H    1.4611849450   -1.5912028106    3.6312372448
 H    3.7627505008   -0.5474105766    2.4251310471
 H    3.1872067672    1.2538900344    6.2506995250