19

 C   -0.2486423350    1.3206191754   -0.2311173506
 C    1.1869103604    0.8770190395    0.0057961403
 C    0.0825456200   -0.1204442082    0.0575637735
 C   -0.3939568637   -0.8470336193    1.3067705524
 C   -1.4183107955   -1.8262718968    0.7401383716
 O   -2.6940520378   -1.2187419366    0.4350582668
 C   -2.4828830057   -1.3575958886   -0.9881278452
 C   -1.0628167796   -1.9237668056   -0.7666315753
 O    0.0205715529   -1.0512103715   -1.0103701186
 H   -0.7486047819    1.9029925349    0.5355376982
 H   -0.5228505683    1.5705023288   -1.2496384624
 H    1.8432848292    0.8358593224   -0.8561778603
 H    1.6736701086    1.1546765530    0.9347035436
 H    0.4293469639   -1.4032409539    1.7706327909
 H   -0.8345870064   -0.1819423047    2.0523162975
 H   -1.5347879309   -2.7446612236    1.3233331505
 H   -3.1950047709   -2.0615800008   -1.4370082654
 H   -2.5279436331   -0.3996565742   -1.5168704707
 H   -0.8356075462   -2.8884949802   -1.2211801670