21

 C   -0.2228592956    1.4848591849    0.5607019184
 C    0.3463670686    0.0860838732    0.4756622203
 C    0.5095079245   -0.6672532589   -0.8070670808
 C    0.1079706422   -0.1218842793   -2.1596942863
 N    1.6853981689   -0.1914621617   -0.0589973890
 C    2.5178241974    0.8856514890   -0.5804029182
 C    3.8935252274    0.3915196658   -1.0546775550
 N    4.2101675249   -0.8575465785   -0.6348084656
 O    4.6172776259    1.1003167120   -1.7279101728
 H    0.2108309741    2.0245930197    1.4097929634
 H   -0.0428608817    2.0800922566   -0.3362133573
 H   -1.3050982742    1.4378207212    0.7212784767
 H    0.1276508604   -0.5082729193    1.3633628458
 H    0.4033981786   -1.7505585084   -0.7487262590
 H    0.0639459871    0.9676984602   -2.2001294938
 H    0.8043509618   -0.4576024883   -2.9361065561
 H   -0.8854258229   -0.5000374007   -2.4225504229
 H    2.0933837193    1.4519757168   -1.4168800760
 H    2.7080611626    1.6068597574    0.2235317620
 H    3.5464561934   -1.3593016550   -0.0664981900
 H    5.1095222873   -1.2430901168   -0.8659363640