15

 O    0.1967376918   -0.1901414377    0.5616278891
 C    0.1114589036    0.9845270206    0.3160305637
 C    1.2976510910    1.8655941981   -0.0443526338
 C    1.5211000877    3.0317395069    0.9817807153
 N    2.6556938277    2.6078882796    1.8111708826
 C    3.1426131164    1.5687319367    1.2381591202
 N    2.5660207857    1.1532075700    0.0501640787
 C    4.2961476188    0.8251816873    1.8119916789
 O    4.7193198062   -0.1958787862    1.3291224509
 H   -0.8664894888    1.5171503414    0.3308178633
 H    1.1144416433    2.2602821691   -1.0520238656
 H    1.7766773019    3.9646240097    0.4662550300
 H    0.6407070131    3.2358642597    1.6006962380
 H    2.5510577896    0.1538369470   -0.1147224763
 H    4.7106562721    1.2855779279    2.7285330652