19

 C    0.0049251376    1.4966288854   -0.4526393951
 N   -0.1443404217    0.0567551353   -0.5398012359
 C    0.8855971033   -0.7700603107   -0.8655242432
 O    2.0166466444   -0.3821080600   -1.0979912655
 C    0.5378888555   -2.2705407400   -0.8802051305
 N    0.9834236172   -2.8970700222   -2.1063934074
 C    2.2186919478   -3.1403157649   -2.1908813236
 O    2.7257235512   -3.6649356396   -3.3200546918
 C    4.1316574913   -3.8853874380   -3.3130275520
 H    1.0611149352    1.7222327349   -0.6031447592
 H   -0.5810690835    2.0080370675   -1.2246875667
 H   -0.3079905615    1.8681659638    0.5291166872
 H   -1.0610792582   -0.3422251459   -0.4274606574
 H    1.0161302198   -2.6933566093    0.0183910370
 H   -0.5405107271   -2.4272762084   -0.7740327033
 H    2.9549176321   -2.9588237794   -1.3971399617
 H    4.4240096014   -4.5929957040   -2.5275462679
 H    4.3804270788   -4.3104655957   -4.2860758805
 H    4.6814416566   -2.9466830588   -3.1781609725