18

 C   -0.1188610162    1.5147746316   -0.0422446123
 C   -0.0556481633    0.0152254930    0.1109341720
 N    1.2840531437   -0.6164211267   -0.0796621725
 C    0.6366721407   -0.6474446629    1.2270805860
 C    1.3275893354   -0.1749183964    2.4883655515
 C    0.4675404921   -0.7774207675    3.6148825615
 O   -0.6589858577   -1.4312436572    3.0209718644
 C    0.2722436969   -1.9167043433    2.0096996613
 C    1.4979311528   -1.6248139676    2.9612374443
 H    0.7667154224    1.9837003645    0.3946906347
 H   -0.1637666794    1.7994987067   -1.0988202246
 H   -1.0068031045    1.9168926184    0.4571500425
 H   -0.9069075032   -0.5248871424   -0.3033806596
 H    1.1856587887   -1.5142162922   -0.5501365974
 H    2.0006064402    0.6599287282    2.6281008002
 H    0.3736253855   -0.3692242187    4.6124569292
 H   -0.0307574411   -2.8497701241    1.5360460984
 H    2.3510715770   -2.1924487936    3.3036373203