17

 O   -0.1368963813    1.3367181412   -0.0132748203
 C   -0.0570438597   -0.0287729938   -0.0112311118
 C    0.8825292317   -0.9986821101   -0.8334553524
 O    1.9475508440   -0.9933380442    0.1637484999
 C    0.7230473574   -1.0053314212    0.9569489898
 C   -0.0538394441   -1.9460129077   -0.0180649213
 C   -1.2342122238   -0.9779661654   -0.1196191583
 C   -2.5775974360   -0.9564821503    0.5265632505
 C   -2.4422120914   -0.9508375532   -0.9929499446
 H    0.7580776670    1.6895746512    0.0677501311
 H    1.1453102132   -1.0148996632   -1.8905162840
 H    0.7948749684   -1.0295123198    2.0436645036
 H   -0.0324986860   -3.0324417296   -0.0201982937
 H   -2.9442590903   -1.8625351191    0.9984589819
 H   -2.9026777277   -0.0385454592    1.0057268307
 H   -2.6780598035   -0.0291773100   -1.5152532362
 H   -2.7190781978   -1.8531456254   -1.5289005149