21

 C   -0.0771326876    1.5975423514   -0.0013685383
 C   -0.0111912729    0.0726901453    0.0106573782
 C    1.0704228764   -0.6056873156   -0.8866928641
 C    2.0854841244   -0.2979618242    0.2718265059
 C    0.8185301005   -0.6017631484    1.1459237581
 C    0.6878624262   -2.1154906279    0.8578909540
 O    1.4346558201   -2.9861695171    1.6539651430
 C   -0.4200453632   -2.6521982633   -0.0152009535
 C    0.8603894414   -2.1161790178   -0.6400443144
 H    0.8950418767    2.0819241959    0.1136795162
 H   -0.5103548133    1.9485102039   -0.9447287329
 H   -0.7226049834    1.9565570050    0.8081494602
 H   -1.0314878752   -0.2943229349   -0.1148733482
 H    1.2401389553   -0.2805117372   -1.9145784958
 H    2.9309813848   -0.9799912430    0.3871666558
 H    2.4304686673    0.7357072604    0.3124785338
 H    0.7315169236   -0.2868276430    2.1879670458
 H    0.9339022586   -3.1534746129    2.4596981147
 H   -0.4767075515   -3.7365955839   -0.0149892202
 H   -1.3826075621   -2.1682435834   -0.1305220117
 H    1.5294788536   -2.8202595595   -1.1212451366