15

 C   -0.0088583387    1.4696657374    0.0546627461
 C   -0.0414030629   -0.0453552583    0.0298377675
 O   -0.0784211977   -0.7294715744    1.0326735544
 C   -0.0247831373   -0.6532832643   -1.3084801819
 N    0.0279464498   -0.0737376158   -2.4715744533
 C    0.0278196043   -1.0900906976   -3.3957757712
 C   -0.0291079506   -2.2857786083   -2.7212817994
 N   -0.1237330440   -3.6001635765   -3.0982229167
 O   -0.0622985268   -2.0287108882   -1.4013205039
 H    0.8831098048    1.8432766499   -0.4570178508
 H   -0.8711199465    1.8800189938   -0.4795736631
 H   -0.0159944757    1.8040495868    1.0924384170
 H    0.0659333441   -0.9128791544   -4.4581306456
 H    0.2219746250   -3.8023806757   -4.0239929186
 H    0.1970285122   -4.2600419043   -2.4037625204