19

 C    0.0417352635    1.6613579998   -0.3901658591
 C   -0.0295775869    0.1940907293    0.0574986359
 C    0.7002496450   -0.7466381679   -0.9083040697
 O    1.9830438456   -0.2888447636   -1.3063929483
 C    3.0571140979   -0.4194070535   -0.4508194382
 N    4.2360147335   -0.4714892786   -0.9361929184
 C    2.8578123673   -0.4415082166    0.9905066747
 C    1.7621393759   -0.2224144602    1.7531982779
 N    0.4563445842   -0.0125319270    1.4139344268
 H    1.0747934372    2.0144492646   -0.3997667001
 H   -0.3683389681    1.7764927082   -1.3988039920
 H   -0.5377071258    2.2962066972    0.2870443511
 H   -1.0809222538   -0.1237708302    0.0546524038
 H    0.7615904554   -1.7516978277   -0.4741429990
 H    0.1248271226   -0.8071080335   -1.8361134775
 H    4.1824739354   -0.4507170268   -1.9559944625
 H    3.7830263776   -0.6127060436    1.5251339024
 H    1.9047293115   -0.2479971758    2.8303389208
 H   -0.1452753481    0.3078003758    2.1543634113