19

 C    0.0485878108    1.4125633696    0.0090914610
 C    1.3805331478    0.6915669364    0.0250579911
 C    2.0392605202    0.4246030087    1.3780222347
 C    1.0272191234   -0.4751007082    2.0727602524
 C   -0.0179235546   -0.7773761838    1.2939100656
 C    0.0694593255   -0.1013959176   -0.0316450211
 C   -0.0128133745   -0.7867799619   -1.3951640212
 C    1.2467640266   -0.2960253402   -2.0944344956
 C    2.0068968602    0.4771088077   -1.3103661456
 H   -0.2986479718    1.8726286575    0.9290853894
 H   -0.2069840155    1.9483823347   -0.8998653912
 H    3.0089231437   -0.0783750288    1.2650630680
 H    2.2309599308    1.3412708716    1.9503739537
 H    1.1519354842   -0.7996996598    3.1007244434
 H   -0.8480271864   -1.4124310724    1.5849290477
 H   -0.0158067582   -1.8808132951   -1.2999039954
 H   -0.9194169801   -0.5223723038   -1.9544256825
 H    1.4663965842   -0.5403155997   -3.1287037192
 H    2.9516086638    0.9228219150   -1.6034848055