17

 C   -0.1743184606    1.5330558091   -0.0604514864
 C    0.0352168133    0.0340372118    0.0562800000
 O    0.7016333903   -0.4605234861   -1.1528123148
 C    1.8136858577   -1.2174396987   -0.7258042879
 O    2.8300456005   -0.3762819778   -0.2182990069
 C    2.3432794716    0.1290544764    1.0584300465
 C    0.9445945845   -0.4984090545    1.1942277919
 C    1.2717674315   -1.8597944003    0.5572702065
 O    1.1378417695   -2.9884228010    0.9260132117
 H    0.7702228645    2.0694580382   -0.1763287642
 H   -0.7867290692    1.7432519949   -0.9419171525
 H   -0.6985382678    1.9183140221    0.8201849896
 H   -0.9431552376   -0.4599839679    0.1273027715
 H    2.1980698921   -1.8292903808   -1.5370662907
 H    3.0129165027   -0.2003121935    1.8609583790
 H    2.3419707071    1.2220279968    1.0306597217
 H    0.5091620098   -0.5082491187    2.1902821148