21

 C   -0.2067120662    1.4049194002    0.2129537985
 C   -0.0569684418   -0.1094512799    0.0328327332
 C    0.8790060020   -0.6942661385    1.0778452105
 O    0.3608898067   -0.5347655482    2.4262246649
 C    0.4626731475   -1.9416579369    2.7220008280
 C   -0.8685090377   -2.5360469903    3.1462510667
 C    1.0052655928   -2.2254311050    1.2873166537
 C    0.2649464922   -3.2190598044    0.4323380431
 O   -0.1585526084   -3.0263417152   -0.6790491204
 H    0.7540291066    1.9175609685    0.0887736914
 H   -0.9036150569    1.8197515682   -0.5209722981
 H   -0.5839578111    1.6380156003    1.2127837668
 H   -1.0346598300   -0.5953945002    0.1051666845
 H    0.3346326977   -0.3474052444   -0.9617123535
 H    1.8625226289   -0.2091210433    0.9963727914
 H    1.2141412002   -2.1186046240    3.5033860084
 H   -1.6233920104   -2.4297767333    2.3609045533
 H   -0.7664621073   -3.5973131743    3.3971296292
 H   -1.2300357587   -2.0108558149    4.0356732250
 H    2.0454989746   -2.5731089372    1.3099641884
 H    0.1559713391   -4.2195118472    0.9140594051