23

 C   -0.0638448762    1.6361245041    0.0507649447
 C    0.0103372565    0.1083360765    0.1686885491
 C   -1.3602929506   -0.5531035835    0.0648552240
 C   -2.0174619665   -0.6914246646   -1.3546405413
 C   -1.1640821408   -1.9833094318   -1.5419315974
 C   -1.4588366127   -2.1105964157   -0.0232547779
 C   -0.7825579454   -3.0709477646    0.9129516668
 O   -2.8912182465   -2.3175378711   -0.0089329676
 C   -3.3535483658   -1.3244215133   -0.9524750585
 H    0.9260386465    2.0901969877    0.1588267853
 H   -0.4660870260    1.9417155822   -0.9209517644
 H   -0.7124575693    2.0607747369    0.8248002253
 H    0.6982950704   -0.2775139580   -0.5915771699
 H    0.4532737842   -0.1552233804    1.1383808589
 H   -2.0226965009   -0.1333203459    0.8322238058
 H   -2.0369830576    0.1179204232   -2.0841837433
 H   -1.5614101135   -2.7727163945   -2.1854086277
 H   -0.1190036228   -1.7886737578   -1.7796888405
 H    0.2989242259   -2.9071693312    0.9208298838
 H   -1.1615982410   -2.9437446688    1.9320013431
 H   -0.9743800945   -4.1041491531    0.6069413259
 H   -4.0389102857   -0.6241160769   -0.4597310356
 H   -3.8781936477   -1.8100073992   -1.7844897886