17

 C    1.1373898828   -0.3379425994   -0.2552809638
 N   -0.0301687975   -0.1609653707    0.6133034693
 C   -0.2312446979    1.2341303008    1.0105754312
 C   -1.1904811774   -0.7897031149    0.1448270163
 C   -2.1450700620   -0.5182946667   -0.8186883800
 O   -2.1959698893    0.5506484470   -1.6412021559
 N   -3.0727844884   -1.4983560338   -0.8370890649
 N   -2.7575809827   -2.3992262400    0.0690349414
 N   -1.6400785536   -1.9741217749    0.6567737848
 H    2.0309866881    0.0129611979    0.2708199500
 H    1.2677115395   -1.3984462691   -0.4837816187
 H    1.0534525002    0.2150303335   -1.2046811000
 H   -0.4461725145    1.8981004032    0.1590021999
 H   -1.0628918216    1.2958192946    1.7164831443
 H    0.6733917307    1.5941009627    1.5107669393
 H   -2.9956860608    0.4519021779   -2.1737992467
 H   -1.2199847757   -2.5085823182    1.4017528437