18

 C   -0.2024836400    1.4432942189   -0.0621053521
 C    0.0797087862   -0.0320840400    0.0281870090
 O    1.1486630870   -0.5429230654    0.2212365477
 O   -1.0864809721   -0.7361447979   -0.1453888372
 C   -1.0246581954   -2.1094821067   -0.0947205279
 N   -2.0890965970   -2.7566908652   -0.2530321071
 C   -2.0212736747   -4.1751040759   -0.2000350898
 C   -3.2162451537   -4.8952026401    0.3841122062
 C   -2.9693928267   -4.9387608183   -1.0976012409
 H    0.7237114007    1.9993378694    0.0755530913
 H   -0.6434268345    1.6786264651   -1.0349456018
 H   -0.9320152942    1.7296029038    0.7008107421
 H   -0.0220689193   -2.5004738107    0.0838045111
 H   -1.0408251898   -4.6208433129   -0.0235894250
 H   -3.0268526585   -5.7854624730    0.9730259367
 H   -4.0254363846   -4.2703507990    0.7421626248
 H   -3.6129823575   -4.3431298137   -1.7335623895
 H   -2.6079333459   -5.8593826383   -1.5415088575