22

 C    0.0773962628    1.5367793178   -0.0559512037
 C   -0.0396439677    0.0180311156    0.1179498617
 C   -1.4775462023   -0.5300882455    0.0541960321
 C   -2.3786387345    0.0847950278    1.1225254719
 C   -2.0435921222   -0.5458520548   -1.4062561232
 C   -1.5980409985   -2.0260756735   -1.5500090664
 C   -1.4911037321   -2.0903235808   -0.0052808470
 O   -0.3777520783   -2.7194655824    0.5888399317
 H    1.1292406571    1.8383429201   -0.0840115817
 H   -0.3859621568    1.8766773106   -0.9888086193
 H   -0.3958968996    2.0819893217    0.7661616048
 H    0.5666947370   -0.4778680762   -0.6482831451
 H    0.4019439471   -0.2775787780    1.0762734925
 H   -2.5093043620    1.1616092695    0.9746426382
 H   -3.3748612106   -0.3702218968    1.1015675878
 H   -1.9623133296   -0.0663435379    2.1256189208
 H   -3.1314211215   -0.4339586084   -1.4263304932
 H   -1.6122774518    0.1700881113   -2.1095921342
 H   -2.2835445484   -2.7214360522   -2.0411103017
 H   -0.6114746162   -2.1170781347   -2.0118368482
 H   -2.4287328716   -2.4696630196    0.4289853198
 H   -0.4701536402   -3.6700047432    0.4717379924