17

 C    0.0893922594    1.4454272999    0.2523631446
 N    0.0198171594   -0.0033239607    0.2030434901
 C    0.9570651679   -0.8020550170    0.7792089878
 O    1.9177549747   -0.3848678548    1.4040297482
 C    0.7221526100   -2.2804198280    0.5761473337
 C    1.9341012727   -3.1247422001    0.2433357415
 N    1.2947546053   -3.2106116710    1.5235187869
 C    1.9143465628   -2.8789343970    2.7312748402
 O    3.0086522097   -3.2632481969    3.0477835414
 H    0.2031168357    1.8731392941   -0.7496719733
 H   -0.8090185151    1.8666546412    0.7153827604
 H    0.9599688988    1.7091187684    0.8533947041
 H   -0.7389322334   -0.4338519578   -0.2992676965
 H   -0.2446365033   -2.5726653682    0.1692247093
 H    1.8187046299   -3.9780955225   -0.4188121890
 H    2.8883346655   -2.6062887881    0.2078273052
 H    1.2378733299   -2.3177071315    3.3991670953