25

 C    0.0407600976    1.5825371089    0.0231641745
 C    0.0274779370    0.0535893023    0.0296896474
 O    0.7573672156   -0.4601700497    1.1441675015
 C   -1.3941852300   -0.5214203434   -0.0254094179
 C   -1.4286771622   -2.0491810072   -0.1200018363
 C   -2.8440132612   -2.6315612053   -0.0770145304
 C   -2.8826749869   -4.1534207574   -0.2700080096
 C   -4.2929622735   -4.7259280482   -0.1243108704
 O   -2.2997833814   -4.5383777692   -1.5153164905
 H    1.0670703968    1.9537702008    0.0892591505
 H   -0.4160854243    1.9808224006   -0.8887084311
 H   -0.5224048792    1.9802671968    0.8773689078
 H    0.5857267054   -0.3104608682   -0.8425607869
 H    0.3308913917   -0.1318249522    1.9439339890
 H   -1.9399188713   -0.1872815838    0.8712587658
 H   -1.9225757109   -0.0799764474   -0.8814003304
 H   -0.9423730669   -2.3737667285   -1.0472089647
 H   -0.8316887198   -2.4662599315    0.6992721585
 H   -3.3237195380   -2.3828743756    0.8794514919
 H   -3.4667088359   -2.1657081549   -0.8572179943
 H   -2.2311724258   -4.6176590744    0.4816710271
 H   -4.9749564679   -4.2711206977   -0.8544093590
 H   -4.2837954069   -5.8060822114   -0.2936575343
 H   -4.6999557713   -4.5328587891    0.8736527872
 H   -2.8620147509   -4.1898209245   -2.2165455353