20

 O    0.4054673642    1.0782041900   -0.6273929933
 C    0.0597576296   -0.1150992096    0.0357478281
 C   -0.1270236989   -0.1304433205    1.5732748755
 C   -1.3012686735   -1.1298801840    1.3747766986
 C   -1.3732616948   -0.7236068703   -0.1257536694
 C   -2.4354734478    0.3114653385   -0.4412268559
 O   -3.7124225839   -0.3246562611   -0.3450159243
 C   -4.7605864704    0.3512238978   -0.8501878359
 N   -5.9320387099   -0.0966831809   -0.7071404257
 H   -0.0404115338    1.8097582279   -0.1889501919
 H    0.8069796956   -0.8509237062   -0.2748733381
 H    0.7232822227   -0.4368924765    2.1861021669
 H   -0.4793083992    0.8410665280    1.9393952983
 H   -0.9887100780   -2.1684929073    1.5019164240
 H   -2.2053651970   -0.9663953732    1.9635104252
 H   -1.4647506911   -1.5425196965   -0.8440021899
 H   -2.3997195274    1.1526113882    0.2676101316
 H   -2.2845389181    0.7153300245   -1.4507483518
 H   -4.4757285459    1.2736635552   -1.3767669772
 H   -6.5974265025    0.5223091559   -1.1655913248