23

 C    0.4036057063    1.3025036572    0.3914518781
 C   -0.1241607388   -0.0414442538   -0.1285331730
 C    0.5899152215   -0.5398939102   -1.3797707173
 C    0.4174335053    0.3310454016   -2.6125822200
 C    1.9192558080   -1.2441649876   -1.2075308295
 C    0.7027383827   -2.0339677180   -1.6270759915
 C    0.1085387172   -3.0688126830   -0.7216701028
 C    0.9033943761   -4.1941435921   -0.2057676473
 O    0.5393494891   -3.1033630251    0.6423967980
 H    1.4761634454    1.2453955318    0.6060127306
 H    0.2509508581    2.1117450255   -0.3294787373
 H   -0.1076604034    1.5868437836    1.3164284086
 H   -0.0299057797   -0.7887900857    0.6633542501
 H   -1.1980946173    0.0504238770   -0.3432013671
 H    0.8343581379    1.3325120038   -2.4620002085
 H    0.9219953063   -0.1047457985   -3.4808142392
 H   -0.6429703699    0.4483000293   -2.8672263740
 H    2.7039649645   -1.0729867310   -1.9370951299
 H    2.2666986609   -1.4064695540   -0.1926176918
 H    0.6527214022   -2.3314823844   -2.6730589247
 H   -0.9645072364   -3.2335203925   -0.8384939495
 H    0.4215745582   -5.1431704227    0.0244402111
 H    1.9610719060   -4.2514335711   -0.4575948932