16

 O    0.0037336231    0.0343564018   -0.0604455695
 C    0.0256825647    1.2342116079    0.0334110258
 N   -1.0524761223    2.1132119783    0.1680187786
 C   -0.4234370198    3.4404169093    0.0119646363
 C    0.6388948343    3.2106300812   -1.1010248118
 C    1.2044471037    2.2208454320   -0.0195792587
 C    0.7389832601    3.2848346978    1.0556416410
 C    1.6124683575    4.4237695169    1.2388663041
 C    2.3369189985    5.3678662513    1.4128172343
 H   -1.9352153904    1.8920617662   -0.2688518770
 H   -1.1208859663    4.2747964519    0.0364660477
 H    0.2908240912    2.7857890774   -2.0453113236
 H    1.2933757475    4.0661330787   -1.2705079202
 H    2.2051856576    1.7994731865   -0.0408922958
 H    0.4211478175    2.8735822358    2.0175297977
 H    2.9776507231    6.2003026671    1.5693573509