18

 C    0.3190285277    0.9587191975    0.2408579996
 O   -0.2335688424    0.0438537565   -0.6981715453
 C    0.5667786293   -0.9855004824   -1.0431782617
 N    0.1383708752   -1.8627140623   -1.8385528445
 C    0.9735077228   -2.9642731878   -2.2628370819
 C    2.4703962656   -2.9443799507   -1.9112675021
 O    2.7549593725   -3.0163789212   -0.5199505515
 C    3.2241842052   -4.0457381999   -2.6569125488
 O    3.0134944382   -4.3692033247   -3.7962353749
 H    0.5091263087    0.4773622467    1.2078234266
 H    1.2509661708    1.4028845180   -0.1296867225
 H   -0.4227247045    1.7469499539    0.3743537385
 H    1.5561754118   -0.9688676999   -0.5710157673
 H    0.5333535778   -3.8971756456   -1.8756580200
 H    0.9079962812   -3.0513113467   -3.3533210520
 H    2.9015488161   -1.9902460140   -2.2484389921
 H    2.2037896707   -3.7080246364   -0.1371337457
 H    4.0060216731   -4.5348080210   -2.0313122445