19

 C    0.6228050772    1.7470694455    0.1879611487
 C   -0.1300384994    0.4217900476    0.0217896528
 C    0.3147543721   -0.3137209700   -1.2213973987
 N    1.5482330927   -1.0851395632   -1.1337905358
 C    0.2884001730   -1.8148079976   -1.3712115726
 C   -0.2119718076   -2.7242367092   -0.2824584933
 C   -1.1645383778   -3.8138115789   -0.7439558505
 O    0.0994369922   -2.5925008923    0.8791229281
 H    1.6990625962    1.5677786532    0.2715801068
 H    0.4570381566    2.4153985864   -0.6651333890
 H    0.2960851137    2.2728347563    1.0899593130
 H    0.0399220796   -0.2206039874    0.8882309793
 H   -1.2096898092    0.6090744861   -0.0438764856
 H    0.1322271522    0.2239930298   -2.1537504769
 H    2.0779856595   -1.0356012852   -1.9999092216
 H    0.0972351855   -2.1766577295   -2.3799951883
 H   -0.6523261585   -4.4959237250   -1.4331173386
 H   -1.5327643399   -4.3728700866    0.1165930176
 H   -2.0071672080   -3.3805587501   -1.2953290453