19

 C   -0.1319500630    1.5242510752    0.0356127526
 C    0.0593746848    0.0254185526    0.0558114619
 C    1.3501350683   -0.6830726538   -0.2536286951
 C    2.6291740624    0.0726853849   -0.1368018232
 C    2.8511424425    0.5084667354    1.1058993318
 C    1.7643388711    0.0819995401    2.0668031322
 C    0.7805761420   -0.6924249870    1.1923405816
 C    0.1715461416   -1.9283811055    1.7173940021
 O    0.3526788592   -2.3747969231    2.8255694995
 H    0.7870374520    2.0581806307    0.2855055673
 H   -0.4488042324    1.8514917473   -0.9603851283
 H   -0.9076671865    1.8253053603    0.7475651195
 H   -0.8150693265   -0.5249936844   -0.2892639662
 H    1.3066968567   -1.5727134946   -0.8745163246
 H    3.2765740307    0.2416985035   -0.9896193606
 H    3.6946974509    1.1157168069    1.4146005225
 H    2.1377426269   -0.5682150415    2.8663608428
 H    1.2950795043    0.9412585345    2.5635868655
 H   -0.4956265349   -2.4505243313    0.9910509588