18

 N   -0.5022797238   -1.0431045135    0.4635672965
 C   -0.3323344092    0.0888473754    0.2947398690
 C   -0.1161500483    1.5038918314    0.0811437863
 C   -1.2099496658    2.2369903480   -0.6773580403
 N   -1.4122723963    1.6631309423   -1.9978064217
 C   -2.4655542304    0.6549407592   -2.1203713763
 C   -2.6588880162    2.0253079477   -2.6654250393
 C    0.6880751183    2.2079267745    1.1300996418
 N    1.2659172655    1.9491897640   -0.1884924032
 H   -2.1318381366    2.2412215861   -0.0670657997
 H   -0.8781347692    3.2732825548   -0.7962999202
 H   -2.2412182569   -0.1783333009   -2.7784872883
 H   -3.0258907267    0.3889920243   -1.2259585638
 H   -3.3516011148    2.6770408818   -2.1346628274
 H   -2.5813268288    2.2163230494   -3.7315680473
 H    0.4625419536    3.2504599180    1.3368640622
 H    1.0221596418    1.6282839072    1.9852338367
 H    1.9080525337    1.1613166301   -0.1547292451