15

 C   -0.0110241429    1.4536040449   -0.0208497293
 C    0.0273056967   -0.0468024347    0.0047872893
 N    0.1174741050   -0.6722734257   -1.1774843771
 C    0.1461756224   -2.0054200469   -1.0885917714
 O    0.2332299469   -2.6845589554   -2.2360982581
 N    0.0968920052   -2.7358545990    0.0137352683
 C    0.0106741572   -1.9981000411    1.1307573654
 N   -0.0315096505   -2.6603719257    2.3043641419
 N   -0.0299671186   -0.6506064715    1.1881420794
 H    0.8960762556    1.8412071156   -0.4951913009
 H   -0.8562042141    1.7951835055   -0.6263795485
 H   -0.0959909993    1.8510667971    0.9902789109
 H    0.2588268868   -2.0168175827   -2.9359156863
 H   -0.0654276178   -3.6640172599    2.3013854299
 H   -0.1587296826   -2.1417162704    3.1544449264