17

 O    0.1387545665    1.2047838281   -0.4543145133
 C   -0.0578571582   -0.1419326061   -0.0890716641
 C   -1.5454811024   -0.4920251109    0.1202297781
 C   -2.3658840410   -0.4440388256   -1.2115375659
 C   -2.2394344865   -1.9880800405   -1.3150707416
 C   -1.7966128129   -2.0361661491    0.1727606889
 C   -2.0665610321    0.3007076138    1.2264659322
 N   -2.4536694862    0.9537066002    2.0999606367
 H   -0.1227071256    1.7584653420    0.2906748141
 H    0.3286596882   -0.7439659541   -0.9176666473
 H    0.5072748207   -0.4137019886    0.8152588582
 H   -3.3945670497   -0.1180886232   -1.0474696373
 H   -1.9211413353    0.1681724190   -1.9978608168
 H   -3.1487711022   -2.5350804845   -1.5682442820
 H   -1.4490520617   -2.3032282290   -2.0001518559
 H   -0.9248944518   -2.6444650681    0.4276746289
 H   -2.6128932797   -2.2939822733    0.8496842972