21

 C    0.0746269633    1.6431015753    0.0606023344
 C    0.0760159723    0.1131549911   -0.0092683447
 C   -1.3318008218   -0.4900739195    0.0451959968
 C   -2.1431864740   -0.1524744742   -1.2042505870
 O   -3.3447820274   -0.0968128613   -1.2464865047
 C   -1.3018908406   -2.0347135509    0.1310477020
 O   -0.3525060198   -2.6606794893   -0.2759067509
 C   -2.5341507231   -2.6807893069    0.7354014872
 C   -2.5751579150   -4.1980114428    0.5736536305
 H    1.0946448805    2.0361462809    0.0203671015
 H   -0.4835168723    2.0891103079   -0.7704063624
 H   -0.3837162074    1.9982469437    0.9901232170
 H    0.5674831685   -0.2309795587   -0.9257931627
 H    0.6682195641   -0.3004804476    0.8131298440
 H   -1.9074777644   -0.1153760925    0.8992669853
 H   -1.5243653704    0.0064709537   -2.1159434022
 H   -2.5481538053   -2.3969018335    1.7982618874
 H   -3.4164993047   -2.1915786585    0.3032933531
 H   -2.6072207325   -4.4781087034   -0.4828721827
 H   -1.6848755914   -4.6604100757    1.0065196896
 H   -3.4588587086   -4.6135985778    1.0652177285