20

 C    0.1428159156    1.3790774743   -0.1830478863
 N    0.1012069386   -0.0711430682   -0.0884279285
 C    0.6156143972   -0.6613109794    0.8977001044
 O    1.2491918998   -0.0865582410    1.9535671338
 C    1.8491519958   -1.1107293888    2.7789834363
 C    1.8537572842   -2.3859549240    1.9269609180
 C    0.6292783009   -2.1812987388    1.0177579188
 C   -0.6746764873   -2.6794600914    1.6628542659
 O    0.8019045998   -2.7734706432   -0.2503574990
 H    0.8579475604    1.8440283149    0.5050235540
 H    0.3973458231    1.6633988386   -1.2089954015
 H   -0.8523380841    1.7899750611    0.0256449093
 H    2.8457037318   -0.7645781507    3.0616014525
 H    1.2467580216   -1.2181260728    3.6881995129
 H    2.7461784003   -2.4328806145    1.2973928248
 H    1.8023663639   -3.2935429681    2.5318994362
 H   -0.8206939168   -2.2717678804    2.6692700468
 H   -1.5270471124   -2.3833506391    1.0458735060
 H   -0.6497095356   -3.7709849611    1.7271947933
 H    0.4288761832   -2.1352402075   -0.8779145178