21

 C    0.0256894501    1.5878688869   -0.0447004004
 C    0.0144147324    0.0572373847    0.0173726918
 C    0.6472900828   -0.6255845980   -1.2204338977
 C    1.3136632876   -1.9358192569   -0.7244618922
 O    2.6060688891   -2.1697714199   -1.3119021035
 C    1.4947832716   -1.7848506804    0.7751395290
 C    2.2699069374   -0.5680859106    1.2065306705
 O    3.0256813070    0.1725745370    0.2904283441
 C    0.7622305784   -0.5266981494    1.2149777581
 H    1.0532871829    1.9555510069   -0.1088615430
 H   -0.5298730575    1.9525728460   -0.9158026232
 H   -0.4378247273    2.0211855842    0.8481372156
 H   -1.0279678233   -0.2781438475    0.1024370953
 H   -0.0925018229   -0.8151907012   -2.0046521195
 H    1.4234899892    0.0171980615   -1.6421307877
 H    0.6676829814   -2.8006866821   -0.9302181110
 H    2.4966645715   -2.2162754702   -2.2675188123
 H    1.5417339587   -2.6856570775    1.3764453426
 H    2.7348459762   -0.6332140203    2.1896165951
 H    3.3723504296   -0.4610943013   -0.3530819347
 H    0.2750464052   -0.4764910718    2.1838604531