17

 C    0.0747556440    1.4893725325   -0.0371767767
 C   -0.0381087061   -0.0314304040   -0.0204935338
 C    0.7973011744   -0.7421391004   -1.1290253530
 N    1.7243312255   -1.6285658109   -0.4114124812
 C    1.5123326025   -1.4343832523    0.8188179928
 O    0.5625731929   -0.5409714680    1.2120194908
 C   -1.5207763971   -0.4357231694   -0.0942203703
 N   -2.0397365345   -0.9660724272    1.0389630196
 O   -2.1501096056   -0.2485261684   -1.1185295311
 H    1.1266043025    1.7883331282   -0.0355588263
 H   -0.4071553173    1.8725191186   -0.9398345110
 H   -0.4171687342    1.9296471035    0.8348098049
 H    0.1629961822   -1.3097931311   -1.8138630300
 H    1.3658946786   -0.0230484828   -1.7285312777
 H    2.0327102526   -1.9203509851    1.6368096018
 H   -1.4565999009   -1.1248375301    1.8419126393
 H   -3.0055237094   -1.2489619531    1.0431447619