18

 C    0.1025087402    1.5333640861    0.0704392631
 C   -0.0595014178    0.0605371088   -0.0886037591
 C    0.7016034382   -0.9738606962   -0.8317829800
 N    0.7292282632   -0.9633158487    0.6724636324
 C   -0.5155762880   -1.8060321120    0.9351399940
 C   -0.4816470808   -2.9891985776   -0.0463284299
 C   -0.5208787713   -1.8636804643   -1.1122965034
 O   -0.8229937662   -2.0430734746   -2.4496975708
 C   -1.2780787652   -0.9072634286   -0.0806224984
 H    1.1652583768    1.7909234477    0.1175413542
 H   -0.3449498658    2.0725883241   -0.7717707457
 H   -0.3729111971    1.8876754103    0.9920847156
 H    1.6423934678   -0.9302653692   -1.3675712732
 H   -0.7486481891   -1.9154110046    1.9921565157
 H    0.3716256157   -3.6727755181   -0.0245676707
 H   -1.4236780585   -3.5494265297   -0.0158445423
 H   -1.6360252033   -2.5548141920   -2.5143352365
 H   -2.3441572387   -0.6928851214   -0.1001369050