22

 C    0.0345961458    1.5573005211   -0.0229999774
 C    0.0500242872    0.0264099610    0.0157569232
 C   -1.3516509874   -0.5773493945    0.1002065826
 C   -1.4207833119   -2.1235628603   -0.0009171940
 O   -0.2577364076   -2.6913838990    0.6004951637
 C   -2.7219285301   -2.4655421259    0.7598823991
 C   -2.8978569458   -1.3180408769    1.7445826854
 C   -1.7140340981   -0.9018774142    2.5407615729
 N   -2.0872724337   -0.1637449517    1.3182945366
 H    1.0516961506    1.9587469828   -0.0708433704
 H   -0.5114242907    1.9265451709   -0.8987070572
 H   -0.4553307293    1.9640519651    0.8654844441
 H    0.5421536926   -0.3680586677   -0.8814120519
 H    0.6440768966   -0.3258252119    0.8643988412
 H   -1.9475038651   -0.1845712658   -0.7358252552
 H   -1.4777217094   -2.4367053428   -1.0525302871
 H   -0.3354364807   -3.6489443606    0.5476079300
 H   -3.5688844826   -2.4888744851    0.0643734121
 H   -2.6655621881   -3.4492131897    1.2388750650
 H   -3.8999246918   -1.1018467608    2.1055322707
 H   -1.8583601904   -0.3375705836    3.4579907301
 H   -0.8389831199   -1.5424533102    2.5204102365