17

 O   -0.1936907120    0.1842932903   -0.6139672084
 C    0.0514088417    1.0782703328    0.1657764927
 C    1.2484509533    1.9307818471    0.0962331499
 C    2.1195309759    2.0054357217   -1.1429316512
 C    2.7344759680    1.4309568097    0.0778885548
 C    3.1253598320    2.5256084487    1.0858099533
 C    1.6629718706    3.0074746607    1.0791172158
 C    1.0615905808    4.3120351726    1.3590405010
 O    0.9492539298    3.2124391212    2.2837316739
 H   -0.6194185340    1.3017837105    1.0214276130
 H    1.8270086249    1.2936184844   -1.9076004086
 H    2.4241813384    2.9838414103   -1.5060116266
 H    3.0348134624    0.3926376932    0.1332426021
 H    3.3903554660    2.1301658192    2.0688494225
 H    3.8953943040    3.2302122822    0.7567002007
 H    1.6865486503    5.1360244365    1.7000256279
 H    0.1352247782    4.6015715089    0.8650462473