20

 C    0.1295625682    1.0176836307   -0.4523435738
 C   -0.0207934987   -0.4792739908   -0.2761486954
 O    0.8476090726   -1.2676972820   -0.6129441574
 N   -1.1678691878   -0.8724118563    0.3626719725
 C   -2.5516501615   -0.5148689284    0.2007309744
 C   -2.0975121028   -1.9574092659    0.1709524671
 C   -2.1825433661   -2.7789089387   -1.1010402632
 C   -1.2578484325   -4.0114111447   -1.1389340345
 O    0.0503166601   -3.7477321057   -1.5663376888
 H    1.1850277248    1.2554619161   -0.5844193200
 H   -0.4112464510    1.3357781763   -1.3511352291
 H   -0.2819232562    1.5671986722    0.3974967489
 H   -3.0590516805   -0.1162605127    1.0762862617
 H   -2.8554652699   -0.0742166829   -0.7471854910
 H   -2.2723490176   -2.5349558771    1.0793869645
 H   -3.2233386765   -3.1212768439   -1.1784497527
 H   -1.9796994972   -2.1562518250   -1.9800405966
 H   -1.2853494814   -4.5019389721   -0.1476387225
 H   -1.6738056954   -4.7323598237   -1.8524933497
 H    0.4066645496   -2.9852922152   -1.0772782145