18

 C    0.0174635930    1.5314975285   -0.1203267924
 C   -0.0035192268    0.0187568181    0.0250873892
 C   -1.1366329997   -0.6360580433   -0.5766040393
 N   -2.0457892911   -1.1672483344   -1.0574108012
 C    1.3196041104   -0.7566345534   -0.0142223792
 O    2.4895824426   -0.0249117177   -0.1400300607
 C    0.5542108097   -0.6852439921    1.2788700923
 C    1.1508851147    0.1034924902    2.4312170302
 O    2.5274742113   -0.2364456112    2.6584502571
 H    1.0214180828    1.9124244533    0.0714024320
 H   -0.2500063325    1.8064315466   -1.1439268967
 H   -0.6944825400    2.0131855855    0.5563486402
 H    1.3088179849   -1.6958151761   -0.5638522951
 H    2.9328485436   -0.0583230112    0.7225604524
 H    0.0212639687   -1.5872624813    1.5638144867
 H    1.1581569950    1.1751043678    2.2275838264
 H    0.5620134683   -0.0511493952    3.3435102382
 H    2.5673992451   -1.1609369241    2.9263240700