20

 C    0.0541835261    1.5353916485    0.1519657528
 C   -0.0134169902    0.0056338350   -0.0144450812
 C   -1.4127407661   -0.5373636587   -0.0076459412
 C   -2.1502912409   -0.9916463818   -1.0833007142
 N   -3.4011079485   -1.3428451844   -0.6566737611
 C   -4.4247802472   -1.9617972540   -1.4667451393
 C   -3.4881513625   -1.1376845556    0.7060040442
 C   -2.2774292531   -0.6371567080    1.1232924560
 O   -1.9960511116   -0.2799999010    2.4144558102
 H    1.0906742030    1.8884596733    0.1707804808
 H   -0.4652356468    2.0351967477   -0.6711036985
 H   -0.4300455724    1.8529718180    1.0814592985
 H    0.4813799526   -0.2806272883   -0.9492930928
 H    0.5802081621   -0.4669187620    0.7832203876
 H   -1.8740834672   -1.0935985830   -2.1217582213
 H   -4.4708701251   -3.0468861251   -1.3119481425
 H   -5.4044672706   -1.5361987404   -1.2292417813
 H   -4.2142868337   -1.7700849957   -2.5212295230
 H   -4.3875925375   -1.3582698380    1.2558915445
 H   -1.0510050501   -0.1164034465    2.4830977718