18

 O    0.0118041419    1.3726435556    0.1213601510
 C   -0.0004523291   -0.0245279833    0.0268999256
 C   -0.4757723320   -0.7619666519    1.2536300566
 C   -1.3163545655   -0.7394710479    0.0085764143
 C   -2.7165061098   -0.2070338006   -0.0842535966
 C   -3.2640539747   -0.5966218907   -1.4247763421
 C   -2.2007748284   -1.3737965558   -2.1834783255
 C   -1.8408863777   -1.9282639023   -0.7884892113
 N   -3.2916536507   -1.5861158892   -0.2937953806
 H   -0.2729223799    1.7289113657   -0.7269420037
 H    0.8325858498   -0.4602642861   -0.5273329936
 H    0.0321719029   -1.6802318234    1.5305464204
 H   -0.8001610031   -0.1479790489    2.0873609472
 H   -3.2054567160    0.5138210278    0.5605810020
 H   -4.1826579091   -0.1700000453   -1.8129584468
 H   -2.6584825621   -2.1407396229   -2.8133517642
 H   -1.4283809330   -0.8394104311   -2.7471307387
 H   -1.4460063434   -2.9327905597   -0.6476622641