16

 C    0.1591398133    1.2097346384    0.4161023548
 N   -0.1549723573    0.1562999092   -0.5608716096
 C   -1.2349706360   -0.6689896120   -0.2385390355
 C   -1.3045093148   -1.9665165669    0.1232673238
 O   -0.3046391415   -2.8471512142    0.3940283900
 N   -2.6627590443   -2.3224633413    0.2011068157
 C   -3.4731156417   -1.2159850233   -0.0387066280
 O   -4.6860888145   -1.1502520742   -0.0119405615
 N   -2.5602039461   -0.2074591558   -0.3171134909
 H    0.9981136939    1.8011657176    0.0405625528
 H   -0.7002234681    1.8777184436    0.5211829784
 H    0.4109992753    0.8203791450    1.4134710690
 H    0.6613565109   -0.4174520138   -0.7343653958
 H   -0.2543089394   -3.5066163734   -0.3103752975
 H   -3.0200924694   -3.1602578742    0.6260729427
 H   -2.8423114003    0.6861728454   -0.6793587783