16

 O    0.0366507973   -0.0748614963    0.0546808717
 C    0.0921357040    1.1276924264    0.0796520790
 C    1.3693891258    1.9379449477    0.0443726587
 C    1.4198328019    2.8908358595   -1.1868057531
 C    2.2258663570    4.1317103260   -0.7320959250
 C    1.9926952191    4.1901472568    0.7623309634
 O    0.6169506418    4.0269093225    1.1370520980
 C    1.4902500726    2.8921005763    1.2286035063
 H   -0.8298243369    1.7505590224    0.1291239493
 H    2.2143337462    1.2412963789    0.0537897814
 H    1.8533856335    2.3980852492   -2.0589912781
 H    0.4028636425    3.1921733939   -1.4523223425
 H    3.2989967812    4.0030035704   -0.9175014433
 H    1.9092593551    5.0433087054   -1.2475425270
 H    2.5708149811    4.8547648651    1.3990283316
 H    1.6594082478    2.5083570758    2.2311870297