18

 C   -0.1551928173    1.6357599094    0.0023201324
 C    0.0967748927    0.1342893982    0.0324448388
 C    1.1511424380   -0.5863657367   -0.8361732745
 C    2.6238385352   -0.1297549599   -0.5356262700
 O    2.6675202112    0.8682409673    0.5111080808
 C    2.2595111581   -0.1509737405    1.4535984326
 C    0.7776189658   -0.6081172149    1.2032628761
 N    1.2534976966   -1.6978535163    0.2247577327
 C    2.6887090122   -1.2834429448    0.4920372131
 H    0.7562584510    2.2055772895    0.1751834108
 H   -0.5725378848    1.9300833168   -0.9673258854
 H   -0.8899391156    1.9116099801    0.7672209050
 H   -0.8449283736   -0.3993623189   -0.1457179829
 H    0.9250414681   -0.8766605040   -1.8644225645
 H    3.3076036695    0.0858872180   -1.3569934611
 H    2.6070112731    0.0450852301    2.4682337941
 H    0.2029017792   -0.9187115315    2.0784318776
 H    3.4797519707   -2.0194285922    0.6290657044