21

 C   -0.1120864475    1.2875170131   -0.0365406497
 O    0.0463860353   -0.1305804970   -0.0227055797
 C    0.6040899202   -0.6820211774   -1.1244418824
 C    0.7079679634   -2.1817307230   -0.9641181160
 N    0.9645628952    0.0455806902   -2.0961955412
 C    1.5667088756   -0.5344450235   -3.2800429117
 C    1.0671947096    0.1667178267   -4.5251922284
 C    1.0427559779   -0.5512214040   -5.8213228905
 N   -0.2168763807   -0.2138206214   -5.1317882050
 H    0.8556967058    1.7869680115   -0.1371665296
 H   -0.7464511569    1.6007495725   -0.8703962844
 H   -0.5773097850    1.5407712381    0.9172845379
 H    0.2617696224   -2.4869098157   -0.0178581644
 H    0.1942366910   -2.6993377836   -1.7794697631
 H    1.7545729130   -2.5005496679   -0.9813443030
 H    2.6579546450   -0.4026249864   -3.2204877088
 H    1.3876616574   -1.6174064297   -3.3881926900
 H    1.2390062767    1.2407669724   -4.5243299244
 H    1.2149879293   -0.0151159591   -6.7502987968
 H    1.3702385742   -1.5885236308   -5.8352582411
 H   -0.5844319518   -1.0395869350   -4.6633096378