16

 O   -0.0454506614    1.3891817054   -0.0403616979
 C   -0.0139231603   -0.0240224335    0.0502768225
 C    0.5727376695   -0.4998839800    1.4196939854
 N   -0.6333184324   -0.7116484185    2.1881691799
 N   -0.8628466870   -0.9569939027    3.4949875990
 C   -2.1855466724   -1.1029388597    3.4927299973
 N   -2.8016853555   -0.9748150064    2.2786698542
 C   -1.7765983306   -0.7277460160    1.4842202804
 C   -1.4973815615   -0.4969814916    0.0346917198
 H    0.8597563523    1.7165603499   -0.0560115527
 H    0.5564008898   -0.4567579997   -0.7808787830
 H    1.1485014362   -1.4281217861    1.3295946361
 H    1.2078143013    0.2674132762    1.8707873291
 H   -2.7278202425   -1.3067827651    4.4042961414
 H   -2.1239167615    0.2753228105   -0.4152491113
 H   -1.6215986941   -1.4168038226   -0.5463035702