17

 C    0.1271225054    1.3928137378   -0.0476331815
 O   -0.0322031959   -0.0063781326    0.0430585851
 C    0.6919736136   -0.5698872180    1.1060734064
 C    0.4723562970   -2.0909974013    1.0564575324
 C    1.0173037806   -2.6795507263   -0.1648549625
 N    1.4833320904   -3.1942933854   -1.0895245591
 C    1.0104765205   -2.7474385895    2.3565818569
 N    1.7284098155   -3.8833640712    2.1992071550
 O    0.7549074394   -2.2457767471    3.4317821605
 H    1.1779629881    1.6701781945   -0.2210345139
 H   -0.4737416007    1.7314878909   -0.8940765816
 H   -0.2197177616    1.9006842198    0.8650610095
 H    1.7665284953   -0.3399052902    1.0231664224
 H    0.3400675805   -0.2139581953    2.0830250582
 H   -0.6121244086   -2.2563684555    1.0568288845
 H    1.9630668853   -4.2517194005    1.2924489313
 H    2.0871453752   -4.3335076099    3.0253860565