20

 C   -1.0005581669    0.6395851172   -0.2931780016
 C   -0.3412086949   -0.6850552860    0.1176930500
 C    0.6885782058   -0.5781324855    1.2334036181
 C    0.1888226710   -0.2344644468    2.6229123468
 O   -0.3232502400    1.1028294745    2.6994887646
 C    0.5528860023    2.0820452986    3.0169125166
 O    0.2448064285    3.2357259346    3.0166775070
 C    1.9126948421   -1.4213411374    1.1516275294
 N    2.0000596435    0.0353955712    0.9501425278
 H   -0.2518707905    1.3727843419   -0.6114124211
 H   -1.6841195312    0.4761491238   -1.1318120080
 H   -1.5627426360    1.0837174794    0.5298263352
 H   -1.1153618090   -1.4008681807    0.4242143587
 H    0.1502429767   -1.1300686005   -0.7567905918
 H   -0.6395673077   -0.8855628915    2.9154495978
 H    1.0012671512   -0.3590888072    3.3476861268
 H    1.5525912115    1.6938308970    3.2803583205
 H    2.3941966582   -1.7886566702    2.0543438846
 H    2.0159362721   -2.0762065323    0.2907034360
 H    2.0794861635    0.2495111299   -0.0412048773