21

 O   -0.1957237629    1.1995440631   -0.6338799750
 C   -0.0833396119   -0.1908774246   -0.3708004929
 C   -1.4691829303   -0.7066414199   -0.0020285329
 C   -1.4741857406   -2.1921263049    0.3044621458
 C   -2.8361123796   -2.9109375249    0.4256811904
 C   -2.3331471789   -3.7803518457   -0.7434908536
 C   -3.0854157244   -3.7292812294   -2.0618659131
 O   -2.2736740889   -4.2109156010   -3.1136639111
 O   -1.1068734048   -3.0076791175   -0.8442672329
 H    0.6614720924    1.5189566407   -0.9299624430
 H    0.2848246999   -0.7413384285   -1.2488629270
 H    0.6177669006   -0.3855602214    0.4579121188
 H   -1.8349096160   -0.1594456725    0.8762815958
 H   -2.1585918000   -0.4959571015   -0.8274925942
 H   -0.7939777692   -2.4077709887    1.1407780073
 H   -3.0206285728   -3.4310408925    1.3658961947
 H   -3.6985680473   -2.2843354679    0.1836902575
 H   -2.1054301604   -4.8223299931   -0.4846099306
 H   -3.9756376476   -4.3675204942   -2.0184534142
 H   -3.4198075842   -2.6952839424   -2.2498959916
 H   -1.4451365331   -3.7195891534   -3.0503201882