17

 C    0.0755935363    1.5760393119    0.0633261662
 C    0.1032640099    0.0637905441    0.0831772181
 C    1.3126144392   -0.7851236135   -0.1922682774
 N    2.5428011036   -0.2074884556    0.3570770681
 C    1.9937247941   -0.1259664538    1.6514008940
 O    2.4270782864    0.3216038898    2.6757716304
 C    0.6997072049   -0.8039310243    1.2052110041
 C   -0.0561931419   -1.8550400920    1.9630265218
 H    1.0139547972    2.0095326986    0.4189528991
 H   -0.1041090884    1.9454677271   -0.9522084881
 H   -0.7257864839    1.9570443039    0.7042338308
 H   -0.8132511147   -0.3913752117   -0.2939101422
 H    1.3632572895   -1.5905716104   -0.9141783642
 H    3.0531960098    0.5565849149   -0.0721622234
 H   -0.5370528835   -1.4232101853    2.8471890923
 H   -0.8386798300   -2.3046015607    1.3438732388
 H    0.6083641615   -2.6552308131    2.3046811514