23

 C    0.0895897802    1.5816524712   -0.0398751731
 C    0.0288989737    0.0517714326   -0.0438030113
 C   -1.3990128130   -0.4967125810    0.0601908435
 C   -1.4574525206   -2.0287799473    0.0598386562
 C   -2.8730926662   -2.6346907716    0.0571066269
 C   -2.8065672463   -4.1553401413   -0.1405431054
 C   -3.6622094050   -2.2924014924    1.3290611728
 H    1.1201572982    1.9425938570   -0.1164791167
 H   -0.4736049080    2.0022488796   -0.8806079573
 H   -0.3391751481    1.9924683760    0.8811163149
 H    0.4978088827   -0.3317216218   -0.9597841113
 H    0.6282955767   -0.3409161140    0.7884417821
 H   -1.8650260556   -0.1009489115    0.9715466785
 H   -1.9961150680   -0.1098629834   -0.7780709632
 H   -0.9187807419   -2.3988702742   -0.8235362893
 H   -0.9065390835   -2.4145379222    0.9304821494
 H   -3.4150432872   -2.2083980341   -0.8002680752
 H   -2.2685093198   -4.6340348469    0.6867887869
 H   -3.8083835205   -4.5959309809   -0.1816481817
 H   -2.2863692232   -4.4156363539   -1.0684983107
 H   -4.6609029199   -2.7412511616    1.3031631562
 H   -3.1503933322   -2.6767355169    2.2201068320
 H   -3.7892748424   -1.2136695115    1.4572153157