23

 C    0.5915856616    1.2977140048   -0.3690315355
 C    0.2424411886   -0.1602506983   -0.0577750258
 C    0.5588698459   -0.5383828016    1.3794380392
 C    0.5285988382   -2.0309912806    1.7693161145
 C    2.0263565623   -1.8487497994    2.1073706917
 C    2.4152529187   -1.9626105991    3.5723560475
 C    3.0120358080   -2.5736560950    1.1880476574
 O    4.2707205331   -1.9310702324    1.2088419442
 O    1.9770247623   -0.4459881041    1.6883611039
 H    1.6510373417    1.4863861150   -0.1732617170
 H    0.3888197101    1.5398836824   -1.4162867307
 H    0.0087217774    1.9858124641    0.2532873272
 H   -0.8267959919   -0.3426777285   -0.2311304987
 H    0.7906197921   -0.8301500095   -0.7318838087
 H   -0.0101020502    0.1072655133    2.0635751372
 H   -0.1109954534   -2.2861019921    2.6155748231
 H    0.3225933617   -2.7156547985    0.9424624281
 H    2.3193646688   -2.9996781044    3.9129131477
 H    3.4547528148   -1.6517531237    3.7059274699
 H    1.7739150200   -1.3317137815    4.1937331908
 H    3.1679176718   -3.6054504496    1.5232365219
 H    2.5992597775   -2.6096790374    0.1671680845
 H    4.0824569610   -0.9990607840    1.0365948175