23

 C    0.9575132826    1.5056702414    0.2522526225
 C    0.1313250340    0.2506874819   -0.0612839662
 C    0.5755581085   -0.4787509115   -1.3220083857
 C    1.7827694489   -1.3879276826   -1.2773173916
 C    0.4064075552   -1.9827697244   -1.4580135533
 C   -0.2311680280   -2.8634997551   -0.4060101312
 C    0.3469829938    0.3145381160   -2.5803712717
 C    1.4013260422    1.0746092940   -3.2679203849
 O    0.9361008576   -0.1754355140   -3.7853661070
 H    2.0165730714    1.2563535802    0.3764215361
 H    0.8833996500    2.2481735031   -0.5481066765
 H    0.6124569556    1.9786543177    1.1769402863
 H    0.1829557240   -0.4308311622    0.7928041471
 H   -0.9274239807    0.5288874913   -0.1603338782
 H    2.4527137593   -1.3961450190   -2.1298021725
 H    2.2668967886   -1.5185394012   -0.3138463412
 H    0.1969211768   -2.2989290642   -2.4768601418
 H    0.0650124637   -2.5836438903    0.6088605620
 H   -1.3253169385   -2.8255449447   -0.4568348885
 H    0.0694814806   -3.9069219423   -0.5526396780
 H   -0.6806219367    0.6651052731   -2.7089584583
 H    1.1443537447    1.9489827192   -3.8642749559
 H    2.4131742563    1.0613104136   -2.8667351614