16

 C    0.0032661645   -1.1952587974   -0.0003371195
 C    0.0082503807    0.0067016060    0.0314821603
 C    0.0049595158    1.4474390781    0.0601592886
 C   -1.0800453489    2.0634834617   -0.6659350070
 C   -1.9999820112    2.5709508980   -1.2480011543
 C    0.5244161154    2.2083816537    1.2486822045
 C    1.6164740477    1.4457981869    1.9884925380
 C    2.3634994100    1.4202796160    0.6282363083
 N    1.2876911369    2.2420575829   -0.0434697628
 H   -0.0124956418   -2.2567424419   -0.0345059368
 H   -2.8059043368    3.0185265335   -1.7749774425
 H   -0.0328137287    3.0664951428    1.6112279529
 H    2.1192325614    2.0548457790    2.7413344568
 H    1.3266883462    0.4894807266    2.4293648019
 H    3.2906910287    1.9951210742    0.6212065579
 H    2.5311568901    0.4464950399    0.1641498436