18

 C    0.1903954908    1.5960193509   -0.2627558197
 C   -0.0124345411    0.0983451489   -0.1701349559
 C   -1.4323100683   -0.4209503620   -0.3143801138
 C   -2.3275228482   -0.0413309837    0.8867978324
 C   -3.6704147260   -0.5959846907    0.7786160305
 C   -4.7709095671   -1.0652464238    0.6616442386
 C    1.1100154625   -0.7992939118   -0.4843879014
 O    0.7404291975   -0.5457818320    0.8732286470
 H    1.2449414111    1.8473764635   -0.1272538560
 H   -0.1361873309    1.9721194690   -1.2383099953
 H   -0.3806109581    2.1238027545    0.5078600402
 H   -1.8760344660   -0.0345606518   -1.2390585101
 H   -1.4109450352   -1.5111793770   -0.3987725487
 H   -1.8472216869   -0.4011136726    1.8046423189
 H   -2.3947170113    1.0494676379    0.9790759836
 H   -5.7464213768   -1.4747347504    0.5735759021
 H    0.9129704864   -1.8090402982   -0.8428600238
 H    2.0669208776   -0.3795302607   -0.7933968985