24

 C   -2.0504726198    1.5283501348   -1.2940731624
 C   -1.9124234917    0.0032646412   -1.3016796137
 C   -1.6772359869   -0.5790208647    0.0994188242
 C   -1.6285448224   -2.1010059069    0.1532693104
 C   -0.5108505197   -2.7844753769   -0.6259524446
 C    0.9014669185   -2.4274023548   -0.1461019570
 C   -2.0573302440   -2.7592422245    1.4447154071
 C   -2.9535385302   -2.8242846773    0.2294976020
 H   -2.2102718605    1.9214520688   -2.3030708055
 H   -2.8969747888    1.8465166054   -0.6750283452
 H   -1.1507402193    2.0060660456   -0.8898970023
 H   -2.8159406608   -0.4480614225   -1.7310616975
 H   -1.0864995428   -0.2804935659   -1.9655371870
 H   -0.7492017146   -0.1611715664    0.5129815276
 H   -2.4797981111   -0.2326631982    0.7639800398
 H   -0.6497574465   -3.8698903899   -0.5487199557
 H   -0.6044750386   -2.5480698538   -1.6937312919
 H    1.6566893472   -2.9940530656   -0.6998447022
 H    1.1224499640   -1.3644517978   -0.2861980592
 H    1.0246733194   -2.6536525782    0.9184226929
 H   -1.5480406849   -3.6680314529    1.7495734180
 H   -2.3626201343   -2.1259494026    2.2713404332
 H   -3.8616319950   -2.2297627119    0.2359459520
 H   -3.0528600672   -3.7761158551   -0.2822135928