15

 O    0.0623232052    0.0729695959    0.1165588490
 C    0.0171055405    1.2695639715    0.1012416716
 C   -1.0856671767    2.2818381663    0.0916248018
 C   -0.4679225571    3.6010243940    0.5829186571
 C   -0.1919557990    3.1636824024   -0.8121896570
 C    1.0454882478    2.3756078859   -0.2217113490
 C    0.9734630988    3.3010596229    1.0462921470
 C    1.8482055459    4.4566622627    0.9910754651
 C    2.5729506923    5.4148597761    0.9452051947
 H   -2.1561135048    2.1380994652    0.0407125449
 H   -1.1096828163    4.4028749969    0.9244136075
 H   -0.4147531244    3.5567040398   -1.7911590957
 H    1.9906081790    2.1581768614   -0.7089836423
 H    1.0844272986    2.7806944316    2.0056312120
 H    3.2156183502    6.2595322576    0.9101524833