19

 C    0.0463773801    1.6134521409   -0.0372550390
 C    0.0645427910    0.0927285732   -0.0071151875
 C    1.1153279008   -0.6572397963   -0.8761664485
 O    2.3900641688   -0.1019019112   -0.4554691034
 C    2.2009344597   -0.7685742665    0.7892268476
 C    0.6874949846   -0.6603205079    1.1778248744
 C    0.2089282649   -0.7508612930    2.5956078762
 C    1.2050155141   -1.7597230297    0.2777699827
 O    1.0127551860   -3.1106687297    0.3656894922
 H    1.0575793249    2.0096669011    0.0828840117
 H   -0.3559524940    1.9835066877   -0.9870193719
 H   -0.5810334552    2.0156882855    0.7656384964
 H   -0.9275477533   -0.3275376987   -0.2096821198
 H    1.0262776859   -0.7740560690   -1.9549224831
 H    3.0123085702   -0.8106094453    1.5043098684
 H    0.2524976398    0.2238420328    3.0942156315
 H   -0.8260397494   -1.1074394378    2.6440084345
 H    0.8218390670   -1.4493956926    3.1754121009
 H    1.7619219140   -3.5563429036   -0.0475320234