21

 C   -0.6090932872    1.3767733447   -0.1870788456
 C   -0.0460749034   -0.0341210140   -0.1039658400
 C    1.3073822463   -0.3600197125   -0.7932560437
 O    2.1181097813    0.8054883506   -0.8226675893
 C    1.6354794285   -1.3126835276    0.3888948990
 C    0.5310372786   -0.6127903210    1.2326329148
 C    1.0772733542    0.4343462442    2.2200717441
 C    1.7736578102   -0.1793864343    3.3453165557
 C    2.3455812933   -0.7120491109    4.2592810595
 H    0.1301990194    2.1257089623    0.1037620369
 H   -0.9223326336    1.6066460528   -1.2110476517
 H   -1.4869544601    1.4856903450    0.4593872812
 H   -0.7904994272   -0.7445852852   -0.4807104280
 H    1.2496199655   -0.8125001605   -1.7927618099
 H    3.0181127309    0.5340998197   -1.0301883815
 H    1.3929483643   -2.3540263218    0.1602905357
 H    2.6557187424   -1.2662880519    0.7806190855
 H   -0.1413661805   -1.2865163265    1.7702019306
 H    1.7585186375    1.1096464445    1.6904354764
 H    0.2525203266    1.0531986987    2.5961610589
 H    2.8503190732   -1.1680513765    5.0742204515