18

 N   -0.0392900316   -1.1699696336   -0.0493147939
 C   -0.0418360822   -0.0139978106   -0.0145174600
 C   -0.0365383110    1.4373038353    0.0373971263
 C   -0.2283794507    2.1463939836    1.4218942869
 C    0.6542228010    3.2752829738    0.8183970371
 C    1.3339421790    2.1861222669   -0.0519895042
 O   -0.0805758358    4.1680976485   -0.0021036444
 C   -1.2102810194    3.5645947988   -0.6288604399
 C   -0.9900190532    2.0816927625   -0.9985792460
 H   -1.2425334026    2.3780979011    1.7509878052
 H    0.3017389597    1.6156708998    2.2143312814
 H    1.2669704743    3.8855500983    1.4823107790
 H    2.1228993000    1.6541525143    0.4835127996
 H    1.6764631639    2.4842613685   -1.0448492448
 H   -2.0795458715    3.6443004972    0.0382594898
 H   -1.4289791430    4.1627400706   -1.5171912636
 H   -0.5506752325    1.9738610876   -1.9953001660
 H   -1.9562063642    1.5678249974   -1.0092305625