16

 O   -0.3201712592    0.4298235121   -0.7258102398
 C    0.0794389307    1.1254671224    0.1812405847
 C    1.3359206164    1.8761286339    0.1430376807
 C    2.5913282438    1.4611924679   -0.6147843609
 C    3.7723969043    1.6889980496    0.3064058776
 C    3.2429968650    2.8980594785    1.0468521309
 C    2.3555809912    3.7079486292    0.1720926024
 C    1.9221850006    2.7613270866   -0.9564705525
 N    1.7575744303    2.8310380996    1.2305711774
 H   -0.4950385535    1.2551774828    1.1240422498
 H    2.5052675676    0.6231028020   -1.2933810006
 H    3.9544554083    0.8378042242    0.9696711051
 H    4.6952744694    1.9163597421   -0.2374709190
 H    3.7818402798    3.3514402025    1.8704930234
 H    2.2435865539    4.7848396511    0.1932295205
 H    1.4780507614    3.0080191655   -1.9096643795