21

 C    0.0176634772    1.3555486854   -0.0199506412
 O   -0.0483794482   -0.0603492810    0.1666590923
 C   -1.2774231137   -0.5805284163    0.1154475395
 N   -2.3654437254    0.0544272963   -0.0920469576
 C   -3.4468734194   -0.9570267037   -0.0315776429
 C   -4.1983261510   -0.7941148543    1.2995269251
 C   -4.4006691933   -0.7817470911   -1.2145906389
 C   -2.6956481703   -2.3325103424   -0.0809081913
 N   -1.3498047776   -1.9462039835    0.3508670993
 H    1.0750308480    1.6145711285    0.0452503391
 H   -0.3877965443    1.6351543235   -0.9961497239
 H   -0.5537409437    1.8722506574    0.7556971355
 H   -4.5931856357    0.2220303712    1.3854925181
 H   -5.0340426904   -1.4996347977    1.3698189153
 H   -3.5263510043   -0.9702965276    2.1451489187
 H   -3.8558954397   -0.8393332368   -2.1616026289
 H   -5.1758904270   -1.5565501788   -1.2126825815
 H   -4.8915078886    0.1946279534   -1.1664162740
 H   -3.1342465526   -3.0763078424    0.5907662558
 H   -2.6924993456   -2.7455607725   -1.0996461606
 H   -0.5612328145   -2.5005894377    0.0494572320