18

 N   -0.0035761943   -1.2184083232   -0.0679392032
 C   -0.0099192881   -0.0634118091   -0.1053044628
 C    0.0108305527    1.3964309448   -0.1463540022
 C    1.4062233261    1.9808842539    0.1805360270
 C    1.4095901989    3.4804373462    0.1274214191
 C    1.5418674906    4.2893632568   -1.1547659542
 C    2.5209720558    4.4925173862   -0.0407008616
 O    1.9855671125    5.3724256743    0.9484532483
 C    0.9258204659    4.4218619352    1.2339326664
 H   -0.3069420771    1.7261240211   -1.1417245847
 H   -0.7346534931    1.7745734794    0.5626367733
 H    1.7161469194    1.6332181029    1.1727175944
 H    2.1333941492    1.5799557013   -0.5334281633
 H    1.9125911161    3.7243400567   -2.0054890865
 H    0.8389316477    5.0822254216   -1.3960411731
 H    3.5986813093    4.3999334351   -0.1142751354
 H   -0.0718009241    4.8667376454    1.1372721598
 H    1.0489064424    4.0026187614    2.2401798488