19

 C   -0.0435179182    1.5692647115   -0.0168791203
 C   -0.0022028614    0.0378440190   -0.0131757945
 C   -1.4281932193   -0.5367232199    0.0739720999
 C    0.7707341050   -0.5340485617   -1.2383241161
 C    1.5027003008   -1.7753509368   -0.7068226054
 C    1.6351509316   -1.5249031142    0.7992166776
 O    2.3066209079   -2.1461723804    1.5933078023
 N    0.8262791314   -0.4573919298    1.0878081113
 H    0.9686741859    1.9831465811   -0.0232379011
 H   -0.5746312783    1.9364632267   -0.9010454024
 H   -0.5661179931    1.9541109886    0.8661210829
 H   -2.0468209947   -0.1719475893   -0.7526505762
 H   -1.4145762932   -1.6303368617    0.0365572028
 H   -1.9107746891   -0.2392177054    1.0111501972
 H    0.0964240449   -0.7460239654   -2.0713915932
 H    1.4969214265    0.2089313372   -1.5821839383
 H    0.9251967252   -2.6962612751   -0.8443720660
 H    2.4841086336   -1.9428726944   -1.1540633891
 H    0.6515977442   -0.2106839298    2.0504795186