17

 C   -0.0386696951    1.4761150148    0.0200516006
 C   -0.0319642697   -0.0222712726    0.0163455021
 N   -0.0694815497   -0.6206016506   -1.1406140028
 N   -0.0632958224   -1.9515870428   -1.1379747982
 N   -0.0227532455   -2.7733392368   -0.0836715251
 C    0.0157326301   -2.2217161055    1.0947086307
 C    0.0620155126   -3.1132202463    2.2936213174
 C    0.0153548536   -0.7671512911    1.2788441599
 N    0.0546476762   -0.2784843803    2.4724525034
 H    0.8587266469    1.8709365342    0.5116948176
 H   -0.0762009333    1.8519453606   -1.0030558979
 H   -0.9030461257    1.8629488457    0.5733403513
 H   -0.0925724233   -2.3949773301   -2.0404589456
 H    0.0556427955   -4.1607639668    1.9895372765
 H    0.9563738652   -2.8992769520    2.8879249350
 H   -0.7896423388   -2.9064592461    2.9499133500
 H    0.0491421333    0.7418727858    2.4490382052