20

 C    0.0134865502    1.5704556060   -0.0479082808
 C    0.0391812230    0.0471506278   -0.0394299639
 O    0.7255897550   -0.4574634184   -1.1972372590
 C    0.0057419343   -0.6049839493   -2.3243957335
 N    0.5701520306   -0.9627948584   -3.3954854991
 C    0.7760465805   -0.5164052924    1.1770102093
 O    0.0735842762   -0.0688520769    2.3222692886
 C    0.8468175991   -2.0423170707    1.1720650408
 O    1.3965097553   -2.4010331731    2.4386385117
 H    1.0321159709    1.9636311651   -0.1189115203
 H   -0.5603938411    1.9466284597   -0.9001129908
 H   -0.4425081719    1.9356046751    0.8747001400
 H   -0.9871033884   -0.3469523617   -0.0256944906
 H   -1.0658872031   -0.4004637826   -2.1890712386
 H   -0.1202664079   -1.0448484788   -4.1388460427
 H    1.8076758046   -0.1269367302    1.1753453811
 H    0.3792104772   -0.6321439195    3.0449406186
 H   -0.1666734321   -2.4552695717    1.0527253395
 H    1.4721161622   -2.3931184222    0.3431563863
 H    1.3253146152   -3.3529139880    2.5485240035