14

 N    0.1944896319    1.0705900939    0.2471270573
 C   -0.0760991256   -0.1143076160   -0.3640785706
 O    0.7411465394   -0.7282819596   -1.0231336536
 C   -1.4870127932   -0.6154123732   -0.1623179891
 C   -2.1908558624   -1.1686941747   -1.3844220209
 N   -1.7497688083   -2.0269552256   -0.3255055667
 C   -0.7910882104   -3.0326506189   -0.4783713638
 O   -0.8049016912   -3.8360481824   -1.3724792358
 H    1.0993564158    1.4871100263    0.0994507524
 H   -0.5043822832    1.5952485392    0.7429375500
 H   -2.0802583486   -0.1179587756    0.6027832579
 H   -3.2631640367   -1.0275028695   -1.4853543554
 H   -1.6144756355   -1.1914053754   -2.3053274250
 H   -0.0917255720   -3.0662660484    0.3748152032