21

 C   -0.1184373012    1.5003614266   -0.0022387317
 C    0.1813870034    0.0299547087   -0.0810755119
 C   -0.7738086786   -1.0259964860    0.4200404388
 C    0.5939755254   -0.8486192844    1.0627265853
 C    1.7261266291   -1.7306088151    0.5601299305
 C    1.8322567970   -1.4057412798   -0.9514716958
 C    1.4529347661   -2.5633069042   -1.8743951974
 O    1.4109640540   -2.1488122718   -3.2221080880
 O    0.9455661696   -0.3019323031   -1.2217470131
 H    0.8070448163    2.0845330882    0.0217447890
 H   -0.7013122964    1.8237896298   -0.8710659486
 H   -0.6979836228    1.7265873461    0.8970164489
 H   -1.6345590585   -0.6953909371    0.9925174208
 H   -0.9530958212   -1.9005017436   -0.1958101505
 H    0.6454556979   -0.4678130892    2.0764750056
 H    2.6564076546   -1.4813681334    1.0780242617
 H    1.5380172459   -2.7978651151    0.7243257504
 H    2.8400691618   -1.0709715179   -1.2260975634
 H    2.2065270797   -3.3559439502   -1.7990375256
 H    0.4892860325   -2.9938458081   -1.5527130399
 H    0.8981303553   -1.3306375703   -3.2218860551