22

 C   -0.0258885772    1.5215805585    0.0622428264
 C   -0.0231217579    0.0202142414    0.0209962330
 C    1.1708287036   -0.8193998101   -0.3748352765
 C    0.6103693409   -0.9761408268    1.0204119467
 C    1.3757042929   -0.6896060682    2.2806619183
 C   -0.6498367215   -1.8234040396    0.9412313601
 C   -0.7377849438   -3.3186352938    1.0086287493
 N   -1.7675553499   -0.9453260797    1.3894422954
 C   -1.2580324356   -0.8506995820   -0.0106309795
 H    0.9462236795    1.9150778836    0.3779301187
 H   -0.2456047969    1.9496175106   -0.9234534929
 H   -0.7821885830    1.8843188565    0.7657183354
 H    1.0734167624   -1.6158817640   -1.1093309168
 H    2.1139506619   -0.2827415085   -0.4365354943
 H    2.0566674976    0.1582400679    2.1507874110
 H    0.6888843313   -0.4485479720    3.0985232201
 H    1.9831258964   -1.5496783548    2.5883834269
 H   -0.6231867053   -3.6784574472    2.0381012950
 H   -1.7033127155   -3.6786188045    0.6366756528
 H    0.0492221496   -3.7834424323    0.4049079359
 H   -2.6193409913   -1.5099987925    1.3563127567
 H   -1.9173243783   -1.0475424926   -0.8500692517