20

 C    0.0161660775    1.4827289844    0.2423028196
 C    0.1170926875   -0.0359649748    0.0761300424
 C    0.6746279104   -0.4873900021   -1.2967418062
 C    2.1333590613   -0.0408938895   -1.5275143217
 C    0.5601451630   -1.9385105750   -1.4449435591
 C    0.4866083426   -3.1363722192   -1.5455079818
 C    0.3681205333   -4.5824636172   -1.6789450530
 O    1.6577012873   -5.1809613448   -1.5961058228
 H    0.9971872515    1.9665780416    0.2203573631
 H   -0.5936307962    1.9289985273   -0.5517246922
 H   -0.4511573104    1.7352432578    1.1990718592
 H    0.7482259812   -0.4616298017    0.8657293879
 H   -0.8752484434   -0.4822117395    0.2036221810
 H    0.0537486480   -0.0187961352   -2.0750134336
 H    2.7881300823   -0.4562346323   -0.7550876476
 H    2.4945195015   -0.3905135463   -2.4979106857
 H    2.2173399941    1.0489417810   -1.5042467331
 H   -0.2972154592   -4.9652927376   -0.8874156194
 H   -0.1165796318   -4.8182953485   -2.6408349116
 H    1.5370398493   -6.1315984884   -1.6882627054