20

 C    0.0701330663    1.5996579750    0.0384001199
 C   -0.0048152236    0.0706793962    0.0135361441
 C    0.7821741512   -0.5800268233   -1.1466746599
 C    1.5144246602   -1.6541383117   -0.8060188988
 C    1.1954175604   -2.0001419086    0.6257773868
 N    2.0121271276   -1.8549840425    1.9692519005
 C    2.1788345870   -0.3935136426    1.5444733518
 C    0.7002469759   -0.6611710552    1.1524033790
 C    0.6460893673   -1.3780135606    2.5328391384
 H    1.1060785654    1.9407146224    0.1352156711
 H   -0.3396666528    2.0315982297   -0.8805497715
 H   -0.4994140965    2.0057963137    0.8802972706
 H   -1.0599003045   -0.2332182224   -0.0608597346
 H    0.7177569965   -0.1764449551   -2.1534063902
 H    2.1024788816   -2.2486004377   -1.4961025329
 H    0.5388062079   -2.8755765365    0.6978790893
 H    2.3670092249    0.2781767766    2.3867750849
 H    2.9121507538   -0.2467789314    0.7505691993
 H   -0.0818329844   -2.1828305566    2.6654725903
 H    0.7567398257   -0.7809853594    3.4417320822