16

 C   -0.0426771999    1.4228403097   -0.0135252664
 N   -0.0461696746   -0.0267221606   -0.0229195893
 C    0.5781795009   -0.6227682274    0.9230197565
 N    1.2877702434   -0.0379760864    1.9495518616
 C    0.5950812160   -2.0943281386    0.9206923610
 N    1.1613768332   -2.8088377218    1.8991499432
 N    0.9527072832   -4.0605930801    1.5201240288
 N    0.2985903710   -4.2338160221    0.3765341535
 C    0.0594882334   -2.9884938723   -0.0259807052
 H    0.9763870837    1.8410454842   -0.0320794118
 H   -0.5735060745    1.7945908182   -0.8933044179
 H   -0.5501224291    1.8406453529    0.8729627364
 H    1.0734715828    0.9161101535    2.1866800343
 H    1.5459117920   -0.6360454265    2.7189252212
 H    1.2748336279   -4.8412917849    2.0689389235
 H   -0.4664383295   -2.7726714878   -0.9399508093