17

 C   -0.0854392822    1.6055097191   -0.0596753401
 C   -0.0515658459    0.0812343061   -0.0698981119
 C   -1.4370589504   -0.5375854328    0.1685036961
 O   -1.9282500921   -0.1946024460    1.4477417978
 C    0.8116049883   -0.5851902988   -1.1912987722
 N    1.7095163121   -1.0601677878   -0.1291069588
 C    0.9611880230   -0.5686194768    0.9053580630
 O    1.0258910429   -0.6764654123    2.1070778091
 H    0.9204569988    2.0312590444   -0.1253222875
 H   -0.6728492502    1.9815531267   -0.9048671309
 H   -0.5546322735    1.9587356656    0.8612213085
 H   -2.1609036798   -0.1558537149   -0.5611786165
 H   -1.3793511500   -1.6311685424    0.0357723127
 H   -1.2421411687   -0.4328679956    2.0874867941
 H    0.3121162796   -1.3892125475   -1.7424637938
 H    1.2799648545    0.1097690280   -1.8943008733
 H    2.4651423037   -1.7299621551   -0.1402854463