17

 N    0.1476679576    1.4065708604   -0.0650442251
 C   -0.0191331768    0.0024973125   -0.0090231319
 C   -1.0945111659   -0.8479438595   -0.0387086441
 C   -2.5977767975   -0.8775396231   -0.0871952724
 C   -2.8722688867   -2.3770448874   -0.0633206844
 C   -1.7337844754   -3.0950332629   -0.0067903344
 C   -0.5952508430   -2.1871199019    0.0083953229
 C    0.7771391590   -2.1327902558    0.0720032987
 N    1.1112891552   -0.7938094645    0.0567601474
 H   -0.5705391028    1.8288627594   -0.6421366555
 H    0.0816867119    1.8355651461    0.8542161302
 H   -3.0726786443   -0.3703255638    0.7647768451
 H   -3.0183823421   -0.4104687724   -0.9893029771
 H   -3.8753397292   -2.7842371731   -0.0921416623
 H   -1.6733483441   -4.1761494469    0.0208266657
 H    1.5368198119   -2.8948547599    0.1331605431
 H    2.0426411122   -0.4165788273    0.0176600642