16

 N    0.6552935553   -0.9770011121    0.2516514502
 C    0.3050413504    0.1164218703    0.1186486762
 C   -0.0468582480    1.5580807200   -0.0037609437
 C   -0.7646705393    2.0467904395    1.2893274612
 C    0.4026121190    2.3950687612    2.2420047756
 C    1.6600623336    2.4772691567    1.3393705546
 N    1.1255309332    2.4269034791   -0.0315372621
 C   -0.8715856302    1.7485214418   -1.2089768859
 N   -1.5271987098    1.9070885827   -2.1456913640
 H   -1.3419785740    2.9342826355    1.0252082571
 H   -1.4475065759    1.2926607766    1.6812801194
 H    0.2079655948    3.3391737805    2.7534945486
 H    0.5302394892    1.6276891962    3.0076227917
 H    2.2199933386    3.4064500789    1.4721194792
 H    2.3375380052    1.6398892564    1.5564541239
 H    1.8089627379    2.1357120167   -0.7216998619