21

 C   -0.3894176899    0.9342008163   -1.7091080738
 C   -0.0224287731   -0.2345076015   -0.8169722901
 C    1.4075834721   -0.5898635588   -0.4635973028
 C    2.6081003614    0.1953350880   -0.9536175982
 C    0.4681207872   -0.0797738707    0.6114908953
 C    0.6188131404    1.2876469260    1.2725531970
 N   -0.6068086587    1.8342070083    1.8736503821
 C    1.6633054062    1.2205731592    2.3113999485
 N    2.4861581146    1.1309378336    3.1175054020
 H    0.2640409464    1.8000698367   -1.5785099188
 H   -0.3284577285    0.6439659963   -2.7634485135
 H   -1.4175721866    1.2656093801   -1.5227228542
 H   -0.6774538428   -1.0898612433   -0.9648405523
 H    1.6069606750   -1.6567202658   -0.4016421329
 H    2.4108717104    1.2648346119   -1.0598536391
 H    3.4501135367    0.0859393309   -0.2626125225
 H    2.9309096470   -0.1717399610   -1.9337402842
 H    0.1132614625   -0.8260996541    1.3189391639
 H    0.9629156823    2.0226841942    0.5380115632
 H   -1.3141396006    1.9039072831    1.1473390565
 H   -0.9672844620    1.1774058506    2.5611860238