20

 C    0.0198727173    1.5742467179   -0.1303639280
 C    0.1220835036    0.0503595089   -0.0709604903
 C    0.9512247206   -0.6064611836   -1.1925282054
 C    1.3125605950   -1.9811355070   -0.5963575292
 N    1.5357270064   -1.7638383980    0.8428168095
 C    2.8522949452   -1.1557939375    1.1926652431
 C    2.1186243580    0.1053081267    1.6681934037
 O    2.4464741561    1.1370446745    2.1754924136
 C    0.7855113543   -0.5111677924    1.2147432601
 H    1.0082204316    2.0420523670   -0.0965223677
 H   -0.4763519116    1.8915123250   -1.0530232286
 H   -0.5583102373    1.9676923954    0.7117007006
 H   -0.8914591565   -0.3700454565   -0.1094268366
 H    0.4027979788   -0.6779166507   -2.1357538855
 H    1.8573035883   -0.0175793716   -1.3849820840
 H    0.4756872287   -2.6790695648   -0.7228669312
 H    2.1933320829   -2.4435615443   -1.0509266720
 H    3.4042146479   -1.7034923219    1.9644483969
 H    3.5277059029   -0.9726082874    0.3445520858
 H    0.0628190979   -0.6388256597    2.0281611753