12

 N    0.0338715872    1.3219926527    0.0092447935
 C    1.2929847037    1.8473990662   -0.0001464756
 C    2.1340026799    0.7474182868   -0.0142601098
 N    3.4549322339    0.3222070834   -0.0293885521
 C    3.3541182235   -0.9812492404   -0.0354764757
 N    2.0539818915   -1.4706145151   -0.0255283176
 C    1.2500529130   -0.3537364645   -0.0116331242
 N   -0.0370200242   -0.0422661728    0.0025560714
 H   -0.8300488853    1.8361085311    0.0204249882
 H    1.4576389956    2.9121308027    0.0040102423
 H    4.1928510565   -1.6636561170   -0.0473200850
 H    1.7779010347   -2.4367550631   -0.0278970554