21

 C   -0.0260675056    1.5010567485   -0.0887604737
 C    0.0994350196   -0.0027771549    0.0119196694
 C    1.4281009595   -0.6989895258   -0.0502591758
 C    0.6374158730   -0.7138736221    1.2578542680
 C    1.1643511794    0.0835585856    2.4457424985
 C    2.2193606621   -0.6736624200    3.2465052262
 O    2.6545614952    0.1846853922    4.2916595795
 C   -0.0212509575   -1.9479316740    1.6049214227
 C   -0.5786208161   -2.9718022554    1.9055619471
 H    0.8374040855    2.0201351631    0.3347906064
 H   -0.1025548818    1.8012133868   -1.1397047802
 H   -0.9223076704    1.8631990035    0.4263212792
 H   -0.7180732840   -0.5410677664   -0.4590432918
 H    1.5145963448   -1.6256403696   -0.6051554681
 H    2.3203328747   -0.0798524281   -0.0609148857
 H    1.6098104724    1.0213803734    2.1026261731
 H    0.3387815525    0.3473212038    3.1162175548
 H    1.7874355012   -1.6041876457    3.6419593358
 H    3.0546492351   -0.9539190482    2.5843699033
 H    3.2691008086   -0.3055285059    4.8450288221
 H   -1.0698507482   -3.8757998609    2.1671593092