20

 C    0.5695259090    1.5520236759   -0.3443840706
 C    0.3997223434    0.1103652469   -0.2456056382
 C    0.2586628596   -1.0840828238   -0.1617176512
 C    0.0890376422   -2.5101891489   -0.0721976484
 C    0.6891416892   -3.5186915340    0.9457113940
 N   -0.1420576113   -4.4473613742    0.0482512633
 C   -1.2051046849   -3.3416380262    0.1461479600
 C    0.4582747650   -3.6186716538   -1.1134109112
 C   -0.1676263567   -3.7188814900   -2.4890117853
 H    1.6296782135    1.8259161120   -0.3839380233
 H    0.0909673817    1.9480282348   -1.2470094570
 H    0.1268650292    2.0642656257    0.5171400449
 H    1.7651830492   -3.7075166646    0.9018088834
 H    0.3290787656   -3.4700451377    1.9762428541
 H   -1.6758550039   -3.2803675735    1.1306530361
 H   -1.9582433114   -3.3603160117   -0.6410287388
 H    1.5356205094   -3.8038761122   -1.1931713831
 H   -1.2341859032   -3.4869606578   -2.5129106132
 H    0.3386934987   -3.0260851162   -3.1693466276
 H   -0.0332751442   -4.7320939506   -2.8820056680