20

 O    0.1636794957    1.1701320185   -0.4987832285
 C    0.0129800466   -0.2159655326   -0.2172534296
 C   -1.4579100185   -0.4807658136    0.0881045637
 C   -2.3792824154   -0.1343963631   -1.1203300878
 C   -3.2733822835   -1.3730891578   -1.3297453061
 C   -2.4019107926   -2.5433972820   -0.8559886000
 O   -1.3647845760   -2.8452268117   -1.7918428109
 C   -1.7211379769   -1.9813378257    0.3953999109
 H    1.0658392945    1.3187064742   -0.7955781796
 H    0.3164903884   -0.8377588815   -1.0728164073
 H    0.6300198966   -0.5108001748    0.6475559564
 H   -1.7253495212    0.1342010854    0.9534915358
 H   -2.9619106885    0.7737163067   -0.9508534515
 H   -1.7656164548    0.0483393861   -2.0064923095
 H   -4.1698867608   -1.3204343620   -0.6995520898
 H   -3.6171561656   -1.4944787704   -2.3635932052
 H   -2.9891040475   -3.4476381730   -0.6396196714
 H   -1.7773071631   -3.0273985585   -2.6422237698
 H   -0.8085331933   -2.5390332488    0.6256517808
 H   -2.3956292139   -2.0888867155    1.2505412797