14

 O    0.0043182569    0.0323242026    0.1889010460
 C   -0.0142764030    1.2271107865    0.0413460632
 C   -1.1993242761    2.1445066120   -0.0583771273
 C   -0.8208280042    3.4996404726    0.5249844445
 C   -0.8383027318    3.3151272933   -0.9634956910
 C    0.7240541588    3.3370241759   -0.9844458551
 C    0.7415415907    3.5212057215    0.5040751030
 C    1.1417030809    2.1770293787   -0.0900497735
 H   -2.2121302646    1.7716991293   -0.0002568395
 H   -1.4729546993    4.0759904174    1.1656245023
 H   -1.5067181008    3.7194820403   -1.7102133830
 H    1.3606244084    3.7597099389   -1.7486337990
 H    1.3944178608    4.1155349660    1.1272881405
 H    2.1656739333    1.8325150649   -0.0595066211