17

 N    0.2535867105    0.8143339473    1.1193549712
 C    0.1059959166    0.0407238561    0.0092291669
 O    0.9222518813    0.0151088559   -0.8939433833
 C   -1.1882962987   -0.7909068293    0.0176129122
 O   -2.2009710882   -0.1114717633    0.7507409877
 C   -1.6382907565   -1.5808039864   -1.2545071431
 C   -0.4815000860   -2.5821695904   -1.0140775305
 C   -1.1633406547   -2.3209723220    0.3499793952
 N   -2.4873181811   -2.4932473266   -0.3753142528
 H    1.0862927881    1.3718202723    1.2116969105
 H   -0.4584830994    0.8335167267    1.8284246733
 H   -2.4424189163    0.6848799985    0.2643681060
 H   -2.0039282741   -1.1737548405   -2.1985011526
 H   -0.6793306419   -3.5779302819   -1.4087533943
 H    0.5325654680   -2.2290123678   -1.1699390960
 H   -0.9672570458   -2.7785448819    1.3210809043
 H   -3.1884222619   -1.9225394165    0.1034673652