16

 C   -0.3831472038    1.0784568292   -0.2154682481
 C    1.0544182649    1.1164790269    0.2334988070
 C    0.3749277453   -0.2052601811   -0.0030695937
 N    0.0655941287   -1.0005440619    1.1490185035
 C   -1.0280947327   -1.7919095296    1.2283861378
 N   -1.2701383987   -2.7104975101    2.1331442290
 C   -2.5078687588   -3.1389032078    1.7411844999
 N   -3.0203299189   -2.5659291930    0.6880558392
 O   -2.0022001381   -1.6355214766    0.3266207165
 H   -1.1453789278    1.3257044598    0.5129949866
 H   -0.6212254947    1.3543901315   -1.2357420618
 H    1.8177070097    1.4229916195   -0.4719775548
 H    1.2490874161    1.3950148490    1.2630589850
 H    0.6601017168   -0.7628885541   -0.8930019093
 H    0.8208942663   -1.2860308515    1.7536542828
 H   -3.0535739442   -3.9137581702    2.2617488802