15

 C   -0.1329614531    1.5371141023    0.1097431372
 C    0.0967823754    0.0660453462    0.0548489563
 O   -0.7921277876   -0.8392782052    0.6877293590
 C    0.6037852252   -0.9439634750    0.9855691870
 C    1.3047779148   -1.7239708015   -0.1784798799
 N    0.2849050485   -2.1122045614   -1.1576532488
 C    0.7915453562   -0.7118096551   -1.1531951095
 C    1.4497266263   -0.1178328407   -2.2600688903
 N    1.9757791859    0.3979205492   -3.1546946937
 H    0.7644608686    2.0800510940   -0.2016899171
 H   -0.9502337012    1.8230472202   -0.5609973236
 H   -0.3967250365    1.8391163827    1.1262051525
 H    0.9179586319   -0.8887032570    2.0201353285
 H    2.2875753272   -2.1743009236   -0.1430851795
 H    0.7591787684   -2.5979185852   -1.9205475681