23

 O   -0.0933482225    1.4693497185    0.0582738582
 C    0.0105783467    0.0531478493    0.0341935490
 C   -1.3980479187   -0.5238927073    0.0334389068
 C   -1.4119474257   -2.0542253209   -0.0170402162
 C   -2.8187013871   -2.6429009690    0.0208582501
 C   -2.8862566725   -4.1751780588   -0.0289498292
 C   -4.1954920694   -4.4636927498    0.7172487456
 C   -4.1864178930   -3.3697604920    1.7934251830
 O   -3.4605533043   -2.2696375584    1.2478023002
 H    0.7955700973    1.8352384987    0.0761160419
 H    0.5558460563   -0.2897550189   -0.8616593193
 H    0.5645227639   -0.3205306495    0.9115042255
 H   -1.9244432154   -0.1830509895    0.9302627175
 H   -1.9403338549   -0.1135103808   -0.8276179160
 H   -0.9153730641   -2.4052551627   -0.9322519504
 H   -0.8460201579   -2.4639657297    0.8301603570
 H   -3.4020756751   -2.2235857927   -0.8171484830
 H   -2.8702048369   -4.5624465560   -1.0506460793
 H   -2.0330316635   -4.6047010642    0.5098967181
 H   -5.0518724192   -4.3339347585    0.0468495575
 H   -4.2480543801   -5.4706284286    1.1384314402
 H   -5.1924726423   -3.0334753018    2.0696604282
 H   -3.6865292917   -3.7192660374    2.7091970449