17

 O    0.1332480740    1.4087633024    0.0617547354
 C    0.0147632932    0.0067009575   -0.0060919414
 C   -1.3690467673   -0.6458479029    0.0241593746
 C   -2.2190730536   -0.2190624782   -1.1579244593
 C   -2.2540285201    1.1120000340   -1.7114760162
 C   -2.3618366033    2.2334999125   -2.1376479323
 C   -1.1374970449   -1.2518202817   -1.3700743282
 C    0.2709236661   -0.6441806375   -1.4180229390
 O    0.6063088880    0.2321575450   -2.4536626804
 H   -0.6670749024    1.8024903174   -0.3111238266
 H    0.6839039622   -0.4017854927    0.7542590221
 H   -1.8357355438   -1.0890928413    0.8957093350
 H   -3.2068760184   -0.6742055884   -1.1222230695
 H   -2.4394452468    3.2105638788   -2.5472173007
 H   -1.4023910824   -2.2414151650   -1.7223805759
 H    1.0222790097   -1.4405115244   -1.3514562285
 H    0.6489047698    1.1112406946   -2.0518554190