15

 O    0.0791928297    1.2897612577    0.0186039876
 C    0.0664005245   -0.0576463377    0.0601832967
 N    0.0901273206   -0.7858625288   -1.0547324187
 N    0.0661944020   -2.0503197926   -0.5743841407
 C    0.0716929347   -3.3131404658   -1.1779590457
 C    0.0379252641   -4.2524227514   -0.2227453881
 C    0.0065809595   -3.5873475935    1.1495413992
 C    0.0289351911   -2.1297581222    0.7832115395
 C    0.0276022405   -0.8320522172    1.2505211095
 H    0.1065729885    1.5426764818   -0.9128488839
 H    0.1000072943   -3.3920565393   -2.2535983939
 H    0.0330054366   -5.3196042852   -0.3798469495
 H   -0.8903775869   -3.8627457488    1.7180002178
 H    0.8667185170   -3.8777558888    1.7654500088
 H    0.0034092038   -0.4705164681    2.2639841014