14

 C    0.0539262714   -1.2399194479   -0.0361708805
 C    0.0502303429   -0.0390806135    0.0216740497
 C    0.0287850882    1.4099371737    0.0774549482
 C   -0.1658057788    2.1497217918    1.4109813006
 C    1.2530409833    2.3030004501    1.9832503789
 O    2.1607451015    1.6385458571    1.1063298246
 C    1.3851257610    2.1946598469    0.0178448327
 C    0.7614775221    3.2797278823    0.9722597450
 H    0.0702349977   -2.3007713918   -0.0785044648
 H   -0.6571449475    1.8231695059   -0.6689469487
 H   -1.0597656221    2.2026708585    2.0181718392
 H    1.4947526581    2.3847825218    3.0340319102
 H    1.9451852308    2.3206121045   -0.9055523340
 H    0.6538530215    4.3541574406    0.9382239390