19

 C   -0.1101845429    1.3331681977   -0.1491947499
 O   -0.0154520760   -0.0675424526   -0.0436947730
 C    0.6659666258   -0.4813868195    1.1202620424
 C    0.7011732159   -2.0025511721    1.1171425983
 C    1.4146016399   -2.5825412312    2.3266760468
 O    1.9008415532   -1.8917637364    3.1865590722
 C    1.4676087485   -4.1218267784    2.3688536507
 C    2.1574830787   -4.6738212140    3.5211708296
 C    2.7264123597   -5.1376051549    4.4710337032
 H    0.8828295711    1.8079298421   -0.1916826561
 H   -0.6483124429    1.5561813394   -1.0736681245
 H   -0.6614795679    1.7705318569    0.6982022017
 H    1.6896993647   -0.0767874367    1.1439690381
 H    0.1597135654   -0.1138495785    2.0263708573
 H   -0.3208583822   -2.4013897748    1.0763349193
 H    1.1909843200   -2.3640761343    0.2034881660
 H    0.4335681256   -4.4911834162    2.3215445459
 H    1.9344974733   -4.4651109283    1.4350918414
 H    3.2310099902   -5.5397617581    5.3142295005