17

 C   -0.0219941603    1.5688690238    0.0024758392
 C    1.4906159022    1.9688546001   -0.0240256852
 C    2.1810200648    0.5911104417   -0.0357903564
 C    1.2407221377   -0.2549955863   -0.9056679445
 C    0.0381029582    0.0215814644    0.0223896321
 C    0.6527439998   -0.4035196612    1.3662525532
 O    2.0314746469    0.0037389193    1.2668798919
 H   -0.5488403431    1.9687965230    0.8735665547
 H   -0.5459613260    1.9254061266   -0.8893260914
 H    1.7451384971    2.5545930470   -0.9130410795
 H    1.7955397895    2.5395721777    0.8558406956
 H    3.2428959725    0.5952256828   -0.2846218696
 H    1.1077636158    0.1352937538   -1.9183856873
 H    1.5363553083   -1.3061948331   -0.9489683730
 H   -0.9012477291   -0.4797200103   -0.2148685441
 H    0.1806129367    0.0921060822    2.2240494118
 H    0.6049081190   -1.4893408615    1.5258611227