17

 C    0.0527975354    1.5560080922    0.1726023788
 O    1.4626265158    1.5374171317   -0.3084785692
 C    1.1590022280    0.2532764033   -0.8583010440
 C    0.3583320982    0.0901997839   -2.1706928762
 C   -0.1516527185   -0.9892803979   -1.2083121287
 C    1.3595196096   -1.3244580499   -0.7539855566
 C    1.3093833144   -1.6737823500    0.7161615697
 C    0.4226824395   -0.8147753767    1.2239576187
 C   -0.0489875862    0.0107530634    0.0454371131
 H    0.0055351741    1.9309835553    1.1977540636
 H   -0.5702541447    2.1668274300   -0.4863094137
 H   -0.3418820651    0.8873933218   -2.4274061949
 H    0.9108145872   -0.2521445849   -3.0476801162
 H   -0.9268504275   -1.7371488247   -1.3948946727
 H    2.0037798023   -1.8757136075   -1.4416776355
 H    1.8725802722   -2.4573598760    1.2021294530
 H    0.0722269855   -0.7106739640    2.2419152008