12

 N   -0.0011843391   -1.1606114668   -0.0029142371
 C   -0.0003487503   -0.0030140041    0.0030263019
 C   -0.0037426130    1.4255748115    0.0104412552
 C   -1.2157619722    2.1326355244    0.0301143091
 N   -1.2880689427    3.4602786338    0.0379173227
 C   -0.1384948524    4.1420791918    0.0262353876
 C    1.1180031933    3.5395445673    0.0065058991
 C    1.1908645860    2.1547435019   -0.0015967945
 H   -2.1561012047    1.5884634101    0.0397429572
 H   -0.2267807532    5.2255089624    0.0329790189
 H    2.0167989626    4.1449496137   -0.0022647280
 H    2.1435932658    1.6382539040   -0.0168600822