18

 C    0.0000216205    1.4650593754    0.0109698596
 C    0.0223663479   -0.0400273430    0.0107617929
 C    0.6983842725   -0.7655126084   -1.1188883920
 C    0.8054163558   -2.2690734602   -0.9358465651
 C   -0.6659275664   -2.1970525510   -0.4513657469
 C   -0.7614891173   -2.0860145205    1.0626379871
 C   -0.0634197406   -0.7514737118    1.3322379585
 O    0.2926607745   -0.3119083112    2.3966596220
 N   -0.7962775159   -0.7616162676   -1.0038761917
 H    0.8264079979    1.8445929440    0.6186229962
 H    0.0911871803    1.8614414080   -1.0031719093
 H   -0.9338739701    1.8371468685    0.4422844198
 H    1.2131266714   -0.1785031253   -1.8749685175
 H    0.8921352787   -2.7723673643   -1.9011880686
 H    1.5591977023   -2.6705750083   -0.2516625493
 H   -1.3756710884   -2.8789689304   -0.9155527797
 H   -1.8057471938   -1.9951803977    1.3873690212
 H   -0.3024834593   -2.9094565962    1.6155621326