17

 C   -0.8807739019    1.2361889882   -0.0250146971
 C   -0.0173196002   -0.0114844847   -0.0218101409
 N    1.2877260982    0.1166410160   -0.7385182244
 C    2.0132946054   -0.6138627194    0.3288178684
 C    3.2909840620   -0.0299555920    0.7338824523
 N    4.2934365934    0.4253149568    1.0855908783
 C    0.7829181347   -0.3825329090    1.2329882997
 C    0.7199038095    0.1059257431    2.6055430065
 O    0.3712814340   -1.2497863714    2.2496380292
 H   -0.3059865385    2.1027844708    0.3122573930
 H   -1.2523082243    1.4446507471   -1.0334395583
 H   -1.7489704670    1.1047803551    0.6297400465
 H   -0.6020345912   -0.8849448827   -0.3472473209
 H    1.3327363563   -0.3243105476   -1.6501312191
 H    2.1548755891   -1.6881705420    0.1466086202
 H    1.6384401840    0.2143558645    3.1785940639
 H   -0.1140006336    0.7301387470    2.9193627426