23

 C   -0.2333256247    1.4978737740   -0.0721092159
 C    0.0958137406    0.0082896152   -0.0188260596
 C    1.0257311350   -0.4905433803   -1.1365765444
 C    1.4573143612   -1.8849619449   -0.6576528018
 C    1.5684621652   -1.7512423635    0.9033311664
 C    0.8315627987   -0.4369894066    1.2620101180
 C    0.9793085478   -2.9905450585    1.5711530562
 C    1.8409033203   -4.2417503649    1.5340533008
 O   -0.1168970988   -2.9917825146    2.0842178175
 H    0.6791242963    2.1035054623   -0.0125390904
 H   -0.7475798977    1.7611129364   -1.0027082391
 H   -0.8819437021    1.7924504698    0.7596604365
 H   -0.8414011445   -0.5620192279   -0.0835057819
 H    0.5481335180   -0.5117928851   -2.1213408886
 H    1.8989077836    0.1719383938   -1.2106711162
 H    0.6807918334   -2.6146923612   -0.9166246611
 H    2.3886676981   -2.2314121675   -1.1130413845
 H    2.6272301619   -1.6948259505    1.1787925181
 H    1.5609742294    0.3289219586    1.5503078051
 H    0.1486466222   -0.5844102372    2.1009790886
 H    2.2064694945   -4.4388232041    0.5207855763
 H    2.7250358496   -4.0945418455    2.1659215082
 H    1.2743054817   -5.0984058978    1.9008923717