17

 O    0.0606574175    1.2828197391   -0.3260334849
 C    0.0898507410   -0.0257217398    0.2150462468
 C   -1.2797024881   -0.6783017841    0.1760132350
 C   -1.9219609635   -1.2223165817   -1.1205181592
 C   -0.9439346790   -2.0523209406   -1.8827482452
 O   -0.6529520194   -2.1271321464   -3.0447741194
 C   -0.5958857300   -2.9442934917   -0.6621863662
 C   -1.5960774749   -2.1207028009    0.1483899481
 O   -2.4317707366   -2.7741156389    1.0185580738
 H   -0.1900172086    1.2073020504   -1.2535259286
 H    0.8343098061   -0.6547888908   -0.2930226777
 H    0.4166430529    0.0885325830    1.2544687416
 H   -2.0222848660   -0.0975952744    0.7271570929
 H   -2.8412428215   -0.7923654576   -1.5001473168
 H   -0.9756402936   -3.9552798227   -0.8388776254
 H    0.4397837084   -3.0030906630   -0.3174242489
 H   -2.8507701249   -2.1326792201    1.6018508139