18

 O    0.0462898104    1.3848464772   -0.1278626038
 C    0.0620536599   -0.0274625724   -0.0969721841
 C   -1.3279417809   -0.6002893764    0.1480976597
 O   -2.1877327826   -0.1395109129   -0.9240835120
 C   -3.0878440376   -1.1146064028   -1.2934300533
 N   -4.1248191129   -0.9092293500   -1.9821457592
 C   -2.6338512382   -2.4228130985   -0.7550218388
 C   -1.2254325500   -2.8187012966   -1.1547448195
 C   -1.4605783267   -2.1134027673    0.1490295800
 H   -0.5960915840    1.6384953131   -0.8002999648
 H    0.4746248077   -0.4518256740   -1.0245293716
 H    0.7218707842   -0.3200701713    0.7268525103
 H   -1.7186510923   -0.1841378262    1.0860461908
 H   -4.2259538249    0.0852759121   -2.1911279905
 H   -3.3771265794   -3.1805213689   -0.5520565429
 H   -0.9944992997   -3.8765376219   -1.1089403911
 H   -0.7558632869   -2.2897417430   -1.9766452199
 H   -1.3092622364   -2.6398902402    1.0829221606