18

 C    0.0769268882    1.5056293146    0.0234454304
 N    1.2737907170    0.6477225617   -0.0250586544
 C   -0.0556433830    0.0313677595    0.0045740397
 C   -0.4202794060   -0.8406117292    1.2059821164
 O   -1.3073522518   -1.8409926708    0.7081774360
 C   -0.9267331492   -2.1147244616   -0.6289611142
 C   -0.5463022297   -0.7540545738   -1.2007051577
 C   -1.1299251721   -0.1878405152   -2.4199326870
 O    0.2188222536   -0.6906355785   -2.3999758429
 H   -0.0652276500    2.0437313913    0.9575684860
 H   -0.1991473164    2.0695097851   -0.8641867031
 H    1.6213362587    0.6049790403   -0.9830470585
 H    0.4935641618   -1.2898400098    1.6224649717
 H   -0.9420909608   -0.3014220283    2.0006595689
 H   -0.0542667317   -2.7875459934   -0.6784809879
 H   -1.7686104556   -2.5914871229   -1.1359266501
 H   -1.8345431930   -0.7795241799   -3.0033170268
 H   -1.2236886701    0.8896028610   -2.5389430266