17

 O   -0.7492533141    1.1564055073   -0.7005764302
 C    0.0012425534    0.1292538299   -0.0735362354
 C   -1.0081802216   -0.9395176688    0.3634150116
 N   -1.1449576299   -1.7876528745   -0.8249523685
 C   -2.2369932232   -2.5853956636   -1.0429269679
 O   -2.4003646776   -3.3096676767   -2.0011749348
 C   -0.0494071338   -1.6312245952   -1.7203573675
 N    0.1475504380   -2.1885722352   -2.8363839089
 C    0.8890461361   -0.6345339938   -1.0665538557
 H   -0.1407182306    1.7324108443   -1.1741601384
 H    0.5635745172    0.5176536449    0.7853469646
 H   -0.6240324447   -1.5128447006    1.2157382008
 H   -1.9623320253   -0.4854064787    0.6391262506
 H   -2.9812806167   -2.4967341946   -0.2280138749
 H   -0.6139152808   -2.8325193895   -3.0545284939
 H    1.3702127713    0.0034402607   -1.8105678210
 H    1.6807858923   -1.1761110660   -0.5343741506