23

 C   -0.1293031638    1.6014884854    0.0014934846
 C    0.0438961012    0.0830869344   -0.0243773110
 C    0.9066493594   -0.4561314603   -1.2098551318
 C    1.9873029092   -1.3378807376   -0.4967187560
 C    2.8737645154   -0.3679010706    0.2664806384
 C    2.1571967427    0.1133546444    1.2883216771
 C    0.7812723351   -0.5284710246    1.2227969922
 C    1.1722234644   -1.9372648679    0.6866376984
 C    0.0532807792   -2.9200594093    0.3499721981
 H    0.8385280081    2.1114693516    0.0337162561
 H   -0.6575996860    1.9484610042   -0.8933675846
 H   -0.7108734775    1.9226004305    0.8733680027
 H   -0.9541214259   -0.3657556041   -0.0717867565
 H    0.3073113772   -1.0480983535   -1.9082769351
 H    1.3701754369    0.3509080167   -1.7841198415
 H    2.4988406849   -2.0441852377   -1.1531709934
 H    3.8667305801   -0.0650953766   -0.0432819049
 H    2.4481045467    0.8876028513    1.9874075902
 H    0.1906690482   -0.4961635507    2.1409699606
 H    1.8564872893   -2.4160144869    1.3950556615
 H   -0.6507882096   -2.5401938266   -0.3943418824
 H    0.4734765915   -3.8524865479   -0.0431099478
 H   -0.5201347668   -3.1739990442    1.2486181150