25

 C    0.0560626647    1.4112657720   -0.2739461604
 C    0.0790406148   -0.0285733977    0.2634047273
 C    0.5537090215   -0.0594066492    1.7249608026
 C   -1.2919075658   -0.6715579653    0.1321101270
 C   -1.8347433656   -1.2864787217   -1.1566602160
 C   -1.0542076476   -1.3465517938   -2.4532404305
 C   -1.5333177055   -2.1542878622    0.0498952028
 C   -0.4160042879   -3.1744642206    0.0504751078
 O   -2.6478283786   -2.5669588391    0.8122073767
 H    1.0424584265    1.8796558010   -0.1886838389
 H   -0.2446078340    1.4420380649   -1.3255340445
 H   -0.6536416630    2.0254639856    0.2928494074
 H    0.8050238211   -0.5941523007   -0.3334078568
 H   -0.1362940963    0.4978851893    2.3693035332
 H    0.6083015033   -1.0831969211    2.1066609933
 H    1.5449475121    0.3953578461    1.8273932079
 H   -2.0520913568   -0.1624272865    0.7220729348
 H   -2.9004150213   -1.1211784099   -1.2972363054
 H    0.0212904982   -1.4576135491   -2.2949325720
 H   -1.3820816038   -2.1899766018   -3.0719355286
 H   -1.2030226171   -0.4341907476   -3.0415693002
 H    0.4741086450   -2.8288813377   -0.4793611025
 H   -0.1312939995   -3.4195132318    1.0784518280
 H   -0.7441682621   -4.1034550506   -0.4335872729
 H   -3.0447118224   -3.3226474223    0.3638885002