18

 C    0.0369972419    1.5296833023   -0.0503470613
 C   -0.0641777990    0.0003888601    0.0767870987
 C    0.6939167970   -0.5174618887    1.2677453655
 N    2.0397337273   -0.4737535123    1.2195405441
 C    2.6590176828   -0.9250438972    2.2930942048
 C    1.9502353906   -1.4114675281    3.4026531973
 C    2.6299523080   -1.9322780703    4.6361595857
 N    0.6180355821   -1.4202472411    3.3794042579
 N   -0.0199009961   -0.9698508546    2.3011371675
 H    1.0825643167    1.8414870086   -0.1258654873
 H   -0.4905633366    1.8758806033   -0.9435920283
 H   -0.4064631752    2.0245507385    0.8192775521
 H   -1.1072912590   -0.3084334437    0.1757907374
 H    0.3491652232   -0.4657989437   -0.8243553884
 H    3.7481926651   -0.9083026716    2.2883916801
 H    3.2649011497   -1.1651128316    5.0924754849
 H    1.8773605368   -2.2444625260    5.3617539089
 H    3.2721944745   -2.7885455339    4.4029066906