18

 O   -0.0901368143    1.4461746153    0.0923810307
 C   -0.0028168700    0.0272269076   -0.0142559158
 C   -1.4379122719   -0.5005173413    0.0074987165
 O   -2.0939133648   -0.0295807901    1.1762037502
 C   -2.2023589145   -0.0453621879   -1.2441957104
 O   -3.5225713803   -0.5930158436   -1.2740508845
 C   -3.6351942432   -1.8704768925   -0.8405354829
 N   -2.7786951549   -2.6053495887   -0.2731296365
 C   -1.4783503886   -2.0314171197    0.0528494560
 H    0.7725777231    1.7958245224    0.3307195777
 H    0.5090304783   -0.2708778340   -0.9415035188
 H    0.5431312521   -0.4025017693    0.8371967844
 H   -1.8785106745    0.9100534563    1.2386789723
 H   -2.3178647306    1.0395754898   -1.2618554454
 H   -1.6676755774   -0.3562356143   -2.1523194652
 H   -4.6376946663   -2.2414946961   -1.0451979181
 H   -0.7239500918   -2.4513415384   -0.6261951745
 H   -1.2103966606   -2.3530162855    1.0648740743