21

 C   -0.3823132038    1.4733394723    0.1566851261
 C    0.0512010596    0.0328606781   -0.0400268027
 C   -0.6604332801   -1.0175152720    0.7994448035
 C    0.7723163568   -0.6395463298    1.0968744003
 O    1.8170710940   -1.5532860801    0.9215654417
 C    2.2595247673   -1.8687800139   -0.3665175911
 C    1.4535990807   -2.7758962087   -1.2631716797
 C    1.6110880485   -1.3027916804   -1.5969287575
 C    0.4774524736   -0.2945227749   -1.4699344691
 H    0.4255047441    2.1700515666   -0.0962452603
 H   -1.2417821025    1.7123650798   -0.4817930847
 H   -0.6787384476    1.6656904825    1.1927363117
 H   -1.4334380279   -0.6861492223    1.4858510438
 H   -0.8437458131   -1.9930703388    0.3638709999
 H    0.9588047274   -0.0523545626    1.9917635584
 H    3.3383716783   -1.9908246213   -0.3588135888
 H    1.9805714400   -3.4995507970   -1.8761181603
 H    0.4948887261   -3.1205015296   -0.8932093572
 H    2.2861501725   -1.0904818199   -2.4203925617
 H   -0.3913743102   -0.6073875736   -2.0638188052
 H    0.8284621865    0.6405749753   -1.9222197671