17

 C    0.0376784396    1.5071210520    0.1118876010
 C    0.0343518170    0.0134823840    0.0085056186
 C   -0.9096351262   -0.9093248270    0.8016815363
 O   -1.0748135575   -2.1291695539    0.0809969765
 C    0.3413661101   -2.0465615464   -0.2098475833
 C    0.5663118199   -1.0427037149    0.9789444220
 C    0.4536935344   -0.8423139697   -1.2037493289
 C   -0.3439423897   -0.8456772204   -2.4151582204
 C   -0.9973211239   -0.8321940150   -3.4245560679
 H    1.0305862448    1.9229685139   -0.0931674903
 H   -0.6655806197    1.9460692172   -0.6042775232
 H   -0.2582071475    1.8348997936    1.1143433235
 H   -1.7031827546   -0.5661030951    1.4524463640
 H    0.8117048485   -3.0078685579   -0.4024148000
 H    1.2378688468   -1.0018408796    1.8252212983
 H    1.5095245116   -0.6544901097   -1.4270734310
 H   -1.5839991537   -0.8327924611   -4.3096606853