15

 N    0.0609425966   -1.1678319645   -0.1243821776
 C    0.0376329365   -0.0151294042   -0.0590688851
 C    0.0323913404    1.4552668396   -0.0272170934
 O   -0.5900317542    1.8776823962    1.1821490236
 C   -0.0778932773    3.1706810507    1.5213201696
 C    1.3403307577    3.2042353442    0.9858112948
 C    2.1822410806    1.9870765864    1.2650934344
 C    1.4203288698    2.0883037413   -0.0292704645
 H   -0.5322659291    1.8075546396   -0.9054903491
 H   -0.6821051062    3.9644201705    1.0564880822
 H   -0.1569360315    3.2630939126    2.6086878472
 H    1.8092328961    4.1640044326    0.8062977890
 H    3.2586389310    2.0992116763    1.2109274936
 H    1.8347265843    1.2779312302    2.0098457736
 H    1.9365635351    2.1892218687   -0.9751787583