22

 C    0.5682468874    1.5302864277   -0.2456374989
 C    0.3204189068    0.0701749130    0.0494547151
 N    1.4941854114   -0.8051587562    0.2428974799
 C    0.5572004736   -0.6053586057    1.3573988550
 C    1.0821082066    0.0189389831    2.6300293462
 C    2.2152448401   -0.7516100092    3.3494452459
 C    3.0368343288    0.5415373752    3.1507101577
 C    4.2809240586    0.4671266342    2.2890957118
 O    1.9273049502    1.1743857359    2.4597804783
 H    1.3996531619    1.9079945769    0.3467948347
 H    0.7923255303    1.6641294206   -1.3098805012
 H   -0.3241684418    2.1230613908   -0.0154174831
 H   -0.4980767581   -0.3613897991   -0.5285487191
 H    1.3466871524   -1.7105206532   -0.1937225336
 H   -0.1247829163   -1.4272820934    1.5860442984
 H    0.2265999379    0.2601938195    3.2777289267
 H    2.0161702560   -1.0394055781    4.3826092896
 H    2.5930850926   -1.6105817364    2.7914126178
 H    3.2463406171    1.0756267346    4.0875052123
 H    4.0554082026   -0.0489807262    1.3519105151
 H    4.6437408580    1.4732204628    2.0546428084
 H    5.0788933339   -0.0681180366    2.8166211829