12

 O    0.2058464129    2.1507262289   -1.8299972683
 C    0.5775377554    1.3531558016   -1.0154225839
 C    1.3481552298    1.7285127827    0.2593009585
 O    1.6825614827    0.8507374074    1.0250203483
 C    1.6259844025    3.1285363588    0.4605608824
 C    1.8647870390    4.2956740975    0.6408477209
 C    2.1696434991    5.6995662966    0.8887207542
 C    1.6794872674    6.6052690620   -0.1575156640
 N    1.3035785822    7.3362181680   -0.9674669075
 H    0.4085085891    0.2589870467   -1.0884316095
 H    1.7386895866    6.0065621486    1.8506876462
 H    3.2553398834    5.8297180912    0.9870729726