18

 C    0.4426945812    1.5073552413   -0.3966749428
 C    0.0297998866    0.1091204772    0.0435153407
 O    0.1251700906   -0.7783743297   -1.0775835750
 C    0.9484557716   -1.8961569280   -0.7731342023
 C    1.8748254126   -1.4306305002    0.3470241188
 C    0.9151769744   -0.5351019188    1.1633257758
 C    1.5669639313    0.3949308993    2.0694460710
 C    2.1123464689    1.1535536135    2.8263198690
 H    1.5002245775    1.5370351287   -0.6758786573
 H   -0.1497263165    1.8009635545   -1.2675760271
 H    0.2766478848    2.2331085851    0.4037682550
 H   -1.0152510435    0.1300863825    0.3803850495
 H    0.3370877288   -2.7522333050   -0.4436378229
 H    1.4770348706   -2.1900200635   -1.6851674709
 H    2.2917037641   -2.2476253391    0.9396458101
 H    2.7012898022   -0.8344159900   -0.0503695307
 H    0.2678856767   -1.1944832422    1.7555973864
 H    2.5931920681    1.8254747244    3.4932654228