18

 O    0.0377126032    1.5111476489   -0.2103662878
 C    0.0848973398    0.0959287928   -0.1311427821
 C   -1.3451240819   -0.3985613830    0.0656822921
 C   -1.4285502792   -1.9116487275    0.1614479826
 N   -0.7993925156   -2.6125357366    1.3537609668
 C   -1.5922910393   -2.2384512113    2.5186159374
 C   -2.1251668189   -3.3176456527    1.6350842235
 C   -2.7484787754   -2.6762278611    0.4285399094
 O   -3.7583521597   -2.8436012203   -0.1904409567
 H    0.9373821791    1.8384770235   -0.2998893893
 H    0.5044721331   -0.3457834969   -1.0499899837
 H    0.7126419249   -0.2413882732    0.7077444863
 H   -1.7655964902    0.0880702060    0.9513906802
 H   -1.9571386948   -0.0751825941   -0.7840535371
 H   -0.9858727358   -2.3641934597   -0.7358127133
 H   -1.1595095023   -2.5602890766    3.4609542767
 H   -2.0928536688   -1.2751696615    2.5588059558
 H   -2.1994445681   -4.3525521768    1.9481399592