22

 C    0.3767113156    0.7147853479    0.6773167044
 C   -0.3706418717    0.3487195389   -0.6150482075
 C    0.5308064839   -0.2264716091   -1.6608064403
 N    0.7548341051    0.2640692302   -2.8127423985
 C    1.6968473791   -0.6434818638   -3.4745151029
 C    2.0108078278   -1.7626876059   -2.4339909028
 C    1.5800129876   -3.1523188065   -2.8926343666
 C    3.4572713171   -1.7363397074   -1.9475714030
 O    1.1584931054   -1.3817241270   -1.3084471585
 H    0.8724930217   -0.1616704940    1.1020160943
 H    1.1379901604    1.4771282848    0.4854291580
 H   -0.3193742804    1.1113634095    1.4216355339
 H   -1.1491859588   -0.3898463419   -0.3878726591
 H   -0.8575463595    1.2245728064   -1.0487176817
 H    1.2476245150   -1.0484839685   -4.3893350028
 H    2.5996822664   -0.0984164965   -3.7736712885
 H    2.1801779694   -3.4710558443   -3.7512006264
 H    1.7082720899   -3.8867647619   -2.0919553604
 H    0.5282187201   -3.1478832436   -3.1928483602
 H    3.7241269751   -0.7365052757   -1.5927412758
 H    3.6079349044   -2.4456280830   -1.1283483907
 H    4.1369839066   -2.0026657886   -2.7637113546