14

 O   -0.0392075968    1.3943090034    0.1176597752
 C    0.0301354061    0.0394381424   -0.0397264370
 C    0.0169382849   -0.7944505882   -1.1308473468
 N    0.0268206114   -0.8884897986   -2.5121888974
 C    0.0119145205   -2.2453843384   -2.7943163228
 N    0.0240991947   -3.0259760493   -1.7496948587
 C    0.0263790088   -2.1468190382   -0.6716075491
 C    0.0327954141   -2.1311092875    0.7096403683
 N    0.0388979482   -0.7966209126    1.0637137620
 H    0.8459966415    1.7715370420    0.0488900888
 H   -0.0790885005   -0.1468213218   -3.1808172758
 H   -0.0005134045   -2.5879669483   -3.8204040615
 H    0.0321261866   -2.9100474725    1.4522018389
 H   -0.0133082850   -0.4456559025    2.0047003859