20

 C   -0.3705803117    1.1904087309    0.7219930908
 O   -0.2152583641   -0.2038421408    0.8366999047
 C    1.0404719300   -0.6592703052    0.3899946303
 C    1.1105637161   -2.1790368997    0.5590725147
 O    2.3030934097   -2.6714099939   -0.0475482128
 C    0.9764010304   -2.6091631230    2.0192481304
 C    0.9116388978   -4.1208966197    2.1918854635
 O    0.8459717644   -4.3957478347    3.5844359809
 H   -0.2785531523    1.5263903040   -0.3228742717
 H   -1.3696698723    1.4401396077    1.0870620079
 H    0.3746845852    1.7348813677    1.3234050550
 H    1.1995162785   -0.4111828507   -0.6715202011
 H    1.8560488989   -0.1817770796    0.9656639774
 H    0.2942058967   -2.6177928206   -0.0275062630
 H    3.0465498062   -2.3774979497    0.4912558813
 H    1.8315149195   -2.2234368766    2.5935239626
 H    0.0792652372   -2.1499428247    2.4450470478
 H    0.0260779777   -4.5134297111    1.6652798459
 H    1.7963258948   -4.5829717492    1.7304887104
 H    0.8281486774   -5.3501668711    3.6993979150