23

 C    0.0252666543    1.5655402728   -0.0237048358
 C   -0.0125293370    0.0293220121    0.0128448758
 C   -1.4798182150   -0.4475750751    0.0533720758
 C    0.7585590583   -0.6055400754   -1.1863559799
 C    1.5516434456   -1.8112552529   -0.6199204902
 C    2.9383397608   -1.9600250690   -1.2408117009
 O    3.5487656864   -3.1140505551   -0.6804404970
 C    1.5738091103   -1.5269208744    0.8652405496
 C    0.7504420176   -0.5366802417    1.1981538899
 H    1.0557731070    1.9349296754   -0.0132420974
 H   -0.4631692241    1.9489847997   -0.9270027938
 H   -0.4946946284    1.9950379366    0.8402160221
 H   -2.0419818719   -0.0547566883   -0.8017908084
 H   -1.5410778378   -1.5401215584    0.0303190293
 H   -1.9793554835   -0.1055034599    0.9666389621
 H    0.0902630378   -0.8876189425   -2.0052689284
 H    1.4648170804    0.1303770767   -1.5907533620
 H    1.0244966480   -2.7580656157   -0.8072507711
 H    2.8458911845   -2.0504183784   -2.3357140146
 H    3.5290532462   -1.0531789006   -1.0316356220
 H    4.4425033217   -3.1823168416   -1.0281299050
 H    2.1878705327   -2.1037118815    1.5468707210
 H    0.5790928061   -0.1737080331    2.2075251309