18

 C    0.1295225077    1.4662478695    0.1687100919
 C    0.0387953473    0.0177914551    0.0550799030
 C   -0.0256665347   -1.1810507178   -0.0354560208
 C   -0.0936088902   -2.6351411382   -0.1539969307
 N    0.8327276704   -3.2931523647    0.8079301610
 C    0.0964202844   -3.9939997453    1.5640097080
 O   -1.2377579362   -4.0489540752    1.3693374869
 C   -1.4979438012   -3.2720875464    0.1655263490
 C   -2.6586585987   -2.3299923014    0.4140613663
 H    0.7418944018    1.7557497288    1.0296713881
 H    0.5827780659    1.9087607729   -0.7250640387
 H   -0.8597588279    1.9187496478    0.2985575447
 H    0.2126399618   -2.9160194213   -1.1679769318
 H    0.4512003175   -4.5853753624    2.4015859475
 H   -1.7550747061   -3.9948595653   -0.6164001881
 H   -2.4143946797   -1.6140888885    1.2020170046
 H   -2.8891461454   -1.7696511701   -0.4964166483
 H   -3.5465463667   -2.8964049976    0.7079446673