16

 N    0.0688760824    1.2016951529    0.6631647239
 C   -0.0251114970    0.0916029791    0.0919182998
 C   -1.1607507250   -0.8512988782   -0.2459242461
 C   -0.0359967506   -1.7035853785   -0.8515700143
 O    0.9479945546   -0.7184509280   -0.4703295322
 C    0.2754858759   -3.2007582182   -0.6547418204
 C   -0.8213521675   -3.5229130212   -1.6996651777
 C    0.0540605770   -2.3656771006   -2.2411072208
 O    1.2530786048   -3.0952362052   -1.7640807015
 H    1.0388408089    1.5207504808    0.6957310761
 H   -1.6753675638   -1.2775035707    0.6171169046
 H   -1.8940190005   -0.4528664052   -0.9494087471
 H    0.5765313956   -3.7411343993    0.2418229631
 H   -0.6703491681   -4.4685171424   -2.2185191211
 H   -1.8674982702   -3.3275120642   -1.4507824263
 H    0.0917804935   -1.9129495612   -3.2310962399