16

 C    0.0076792521    1.5002103405    0.0551462694
 C   -0.0081082165   -0.0287605433    0.0384092821
 N    1.0707266481   -0.6389980895   -0.7648464004
 C    1.8021751397   -1.1442815809    0.2781720007
 O    2.8791945842   -1.6729352052    0.3523911454
 C    0.7173697852   -0.7029858085    1.2967088482
 O    1.0898122878    0.0872573953    2.3787114826
 C   -1.3340995989   -0.5549827612   -0.2587773135
 C   -2.4321967383   -0.9834562051   -0.4953400530
 H    1.0119213107    1.8697086583    0.2779721447
 H   -0.3038321703    1.8992398650   -0.9141402792
 H   -0.6784697400    1.8727285856    0.8196672612
 H    1.2037474769   -0.6876094444   -1.7648350846
 H    0.1280944839   -1.5441618566    1.6695700152
 H    1.9497434246    0.4815282838    2.1987110924
 H   -3.4008983991   -1.3663287639   -0.7038296313