19

 C    0.1819032171    1.1956677781    0.3988200458
 C    1.3989217522    1.9391128090   -0.1973549865
 C    2.0841476691    0.8514370449   -0.9951453116
 C    3.1330257893    1.0013748611   -2.0337590929
 C    3.8780357847   -0.1014114865   -2.1474732127
 C    3.4777813427   -1.1718918007   -1.1489966819
 C    2.2869593521   -0.5587291284   -0.4070361586
 C    1.0450883470   -0.2287499732   -1.1908211889
 O   -0.1133497720    0.0984989433   -0.4722911924
 H    0.4171979883    0.8214941345    1.4046768806
 H   -0.7161310997    1.8153250017    0.4729216117
 H    1.0819209639    2.7453409969   -0.8694389721
 H    2.0203698162    2.3821304139    0.5871005634
 H    3.2317204916    1.8953441554   -2.6397005784
 H    4.6648582966   -0.2524148802   -2.8774656063
 H    3.2154510927   -2.1151060989   -1.6470334345
 H    4.3004694421   -1.4103745359   -0.4614638407
 H    2.1752355066   -0.7473208499    0.6551114661
 H    0.8296584196   -0.6833917549   -2.1528474099