19

 O   -0.0086719382    1.3398109356   -0.3448310576
 C    0.0028735556   -0.0110797999    0.1016865763
 C   -1.4230417703   -0.5207065018    0.0598538891
 C   -1.9962249227   -0.6970996548   -1.4036895021
 C   -1.5934172417   -2.1486367493   -1.2560224047
 C   -0.7344310974   -3.0603945027   -1.6955614863
 C   -0.1600788619   -3.7680537788   -0.4747753559
 O   -0.5023359680   -2.9325278669    0.6515604504
 C   -1.5590048161   -2.0874944301    0.2351450548
 H    0.8964362005    1.6642984403   -0.3343856890
 H    0.6410639202   -0.6375190640   -0.5390182929
 H    0.3889722245   -0.0932854426    1.1287576784
 H   -2.0514846667    0.0734787120    0.7279616692
 H   -3.0764286777   -0.5304118000   -1.4350764297
 H   -1.5192646928   -0.1191335681   -2.1965410383
 H   -0.3569708162   -3.2132892015   -2.6986574693
 H   -0.5605435935   -4.7830777540   -0.3204457724
 H    0.9329474039   -3.8501825366   -0.5298897189
 H   -2.4874640515   -2.3377959368    0.7674309489