18

 O    0.2882500132    1.1564666529   -0.6980132498
 C    0.1152203247   -0.0940173833   -0.0799238826
 C    0.1368652580    0.0029317410    1.4606100409
 N   -1.1715497007   -0.7095130152    1.5440909639
 C   -2.2824939164    0.0185036438    2.1886459609
 C   -2.8011476350    1.0526104013    1.1678805945
 C   -2.3930877531    0.4724908688   -0.1887049616
 O   -2.7826940672    0.8107603615   -1.2772351051
 C   -1.3491786178   -0.6135113893    0.0755428164
 H   -0.0586942856    1.1039510448   -1.5963356882
 H    0.7926045920   -0.8510628217   -0.4934224981
 H    0.9474531600   -0.5169077761    1.9788754298
 H    0.1121041219    1.0492845540    1.7893629934
 H   -3.0735513963   -0.6977770640    2.4399690839
 H   -1.9384947029    0.4662356238    3.1244904864
 H   -3.8752952675    1.2450104542    1.2083893993
 H   -2.2915522567    2.0193692328    1.2664499741
 H   -1.6107871806   -1.5417431693   -0.4431606280