17

 C    0.4957668879    1.3737607695   -0.0407775052
 O    1.2921127285    0.2083890561    0.1785121124
 C   -0.1183756985    0.0467588748    0.0066220787
 C   -0.8842560746   -0.5353604824    1.1962308994
 C   -1.3914397272   -1.8532560793    0.6529837196
 C   -1.2030086304   -1.9686912367   -0.6624552245
 C   -0.5609853164   -0.7471529534   -1.2167186748
 C   -0.9394399645   -0.1506702917   -2.5117753806
 O    0.3130649170   -0.8137906782   -2.3388997230
 H    0.3932402746    2.0455289489    0.8115095476
 H    0.6543780932    1.8657010993   -0.9998074145
 H   -0.2204371682   -0.6465757049    2.0599773078
 H   -1.7146563465    0.1131782003    1.5058800450
 H   -1.8735585959   -2.5919496399    1.2824681181
 H   -1.4898259184   -2.8049983588   -1.2878891134
 H   -1.6607362660   -0.6646445102   -3.1469462776
 H   -0.8882899047    0.9286813464   -2.6468929751