18

 O    0.0735935832    1.4209641443   -0.0549221254
 C    0.0326997276    0.0147153493    0.0185936239
 C    0.8228847083   -0.5604610223    1.1976940130
 C    0.6996204049   -2.0873019707    1.2326810583
 O   -0.6578599965   -2.5016006194    1.2829090646
 C   -1.3910471928   -2.0777847763    0.1611991837
 C   -1.4232217907   -0.5352397455    0.0405035872
 C   -2.1667504666    0.0822175636    1.1404655142
 N   -2.7180033300    0.6097113728    2.0093924538
 H   -0.3096977733    1.7776407315    0.7562174580
 H    0.4813712110   -0.3340133364   -0.9195400177
 H    1.8730229492   -0.2632911281    1.1146053736
 H    0.4308634115   -0.1468936003    2.1351487212
 H    1.1920273015   -2.5265183010    0.3481571855
 H    1.1770921325   -2.5017133605    2.1237674304
 H   -0.9557913841   -2.4786816543   -0.7699393106
 H   -2.4007323665   -2.4805600890    0.2696378436
 H   -1.9180558689   -0.2541796978   -0.8960877473