24

 C   -0.0996767871    1.5261254287    0.1679397003
 C   -0.0826400020   -0.0006047328    0.0087477270
 C   -1.5128564352   -0.5467219223   -0.1106792362
 C    0.7535748295   -0.4582779685   -1.2019989735
 C    2.2467656313   -0.0813109349   -1.1930439741
 C    3.0087752763   -0.6774863182   -0.0030857264
 C    2.8779206350   -0.5332957837   -2.5348387181
 C    4.2637451168   -0.0987663973   -2.6965437266
 N    5.3575956527    0.2577872066   -2.8082616985
 H    0.8987617846    1.9364572452    0.3458337439
 H   -0.5041126138    2.0085171779   -0.7303320675
 H   -0.7300227241    1.8209221800    1.0130602072
 H    0.3597029690   -0.4323498751    0.9161482332
 H   -2.0131832854   -0.1446618431   -0.9999491418
 H   -1.5196339593   -1.6389298363   -0.1908730250
 H   -2.1148562432   -0.2703222117    0.7609353661
 H    0.6735653325   -1.5514322500   -1.2890365411
 H    0.2915618224   -0.0476477746   -2.1116152272
 H    2.3373307983    1.0104674085   -1.1526423045
 H    2.9079019615   -1.7694502679    0.0175352475
 H    4.0748034574   -0.4386345409   -0.0583413801
 H    2.6322494074   -0.2904278085    0.9472165550
 H    2.8455248573   -1.6271999633   -2.6140197855
 H    2.2958294983   -0.1397173377   -3.3759152039