21

 C   -0.0845397861    1.5080407507   -0.0500412927
 C    1.2634943781    0.8109570820   -0.0295167114
 C    0.0123124809   -0.0013787807    0.0263751382
 C   -0.3628354692   -0.7635711513    1.2835437014
 C   -1.7704332543   -1.3314609932    1.2026652072
 C   -2.9568916375   -0.4602963158    0.8874521485
 C   -2.4303800562   -1.4188548829   -0.1570954810
 C   -1.6676934417   -0.8779465579   -1.3644111018
 O   -0.2690422456   -0.7234023669   -1.1415461830
 H   -0.3965904728    2.0595411964    0.8304913124
 H   -0.4008655617    1.9392460405   -0.9932650173
 H    1.8186193597    0.7791203328   -0.9599035110
 H    1.8723583734    0.8803226906    0.8657794801
 H    0.3438225448   -1.5957640066    1.3963335778
 H   -0.2474299560   -0.1224154613    2.1655753587
 H   -1.9561890694   -2.1598482383    1.8799141167
 H   -3.9020150858   -0.6877419764    1.3685095656
 H   -2.7853545560    0.5981732506    0.7179557861
 H   -3.0309377934   -2.3003158965   -0.3560941743
 H   -1.7475282680   -1.5744273139   -2.2033323355
 H   -2.0946489932    0.0844973380   -1.6872824847