15

 C   -0.0577884855    1.5778068608   -0.1143799936
 C    0.0063556580    0.0704768717   -0.0098768725
 O   -1.1697998574   -0.5763265949   -0.4185487073
 C    1.2892104484   -0.6703379137   -0.2016213727
 C    0.6331460438   -0.6345216987    1.1850293269
 C    1.2966846483    0.1072422345    2.2794500458
 O    1.2270478753   -0.1918510082    3.4461720557
 H    0.8645848446    2.0556883066    0.2244445219
 H   -0.2162247802    1.8724769795   -1.1589975681
 H   -0.8913165426    1.9672241009    0.4773293954
 H   -1.2655756367   -0.4408834492   -1.3685216125
 H    1.2583914380   -1.6221604178   -0.7184779675
 H    2.2050345176   -0.1008234462   -0.3289509007
 H    0.1099267746   -1.5293411500    1.5016791442
 H    1.9055977637    0.9820622346    1.9514275949