14

 C   -0.0749767296    1.4763150054   -0.0872094501
 N    0.1927663830    0.0588792598    0.0988983237
 C    0.6624149432   -0.6612244588   -0.9818747517
 N    1.1733010538   -0.1191874619   -2.0848608655
 N    1.5189744839   -1.1814669505   -2.8243045613
 N    1.2999140587   -2.3778138315   -2.2702829730
 C    0.7449244212   -2.0697543803   -1.1124796671
 O    0.3058279632   -2.9689965632   -0.2050611971
 H    0.8503915471    1.9862327647   -0.3671028337
 H   -0.8176938328    1.6810272315   -0.8727449561
 H   -0.4294069835    1.8947202647    0.8575033693
 H   -0.5164445939   -0.4385505997    0.6174171453
 H    2.0588821404   -1.0829412067   -3.6652848790
 H    0.4712006951   -3.8501765736   -0.5612887739