17

 O   -0.0235287971   -0.0072509222   -0.0835488796
 C   -0.0485872241    1.1856102307    0.0089604972
 C   -1.1724496163    2.2264231158    0.0101674765
 C   -1.5402450763    2.7015836729    1.4493044199
 C   -0.3059463886    3.6522096137    1.4577737106
 O    0.7899115701    3.1782735306    2.2251739036
 C    1.7362716314    2.4861858352    1.4109221077
 C    1.0659873648    2.2614362698    0.0537773568
 C   -0.0493325926    3.3371696186   -0.0407457850
 H   -1.9798112445    2.0925716483   -0.7096321715
 H   -2.4802142508    3.2590421158    1.4420519587
 H   -1.5742027290    1.9490287917    2.2399568473
 H   -0.5105847569    4.6869788137    1.7426630947
 H    2.6463078384    3.0930911870    1.3010030113
 H    2.0101600033    1.5456102279    1.9017926713
 H    1.7769212963    2.1785253894   -0.7712813889
 H    0.0103123019    4.1293881610   -0.7820596006