14

 C   -0.0621120508    1.5418975144    0.1090907586
 C    0.0156063745    0.0189640981   -0.0237008712
 C    0.7211540651   -0.4354366614   -1.2595481661
 N    1.2266764744    0.3532032159   -2.1496567216
 O    1.7906990828   -0.4984651549   -3.1357522649
 C    1.5997399126   -1.8110207509   -2.7954487609
 O    1.9619048525   -2.7612033915   -3.4269444031
 N    0.9126344530   -1.7530511791   -1.5903070729
 H    0.9362574387    1.9841558479    0.1368779580
 H   -0.5955088962    1.9821295605   -0.7363618560
 H   -0.5871873406    1.8085242050    1.0294912288
 H    0.5299146196   -0.4160145455    0.8435195553
 H   -0.9918260082   -0.4179310699   -0.0245717675
 H    0.6228825625   -2.5680722486   -1.0783554166