18

 C   -0.0774255580    1.6808444074    0.2930319493
 C   -0.0706354099    0.1776110555    0.1081887263
 C   -1.3890865045   -0.4163809470   -0.3903609470
 C   -1.7458425585    0.0176577817   -1.7387174019
 C   -2.0236402556    0.3839226641   -2.8494514826
 C    1.2102174909   -0.4905931715   -0.3567125501
 C    0.7261094842   -0.6692928164    1.0638182716
 O    1.3808334631   -0.0167205445    2.1128603800
 H    0.8696068726    2.0270083733    0.7096162973
 H   -0.2518343719    2.1842242296   -0.6629486315
 H   -0.8732646241    1.9839265600    0.9835430084
 H   -1.3308619135   -1.5120963572   -0.3717317394
 H   -2.1947512134   -0.1423667726    0.3046862918
 H   -2.2762697672    0.7024357299   -3.8301932211
 H    1.1488943491   -1.3297579937   -1.0420827277
 H    2.0732528958    0.1511536604   -0.5011087278
 H    0.3074914074   -1.6407912434    1.3316299817
 H    2.2443956135   -0.4275095458    2.2237667827