21

 C   -0.0312327382    1.6248402042    0.0451709922
 C    0.0953892700    0.1071022743   -0.0086816878
 C    0.8282564638   -0.5976608778   -1.1522002474
 C    1.3009300382   -1.7121368512   -0.2468846504
 C    2.3198389679   -0.7301019370   -0.7788988764
 C    3.3853389240   -0.9484028396   -1.8112268830
 C    2.4931853226   -0.0899265036    0.6015992918
 C    1.0868532190   -0.6719675579    0.9191858022
 O    0.7282815905   -1.0596423186    2.2026759789
 H    0.9234696717    2.1267206397   -0.1358653220
 H   -0.7364554876    1.9814083231   -0.7137512656
 H   -0.4101185334    1.9569150290    1.0195987675
 H   -0.8892927915   -0.3588860904    0.1163706038
 H    0.5143358069   -0.6863386383   -2.1854838999
 H    1.2118614470   -2.7869894399   -0.3049574792
 H    3.0106222561   -1.5559923021   -2.6422966179
 H    3.7369640413    0.0024315721   -2.2293619657
 H    4.2529341690   -1.4658332276   -1.3860637504
 H    3.2572965972   -0.6200086045    1.1787476880
 H    2.6507306111    0.9921698360    0.6831736122
 H    0.7387642743   -0.2803157097    2.7696232295