16

 N    0.6203974425    0.3071452636   -0.5339645454
 C   -0.3041912535    0.2346865502    0.4583393651
 O   -0.3194085700    0.9495168075    1.4392062568
 C   -1.4237336860   -0.7985579875    0.2226549615
 C   -0.9827385865   -2.1720676219   -0.2672481278
 O   -0.1600957218   -2.3210628268   -1.1408450901
 C   -1.6705554274   -3.3543905307    0.4247767104
 C   -1.3372056462   -4.6593524940   -0.1164109908
 C   -1.0664782156   -5.7405516580   -0.5617394440
 H    1.4192499381    0.9000231455   -0.3735046243
 H    0.6903994609   -0.4577641503   -1.1913974151
 H   -2.0009719862   -0.8621492182    1.1457701293
 H   -2.0865908795   -0.3923005475   -0.5535130974
 H   -1.4096109502   -3.2917914997    1.4916164012
 H   -2.7547896154   -3.1768811015    0.3908915303
 H   -0.8234991932   -6.6951689707   -0.9585460794