15

 C    0.1531647418    1.5210959116   -0.0664740808
 C   -0.0167111181    0.0189052377    0.0806942526
 O    0.5185843804   -0.6427230936   -1.0929107483
 C    1.2999797227   -1.7146898754   -0.7801096119
 O    1.6881927052   -2.4971430519   -1.5972018865
 C    1.5323790527   -1.7148322894    0.7056372907
 N    2.1735265903   -0.4402218654    1.1365128032
 C    0.7198281376   -0.6099186066    1.2561989760
 H    1.2149009029    1.7757643479   -0.0771251847
 H   -0.3085394070    1.8667882827   -0.9945342187
 H   -0.3282117366    2.0362836858    0.7711045573
 H   -1.0801629277   -0.2460160998    0.1362884330
 H    1.7582005556   -2.6448438873    1.2101263085
 H    2.6070555440   -0.5981428869    2.0439870378
 H    0.2467362061   -0.6535276295    2.2304470917