17

 O    0.0615852544   -0.0110343305   -0.2919203705
 C    0.0343973055    1.1641584621   -0.0532841438
 N   -0.9864022425    2.0297520414    0.2783405441
 C   -0.1676437607    3.2548866468    0.2130131680
 C    0.0846330178    4.0323842614    1.5162870817
 N    1.3007608181    3.5071024665    2.1697751760
 C    1.2267224581    2.1003801538    2.5826514895
 C    1.8782888379    2.4574282337    1.2946158541
 C    1.0703482815    2.3226904739    0.0117092013
 H   -1.9874986736    1.8994130750    0.2422388291
 H   -0.4323001082    3.9015624956   -0.6290866896
 H    0.2701322112    5.0854894774    1.2788424455
 H   -0.7695296624    3.9905177797    2.1999817701
 H    1.8411662046    1.8512512078    3.4436841342
 H    0.2657220954    1.5948013776    2.5514031899
 H    2.9605106238    2.4401341538    1.2141794029
 H    1.6665612090    2.4545475139   -0.8905427124