21

 C   -0.2434969369    1.5420744944   -0.0098552448
 C   -0.1343029651    0.0900226201   -0.0321022112
 C   -0.0504372247   -1.1126740718   -0.0481556937
 C    0.0638842919   -2.5496762825   -0.0877370462
 C    1.1925694929   -3.0999996148   -0.9521361180
 C    2.5766240205   -2.6773466525   -0.4721669898
 O    3.5306833463   -3.2665147365   -1.3449799459
 C   -0.3071194033   -3.3211962703    1.1739725617
 C   -1.2265815176   -3.3531668126   -0.0125041933
 H    0.2701483214    1.9911668150   -0.8673234667
 H   -1.2902790363    1.8640653220   -0.0496388685
 H    0.1985269427    1.9666450434    0.8987786811
 H    1.1441374509   -4.1948381800   -0.9574631088
 H    1.0648140874   -2.7686307805   -1.9888068077
 H    2.6480888414   -1.5797874385   -0.4781372339
 H    2.7260855733   -3.0106145814    0.5676045246
 H    4.4042159381   -2.9649266859   -1.0801713757
 H    0.2756411359   -4.2089028300    1.3965622357
 H   -0.6094642995   -2.7483095773    2.0422446914
 H   -2.1550170135   -2.7978592912    0.0449010209
 H   -1.2764643160   -4.2614838892   -0.6034114312