16

 N    0.0694385699   -1.0779017224    0.1033423064
 C    0.0633720951    0.0788140806    0.0802069281
 C    0.0643907235    1.5046922282    0.0320912096
 C    0.2521085307    2.3408073025   -1.2055611738
 C    1.2016855251    2.5184544181   -0.0445012771
 C    0.4760992308    3.1839821179    1.0969205960
 C    1.0136361412    3.6722082676    2.3957307104
 C    0.2684892839    4.6137940278    1.4534514022
 O   -0.6177076596    2.2396233663    1.0515477870
 H    0.6672121258    1.8200104059   -2.0619108660
 H   -0.4995766709    3.0925257989   -1.4252382399
 H    2.2664445022    2.3436138226   -0.1100396627
 H    0.4983164551    3.3499030861    3.2935479044
 H    2.0880862685    3.7839212775    2.4988566970
 H    0.8299462875    5.3718357435    0.9178065723
 H   -0.7359901089    4.9063596389    1.7389569459