18

 C   -0.1425227097    1.3632038367   -0.2031060642
 C    1.2814383479    0.9753861558    0.0980630138
 C    0.2087364723   -0.0812041631    0.0715003307
 C   -0.2530058994   -0.7225151423    1.3507700592
 C   -1.6380161373   -1.3911855984    1.2743537823
 O   -1.5204595141   -2.4929857232    2.1594471233
 C   -0.2010725450   -2.9423929455    1.9838293624
 O    0.6056922649   -1.8087776697    1.7297781260
 H   -0.6915488731    1.9068052060    0.5592359079
 H   -0.4030144240    1.6413863207   -1.2178174178
 H    2.0025515303    0.9888487831   -0.7110844673
 H    1.6910223704    1.2529739405    1.0634876482
 H    0.2111384231   -0.7535989737   -0.7823692418
 H   -0.2378558219    0.0247329591    2.1583856411
 H   -2.4548763815   -0.7540498493    1.6175178283
 H   -1.8507300831   -1.7278961731    0.2467528001
 H    0.1254233398   -3.4402464721    2.9032876001
 H   -0.1346367898   -3.6444570015    1.1325057278