18

 N   -0.3142269621   -1.0786966424    0.1049828947
 C   -0.1286764542    0.0526747031    0.2457942894
 C    0.1020003380    1.4872809436    0.4536118752
 N    1.3783924821    1.9129622900   -0.1189489941
 C    2.5442188854    1.3784196701    0.6054647871
 C    2.7985678451    2.3281227391    1.8075472180
 C    2.1510790812    3.6717892068    1.3735716070
 C    1.5626954683    3.3701062629   -0.0328568841
 H   -0.7040177830    2.0323964318   -0.0495544795
 H   -0.0091541187    1.6862200434    1.5357554591
 H    2.3799547688    0.3367017114    0.8895483406
 H    3.3993495164    1.3994979380   -0.0792850342
 H    2.3288498960    1.9440676210    2.7174582917
 H    3.8659590924    2.4252099995    2.0195856448
 H    1.3660524884    3.9729670048    2.0729417224
 H    2.8722717647    4.4918422466    1.3348567375
 H    2.2790901289    3.6614497755   -0.8092692823
 H    0.6259589823    3.8940538147   -0.2398554432