16

 O   -0.1044578954    1.3186843342    0.3716507211
 N    0.0030127385   -0.0786171650    0.3990105299
 C   -1.0280248099   -0.6343912936   -0.0848143561
 C   -2.4190458284   -0.1978885188   -0.5146672392
 C   -2.8602955382   -1.6857466743   -0.4205355409
 O   -2.7705037605   -2.3591452965   -1.6826283793
 C   -1.4236810417   -2.8140181294   -1.4239936262
 C   -1.3678653810   -2.1052831405   -0.0535299658
 O   -0.8912438099   -2.8939897011    0.9773854207
 H    0.7265131096    1.5985594898    0.7714462674
 H   -2.8845564336    0.4771642449    0.2105165543
 H   -2.5104203389    0.2317959647   -1.5146277194
 H   -3.7562863622   -1.9361105247    0.1497298695
 H   -1.3824076620   -3.9030354051   -1.3054681641
 H   -0.7088464667   -2.4941508674   -2.1893963483
 H   -0.5587687799   -2.3099126871    1.6687403364