20

 C    0.7497419649    1.2023607832    0.0295488260
 C    0.1007750372   -0.1529761075   -0.0435898432
 C   -0.0651128008   -0.8193228121   -1.1885184842
 C   -0.7474337575   -2.1556375668   -1.2959852652
 N   -0.8546533034   -2.9329528508   -0.0567807221
 C    0.3756199141   -3.1281933278    0.7049074043
 C   -0.6930448296   -2.2141497414    1.2074275857
 C   -0.4327133853   -0.7170369485    1.2580338686
 O    0.3951007031   -0.3982212814    2.3796171305
 H    1.6214234870    1.1943394391    0.6909122760
 H    1.0611682360    1.5438074216   -0.9610083674
 H    0.0590261878    1.9446119195    0.4494183329
 H    0.2826413163   -0.3792693058   -2.1218403421
 H   -1.7682641047   -2.0185696841   -1.6816205876
 H   -0.2333797751   -2.7836233424   -2.0349595095
 H    0.5026364282   -4.1156028139    1.1402733883
 H    1.2887078759   -2.6725908504    0.3251037379
 H   -1.3360224942   -2.5735388617    2.0081405720
 H   -1.3789797463   -0.2064837732    1.4866578247
 H    1.1819034363   -0.9515102356    2.3141315144