21

 C   -0.0705715435    1.5984763896    0.0857594862
 C   -0.0168370770    0.0707690514    0.0108884695
 C   -1.4065043387   -0.5771900337    0.0113016093
 C   -1.3666439739   -2.1131829727   -0.0534850903
 C   -0.7436133604   -2.6982109412    1.2116371691
 O   -0.0958498658   -3.7124679026    1.2421476043
 C   -2.7618946367   -2.6995234496   -0.2334595675
 C   -3.0875216550   -4.1007154988    0.0503268819
 O   -3.4713039640   -3.0592530741    0.9583246581
 H    0.9336548488    2.0326399840    0.0779776255
 H   -0.6217388140    2.0172106986   -0.7636437184
 H   -0.5714794102    1.9326278576    1.0009355585
 H    0.5216554886   -0.2374277204   -0.8949021837
 H    0.5716329270   -0.3149274654    0.8542586448
 H   -1.9604193198   -0.2725226525    0.9101799911
 H   -1.9843083391   -0.1997482264   -0.8418073044
 H   -0.7507027039   -2.4398473698   -0.9011628894
 H   -0.9465537047   -2.1162779133    2.1375961258
 H   -3.3741911227   -2.1765792176   -0.9707989210
 H   -3.9100433549   -4.5743487746   -0.4828022799
 H   -2.3086611900   -4.7687525484    0.4111499206