18

 C   -0.1790651153    1.5161304681   -0.0186465571
 C    0.1271019771    0.0285640644   -0.0023220248
 N    1.2944609181   -0.4137025559   -0.8454835986
 C    1.8209357333   -1.2209181695    0.2542656302
 C    2.2037943138   -0.2893047360    1.3888430419
 C    0.7582281184   -0.5985813485    1.2440731681
 O   -0.0213400727   -1.1568064457    2.2264213640
 C    2.2285258090   -2.6074810716    0.1042174207
 O    2.1430278711   -3.2186782541   -0.9409323839
 H    0.7099903611    2.1034924927    0.2276772389
 H   -0.5215993779    1.8265055695   -1.0107425506
 H   -0.9690228785    1.7516791284    0.7024878963
 H   -0.7713241720   -0.5517570382   -0.2443398272
 H    1.0081589973   -1.0262467615   -1.6045377217
 H    2.6800259981   -0.7845289343    2.2327003839
 H    2.6211701595    0.6793578785    1.1247948555
 H    0.3437998729   -0.9307081555    3.0881264015
 H    2.6048716265   -3.0875915907    1.0341420226