19

 O    0.0577048185    1.5014405075    0.0149420705
 C    0.0854082493    0.0966592703   -0.0142905541
 C    0.2349625039   -0.5948843231    1.3668086249
 N   -1.2358091625   -0.7599028368    1.3968392960
 C   -1.7794482178   -1.9535654646    2.0013604413
 C   -3.3192325423   -1.8926524652    2.0156164920
 C   -3.9153226211   -3.0754294795    2.6294981880
 N   -4.3679607824   -4.0184489897    3.1204317787
 C   -1.3031108316   -0.5942506189   -0.0746537381
 H   -0.5668176680    1.7674551647    0.6997462006
 H    0.8053503868   -0.1811978261   -0.7840446379
 H    0.7803591824   -1.5498327985    1.2981639113
 H    0.6549015967    0.0045483267    2.1815800005
 H   -1.4569570794   -2.8752872385    1.4809212855
 H   -1.4133237925   -2.0207238842    3.0314592000
 H   -3.6425272279   -0.9984318932    2.5583699889
 H   -3.7006702440   -1.8008390403    0.9921061669
 H   -2.1369880554    0.0104114207   -0.4465773476
 H   -1.2725973529   -1.5508989314   -0.6223290373