21

 C    0.5829094973    1.2187944616   -0.0679590519
 C    0.1355151850   -0.2097321581   -0.0267033857
 C   -0.0374288905   -1.0317217143   -1.0696199188
 C   -0.5438248359   -2.4036235685   -0.6824430830
 C   -0.4483836776   -2.3745505684    0.8524061360
 C    0.9470480338   -2.7448025257    1.4791735217
 O    1.9862958139   -3.0517560807    0.5760448309
 C    1.0135485067   -1.3362993711    2.1396980579
 C   -0.2086408478   -0.8913633811    1.2806568849
 H    1.4718745508    1.3787825507    0.5549185122
 H    0.8178272576    1.5425157597   -1.0855650773
 H   -0.1951023644    1.8835359398    0.3292242360
 H    0.1346914651   -0.7463503692   -2.1035208212
 H   -1.5719112062   -2.5632588307   -1.0342065821
 H    0.0629855145   -3.2126620641   -1.1058514036
 H   -1.2722734090   -2.8866255119    1.3526689977
 H    0.9187114012   -3.5832241507    2.1794931759
 H    2.0716481920   -2.3091188297   -0.0333056403
 H    0.8025805673   -1.3572736814    3.2126197992
 H    1.9530561645   -0.7963070011    1.9837255077
 H   -0.9986603682   -0.3621785650    1.8252539838