23

 C    0.1907829477    1.5771165465   -0.0449930736
 C    0.0308845900    0.0552051191   -0.0788038185
 C   -1.4086007174   -0.3948146823    0.1901853433
 C   -1.5709912704   -1.9019675981    0.1485321554
 O   -0.7906585859   -2.5248972606    1.1644732125
 C   -1.5440777069   -3.6106306182    1.6898258135
 C   -2.8521349382   -3.6065932198    0.8714170431
 C   -4.1131650098   -3.9334779930    1.6475584061
 O   -2.9064836197   -2.2647140250    0.3978085924
 H    1.2266675651    1.8725903867   -0.2383583152
 H   -0.4403777969    2.0600732433   -0.7994838108
 H   -0.0944872918    1.9833088389    0.9317931806
 H    0.3540774293   -0.3255346336   -1.0569020427
 H    0.6900626765   -0.4077215705    0.6634744500
 H   -1.7428294305   -0.0504431364    1.1756282161
 H   -2.0888077339    0.0364006253   -0.5544374282
 H   -1.2536285801   -2.3041817547   -0.8341055652
 H   -0.9889298911   -4.5503191019    1.5828648193
 H   -1.7372884799   -3.4373175891    2.7568897763
 H   -2.7487039094   -4.2908356657    0.0128262683
 H   -4.2304338455   -3.2449638538    2.4896326979
 H   -4.9936354642   -3.8491193044    1.0050297765
 H   -4.0689575870   -4.9565486827    2.0342286129