18

 O   -0.0043678377    1.5308067169    0.1549640058
 C    0.0326249447    0.1134144167    0.1821468807
 C   -1.3496578550   -0.5106219490   -0.1315927871
 C   -1.8491233017   -0.1055085958   -1.4877663079
 C   -2.2726053860   -0.9704657735   -2.4018608341
 C   -2.3085391351   -2.4499908581   -2.1795924677
 N   -1.7577830608   -2.8265835090   -0.8902519398
 C   -1.2923879147   -2.0186181255    0.1034416765
 O   -0.8469966436   -2.4785247792    1.1421887020
 H   -0.4617502719    1.8287495985    0.9477587051
 H    0.7520072484   -0.1836619819   -0.5880215513
 H    0.3810891665   -0.2771496592    1.1442979863
 H   -2.0359199439   -0.1244219534    0.6391112492
 H   -1.8279126876    0.9594747023   -1.6980992867
 H   -2.6191993579   -0.6334053922   -3.3741464693
 H   -3.3451312468   -2.8135893368   -2.2664109104
 H   -1.7479069994   -2.9547568699   -2.9815215652
 H   -1.7002319873   -3.8102447308   -0.6679153261