18

 N   -0.1946205601   -1.1957948945   -0.2277928259
 C   -0.1119675033   -0.0489381231   -0.1012541883
 C    0.0028592237    1.3977448965    0.0583077341
 C   -0.2368971187    2.0397337865    1.4303156007
 C    0.9823864725    1.9216746225    2.3305781922
 C    2.0238224328    0.8360021000    2.0590341087
 C    2.5082238125    1.1388951132    0.6130269770
 C    1.4314134506    2.0712395158    0.0459098247
 C    0.9641489488    2.9519944297    1.2393568646
 H   -0.6342806720    1.8765524327   -0.6906296990
 H   -1.2161791497    2.2700818987    1.8317663170
 H    0.8094723614    2.2493983781    3.3498089708
 H    2.8446913385    0.9003285338    2.7790850106
 H    1.5987023893   -0.1680617168    2.1433506237
 H    3.4678464437    1.6665024096    0.6293737460
 H    2.6351063576    0.2342724138    0.0116946854
 H    1.6891369018    2.5576848820   -0.8937778806
 H    1.0547333405    4.0234162815    1.3506440084