17

 C   -0.0560768638    1.5259307973    0.2211442328
 N    0.0114567521    0.0711055628    0.2406522493
 C   -0.9907298510   -0.6010214771   -0.0627239880
 O   -2.3060878976   -0.1581197434   -0.4625131603
 C   -2.5374172877   -1.5583725409   -0.8656972473
 C   -3.1881698459   -2.9826702069   -0.7895658645
 N   -1.6876965663   -3.2376855490   -1.1374119832
 C   -1.8300538770   -2.0729889813   -2.1238244665
 C   -1.4310520996   -2.0778822027   -0.0404512425
 H    0.7635727126    1.9066484517   -0.3967305759
 H   -1.0060957786    1.9206216156   -0.1543621479
 H    0.1095998841    1.8992119537    1.2374831903
 H   -3.4870219902   -3.3545872354    0.1906536647
 H   -3.8564099025   -3.3073153844   -1.5900835183
 H   -2.4294385576   -2.3173994707   -3.0021833623
 H   -0.8737870921   -1.6179212260   -2.3886028292
 H   -1.6115581291   -2.4529319933    0.9663545988