12

 N   -0.0097396836    1.3401891625   -0.0534306211
 C   -0.0084814446   -0.0136172073   -0.0218973675
 N   -1.1566723343   -0.6432982199   -0.0098803815
 C   -1.1548372508   -2.0200798713   -0.0060767496
 O   -2.1336711536   -2.7318299558    0.0012355119
 N    0.1301914132   -2.6236141685   -0.0068399139
 N    1.3024376057   -2.0036336913   -0.0139912630
 C    1.2615017317   -0.7077972395   -0.0231751245
 H    0.8339249010    1.8676989157    0.0813040932
 H   -0.8955885735    1.8104362426    0.0375203455
 H    0.1610565384   -3.6335171721   -0.0001331996
 H    2.2104142306   -0.1835498452   -0.0330894099