19

 N    0.0021806081   -1.1476408694   -0.4572572021
 C    0.0065786124   -0.0165657387   -0.2181371567
 C   -0.0231249844    1.4168868970    0.0760249774
 C   -0.4504536195    2.3232832721   -1.1186134957
 C    0.8795849252    3.0838224251   -0.9126608012
 N    1.3310636634    2.0723247642    0.0851389996
 C    1.5646819367    2.5706752002    1.4435128531
 C    0.1700909305    2.8467460114    2.0441013041
 C   -0.6831257460    1.7071675447    1.4552552621
 H   -0.5297614481    1.7904408981   -2.0661073063
 H   -1.3655185331    2.8933534275   -0.9496560784
 H    1.5407289798    3.1445398337   -1.7816031302
 H    0.7561166572    4.0921068038   -0.4986533739
 H    2.0842971121    1.7969588987    2.0217009877
 H    2.2127397097    3.4510545694    1.4120447558
 H    0.1653499441    2.8492105496    3.1368807214
 H   -0.2037738483    3.8218528217    1.7135388751
 H   -1.7411756327    1.9582423803    1.3494208176
 H   -0.6175401671    0.8164078706    2.0862889904