18

 N   -0.1029694837    1.4688328461   -0.0440735561
 C    0.0053470148    0.0174701838   -0.0338376095
 C    0.6789338624   -0.5779827713   -1.2778349507
 O   -0.0699665115   -0.1287538818   -2.4035219733
 C    0.3844531903   -0.4928056892   -3.6212326546
 N   -0.2296385018   -0.1175381282   -4.6559195552
 C    0.7613381411   -0.4427064915    1.2285400712
 C    0.0711994388   -0.0895632537    2.4666275555
 N   -0.4682427353    0.1585383826    3.4571931984
 H    0.8177170098    1.8938534803   -0.1277169943
 H   -0.6306787772    1.7586922522   -0.8616733571
 H   -1.0141174572   -0.3830944356    0.0076025025
 H    1.7205963281   -0.2295427356   -1.3495550847
 H    0.6827217466   -1.6764953261   -1.2383726369
 H    1.2909634566   -1.1125746393   -3.5840838295
 H    0.2350749155   -0.4739758186   -5.4882321077
 H    0.9044860842   -1.5291862427    1.2112766346
 H    1.7622841185    0.0073109387    1.2460789974