17

 C   -0.0193742914    1.4447123076    0.0282046606
 C   -0.0173706432   -0.0105850026    0.0251156765
 C    0.0066520641   -1.2151419181    0.0181802354
 C    0.0199837338   -2.6537802662    0.0021631417
 C   -0.4574017301   -3.4097297887    1.2599999851
 C   -1.3226750938   -3.4078985872    0.0338984995
 N   -2.5298673910   -2.6495611861   -0.1098857068
 C    1.0876582387   -3.2617423369   -0.7576135123
 N    1.9377606254   -3.7658485815   -1.3581518901
 H    0.9878408907    1.8325622768   -0.1578736488
 H   -0.6799067395    1.8456477273   -0.7479298547
 H   -0.3542972985    1.8402294529    0.9931640792
 H    0.0884365261   -4.3090271587    1.5219383567
 H   -0.7425351234   -2.7733015301    2.0897178982
 H   -1.3163224118   -4.3274507793   -0.5450463266
 H   -3.2488024713   -3.0010178978    0.5146319545
 H   -2.3672202348   -1.6734456616    0.1185135316