21

 O    0.0419949090    1.4424346931   -0.0367606147
 C    0.0188623372    0.0181090837   -0.0447147396
 C    0.8824706457   -0.5283046965    1.1084518581
 C    0.8529660198   -2.0512813893    1.3211145045
 C   -0.4579885069   -2.5922291925    1.9233812969
 C   -1.7269623680   -2.1291262220    1.2139562474
 C   -1.6295688717   -2.0021976526   -0.3206422123
 C   -1.4249302482   -0.5032209277   -0.0256602984
 O   -1.9040700005   -0.6876027154    1.3340047957
 H   -0.3432297050    1.7265332872    0.8003726578
 H    0.4626606909   -0.2612612087   -1.0095754011
 H    1.9103546544   -0.1972652315    0.9285776553
 H    0.5481783314   -0.0376940284    2.0312596902
 H    1.0711414980   -2.5603730802    0.3736609515
 H    1.6733071103   -2.3252052255    1.9939417920
 H   -0.4337667869   -3.6899415093    1.9279191940
 H   -0.5381126187   -2.2763135164    2.9714281685
 H   -2.6027945136   -2.6578864227    1.6053851239
 H   -0.8297192816   -2.5413287110   -0.8311162415
 H   -2.5772584092   -2.1996619492   -0.8237784688
 H   -2.0560293465    0.1972821150   -0.5823207393