14

 C   -0.0268690469    1.5032860748    0.0378516917
 C   -0.0520254598    0.0183862383   -0.0715631986
 C    0.5646400805   -0.9815063575   -1.0934104255
 C   -0.4564803756   -2.0362650121   -0.6440251634
 C    0.8600433230   -1.8887546679    0.0708851144
 N    0.2832746829   -0.8986907493    1.0810230050
 C   -1.0397894990   -1.0108166802    0.3574689043
 H    1.0013943104    1.8819023518    0.0267806638
 H   -0.5731343352    1.9718269992   -0.7884506486
 H   -0.4915468591    1.8147114484    0.9786625072
 H    1.0518262866   -0.8665125016   -2.0513969878
 H   -0.8773688862   -2.8602646314   -1.2018101937
 H    1.6673817378   -2.5808860142    0.2746009569
 H   -1.9880280294   -0.9305614983    0.8768389344