21

 C    0.0202578626    1.5035903122    0.0236307786
 C   -0.0349058404    0.0122010648   -0.0466638100
 C   -0.0415683386   -0.7745318009   -1.1273992427
 C   -0.0071577535   -2.2247424336   -0.7690660509
 C    1.2535090918   -2.6523668567   -0.0355144349
 C    0.0088215121   -2.2762867602    0.7421843989
 C   -0.7057279285   -3.3313236219    1.5509398856
 C   -0.0709808084   -0.8235857440    1.2312737900
 O    0.9174119168   -0.4598755363    2.1907335037
 H    0.8631182993    1.8291279723    0.6437160211
 H    0.1179697668    1.9551612317   -0.9671783277
 H   -0.8830147670    1.9096295353    0.4980848128
 H   -0.0213980134   -0.4238629011   -2.1544228019
 H   -0.5462781995   -2.9555430811   -1.3624413991
 H    1.5149664014   -3.7062661431   -0.0377812900
 H    2.1053860832   -1.9793872026   -0.0801811982
 H   -0.6110679887   -4.3217171584    1.0945692151
 H   -0.2917299724   -3.3878650686    2.5643532995
 H   -1.7746524083   -3.1054498693    1.6407447996
 H   -1.0196106618   -0.6618071175    1.7631448070
 H    1.7729164664   -0.7136381510    1.8257844133