19

 C    0.0046891339    1.4765858491    0.0598688483
 C    0.0008625167   -0.0204338079   -0.0090122724
 C   -0.9444537811   -0.8991034727    0.8130132751
 C    0.5510568075   -1.0440645897    0.9524222136
 C    0.4475584467   -2.0685356740   -0.2327065201
 C   -1.0949212728   -2.2119758470   -0.0214421333
 C   -1.7116123593   -1.9973854570   -1.3806206185
 C   -0.8836377796   -1.2337380884   -2.1066540472
 C    0.3227721233   -0.9052885853   -1.2650145821
 H    0.9674931423    1.8896740894   -0.2628665714
 H   -0.7741578263    1.9045580262   -0.5828610508
 H   -0.1796734702    1.8284064995    1.0808111911
 H   -1.6551900899   -0.4667388042    1.5062018954
 H    1.2108202144   -0.9620906208    1.8039863046
 H    1.0808823274   -2.9342911225   -0.4223820727
 H   -1.4340970308   -3.0682311934    0.5624842322
 H   -2.7001201031   -2.3342787297   -1.6704407892
 H   -1.0746108061   -0.8366249429   -3.0968045915
 H    1.2361911067   -0.6035994387   -1.7803329611