18

 C    0.2514198740    0.5811736643   -2.1266740294
 C    0.1352359200   -0.3536627324   -0.9416755927
 N    1.1239991908   -0.4863414131   -0.1673569397
 N   -1.1218223778   -1.0749732649   -0.8216732328
 C   -2.2815598126   -0.5603236505   -1.3897373283
 O   -3.3869954737   -1.0351185758   -1.2747613077
 C   -1.2006745310   -2.3050358101   -0.0849783711
 C   -1.9916042174   -3.4225533202   -0.7240463616
 N   -0.5655464981   -2.3901408145    1.0120585816
 H    1.3030972517    0.8540653601   -2.2063055275
 H   -0.0790603899    0.1180044847   -3.0611531921
 H   -0.3235367075    1.5023674200   -1.9850870409
 H    0.9052088515   -1.1188034665    0.6055644937
 H   -2.0998797193    0.3649961382   -1.9514568802
 H   -1.8019839050   -3.4749123475   -1.7997018418
 H   -1.7061063484   -4.3715175416   -0.2638392341
 H   -3.0613970223   -3.2579076543   -0.5929042585
 H   -0.6429508551   -3.3319411659    1.3952973931