19

 C   -0.5537144310    1.4368901287   -0.0082102032
 C   -0.2136727329   -0.0315668525    0.0804890962
 C    1.1008776400   -0.5359224412   -0.4085750325
 N    0.8036132681   -0.5334909360    1.0176307977
 C    1.5006493990    0.3433337907    1.8736054352
 C    0.9849561734    0.9349122046    3.0103028920
 N    2.0052130657    1.6391913776    3.6088969432
 C    3.1565046004    1.5021179163    2.8850423714
 C    2.8792490565    0.7042881554    1.7975413145
 H    0.3442580863    2.0581165937    0.0290088563
 H   -1.0808893356    1.6438045620   -0.9456279057
 H   -1.2047776763    1.7437150451    0.8180098652
 H   -1.0705961280   -0.6992158857    0.0023203159
 H    1.1916359345   -1.5153575235   -0.8715529716
 H    1.7996259096    0.2111377353   -0.7824517198
 H   -0.0041044738    0.9002080372    3.4353951604
 H    1.9130513204    2.1744307882    4.4533160530
 H    4.0726182070    1.9764893823    3.1978714473
 H    3.5811592067    0.3944019616    1.0391008944