17

 C    0.2774546733    1.0034732139    0.4402555869
 O   -0.3950250930    0.0003521298   -0.3056425121
 C    0.3719042625   -0.5397014285   -1.3114120941
 C    1.4942085157   -1.5707073592   -1.0592897702
 C    1.0030348863   -2.5212066493   -0.0023279313
 O    1.4099573283   -3.0117748843    0.9992654344
 O   -0.2177601057   -2.7531951154   -0.6179494625
 C    0.1795252374   -1.9374163716   -1.7582766693
 C   -0.1547535309   -2.4629627650   -3.1126000479
 H    1.1742417115    0.6011530300    0.9292748835
 H    0.5697282612    1.8501424663   -0.1979219500
 H   -0.4231441064    1.3532377263    1.2001814849
 H    0.6446735782    0.1566444967   -2.1105732589
 H    2.5091189092   -1.4578030620   -1.4132208973
 H   -1.2408167845   -2.5055736771   -3.2450037831
 H    0.2583597146   -1.8107395962   -3.8868647715
 H    0.2486040623   -3.4704915743   -3.2475016114