18

 C    0.4071897619    1.5543092056   -0.4486418897
 C   -0.0466008294    0.1944435996    0.0296737837
 N    0.9326474781   -0.9036735807    0.0620713546
 C    0.3938368025   -0.4338340565    1.3337095143
 C    1.3523714794    0.2274051222    2.3022617272
 C    2.2065613858   -0.8139975217    3.0054942252
 O    2.3316445221   -0.8995692980    4.1990236049
 C   -1.4328164547   -0.2081652527   -0.3691173542
 O   -1.8100007274   -1.3562600752   -0.3960790400
 H    1.4112291628    1.7892693127   -0.0938855855
 H    0.4325423526    1.5865943902   -1.5430299598
 H   -0.2744880909    2.3387129581   -0.1021676980
 H    0.4456685343   -1.7574178324   -0.2143824943
 H   -0.3593815455   -1.0644631763    1.8035135753
 H    2.0363797441    0.8868919357    1.7558555163
 H    0.8215752301    0.8146631050    3.0567439314
 H    2.7256732461   -1.5136265930    2.3139684453
 H   -2.1095738218    0.6274246276   -0.6480751067