20

 O   -0.9023769301    0.7272830653    0.1276612903
 C   -0.2963053648   -0.5576944471    0.0212719410
 C    0.6282422203   -0.6554677901   -1.1993694925
 C   -0.1085333278   -0.4039663467   -2.5255922907
 C    0.8466380322   -0.2612472745   -3.6864364184
 O    0.8182445523   -0.9179250083   -4.6944602770
 C    0.4178761246   -0.9607300566    1.3050573623
 C    1.1168869713    0.0370514975    2.1516523098
 N   -0.1461747244   -0.5766559553    2.6018609328
 H   -0.2032596162    1.3905489884    0.0983911145
 H   -1.1436652208   -1.2414424629   -0.1211387537
 H    1.4465380575    0.0697267527   -1.0776495758
 H    1.0977296808   -1.6459755252   -1.2142225313
 H   -0.8180134242   -1.2057345132   -2.7495115262
 H   -0.6726543212    0.5344639842   -2.4340411337
 H    1.6220711317    0.5297429800   -3.5419524248
 H    0.8109084432   -1.9759243360    1.2791285984
 H    2.0004618879   -0.2498335967    2.7142392482
 H    1.1003538845    1.0830014122    1.8541270189
 H   -0.8997243767    0.0866038723    2.4238433876