19

 C   -0.1247805947    1.5134068934   -0.0929131932
 C   -0.1601792906    0.0004669511    0.0349400561
 O   -0.3938530831   -0.5464467713    1.0896421398
 C    0.1150311314   -0.7910075189   -1.2366424307
 C    0.0188755620   -2.2965274754   -1.0481893114
 C   -1.3963282294   -2.9298964434   -0.7690243522
 C   -1.2321170272   -3.7471250673   -2.0549217988
 O   -1.0492308531   -2.8121132524   -3.1291476199
 C    0.0870951800   -3.1548337980   -2.3253582377
 H    0.8439586823    1.8435511669   -0.4842241085
 H   -0.8851516458    1.8505826894   -0.8064791215
 H   -0.3057607082    1.9730663699    0.8793883973
 H   -0.5850374951   -0.4666960189   -2.0173719351
 H    1.1119863806   -0.5040598603   -1.6025593008
 H    0.7348974887   -2.6369975316   -0.2963944178
 H   -1.4066141920   -3.5305880578    0.1418702080
 H   -2.2491519781   -2.2469716223   -0.7620171057
 H   -1.6353834238   -4.7189635046   -2.3147512670
 H    0.9551182363   -3.5492620387   -2.8422940807