18

 C   -0.0221674507    1.6316039396   -0.2321709005
 C    0.0219108255    0.1057710227   -0.0875404612
 C   -1.3686258347   -0.3908658271   -0.4230536765
 O   -2.1084766460   -0.9800462939    0.3242376228
 C    1.2277243368   -0.7069338218   -0.7131519975
 C    2.1120174041   -0.1690577044    0.4505660738
 C    0.7611098695   -0.5794657657    1.1101965273
 C    0.8501604156   -1.8752960802    0.2439114762
 H    0.9599540659    2.0986899227   -0.1545407051
 H   -0.4397925806    1.9117541027   -1.2063714083
 H   -0.6663579332    2.0717387252    0.5369369894
 H   -1.7019870945   -0.1221949393   -1.4553269154
 H    1.4897607945   -0.7695017352   -1.7709834600
 H    2.9707094937   -0.7938852134    0.7082778773
 H    2.3919085323    0.8838369965    0.4501468005
 H    0.4871157399   -0.5104565558    2.1628781718
 H   -0.0747924189   -2.4183599434    0.0563082090
 H    1.6659884409   -2.5563864792    0.4965347964