19

 C    0.3570668370    1.5997904139    0.2307410673
 C    0.0188533689    0.1483161771    0.1408867888
 C   -1.2735536091   -0.5090457960   -0.3766475712
 C   -0.9926159570   -1.7248220673    0.5854493555
 C   -0.8155921280   -3.0862933158   -0.0231373013
 C   -1.1415417530   -4.3185775992    0.7067722834
 O   -2.0134026212   -3.8199532361   -0.3077271899
 C    0.2922737969   -0.9981503663    1.0274466000
 O    1.0790867116   -0.7790704481   -0.1534319054
 H    1.2899481485    1.7416184805    0.7827690891
 H    0.4834877146    2.0311435667   -0.7687934151
 H   -0.4403340861    2.1538014704    0.7364242808
 H   -2.1830957987    0.0310928802   -0.1042909178
 H   -1.2842345261   -0.7252081382   -1.4477657939
 H   -1.7351165696   -1.7670473592    1.3872953530
 H   -0.0621793799   -3.1408363960   -0.8082539205
 H   -0.6217518380   -5.2450561330    0.4660524840
 H   -1.5247130045   -4.2554799230    1.7251757813
 H    0.8263011137   -1.0646985507    1.9694776117