16

 O   -0.4846994338    0.0396686012   -0.2332025808
 C   -0.1879147279    1.1612662241    0.0954291586
 C    1.1784584225    1.7115531230    0.0688431230
 C    1.8334673695    2.6083842719    1.0493162139
 C    3.1592030858    1.9197342855    1.4454957614
 C    3.5246472138    1.3028057294    0.1054801156
 C    2.4403739328    1.3154087209   -0.7012210266
 C    2.2879459490    2.5949875702   -1.5244333978
 N    1.4585708821    3.1327054044   -0.3361826994
 H   -0.9452990197    1.8940757902    0.4553415485
 H    1.2587316655    3.1588748591    1.7894655353
 H    3.9547098644    2.6101930095    1.7467845470
 H    2.9680792660    1.2568574381    2.3005695547
 H    4.5218881927    1.4586863798   -0.2968220341
 H    3.1964898826    3.1534749001   -1.7621181609
 H    1.6020004746    2.5807524628   -2.3754750884