16

 C    0.1811307545    1.4882708843   -0.1974141173
 C   -0.0752823798    0.0005009297    0.0973967090
 C    0.5942884323   -0.4738423148    1.3403009082
 N    0.0572939046   -0.9115233910    2.4321466310
 C    1.1394579304   -1.2080788914    3.2709701379
 C    2.2897452312   -0.9172085397    2.6047397687
 O    1.9592145706   -0.4476421738    1.3718026036
 C    0.9896333022   -1.7210553638    4.5798052588
 C    0.8714992344   -2.1576107594    5.6948308017
 H    1.2503686635    1.6862315234   -0.3113970090
 H   -0.3211448671    1.7833610511   -1.1227167286
 H   -0.1974348400    2.1178905747    0.6129394771
 H   -1.1433017256   -0.1922758959    0.2207612152
 H    0.2721495692   -0.6060731406   -0.7477406335
 H    3.3366475940   -0.9822065547    2.8439471799
 H    0.7610581655   -2.5427791682    6.6781801775