15

 O   -0.1825649340    1.3736001380   -0.0560703577
 N    0.0119463749   -0.0192455127    0.0482112724
 C   -1.0890740719   -0.6372745160   -0.0403096587
 C   -2.5692694173   -0.2617629143   -0.0770989404
 C   -2.8836617408   -1.7590357898    0.1150630260
 C   -2.2969888795   -2.5435496008   -1.0251668635
 C   -1.3824201951   -2.0945586653    0.1029043860
 O   -0.7059677723   -2.9841414615    0.9058251824
 H    0.7116082297    1.7105901404    0.0636308422
 H   -2.8343892652    0.3670522966    0.7774013791
 H   -2.9445016564    0.2032790505   -0.9934297340
 H   -3.6465475729   -2.1617701738    0.7673176806
 H   -2.4971118323   -3.6101640708   -0.9970516620
 H   -2.2289989745   -2.1145824646   -2.0218965179
 H    0.0571653975   -3.3142491359    0.4184297655