20

 C    0.3963024626    0.6678401104    0.5281836582
 O   -0.5332812128    0.5447511840   -0.5400359344
 C   -1.5918431817   -0.2847071891   -0.3074041975
 C   -2.6950657688   -0.5449977008   -1.3339858749
 C   -3.1144298117   -1.4069196370   -0.1216554947
 C   -4.3139917911   -2.2958274471    0.0347513829
 C   -1.6249930316   -1.7631541582    0.2408136180
 N   -1.7101706863   -1.3052868070    1.6674752038
 C   -2.5864568076   -0.3470718688    0.9150113247
 H    1.1708825711    1.3570179415    0.1848409112
 H   -0.0800877979    1.0680483906    1.4307991664
 H    0.8477986831   -0.2986613050    0.7808497957
 H   -3.3404766012    0.3039764744   -1.5798620460
 H   -2.3989781981   -1.0827065234   -2.2400589097
 H   -4.3197073133   -3.0898008173   -0.7198269725
 H   -4.3255091213   -2.7737715004    1.0219127381
 H   -5.2444889259   -1.7276918767   -0.0711375263
 H   -1.0417471588   -2.6274897434   -0.0826096518
 H   -2.2890693701   -1.9555556803    2.2077471937
 H   -3.1412112789    0.4646538835    1.3895683750