17

 C   -0.3365652549    1.4807169992    0.0676101376
 C   -0.1054474540   -0.0332661971    0.0522395581
 C    0.9008715199   -0.4554989076   -0.9999422287
 C    1.0305428352   -1.9583511068   -1.3346892138
 C    0.6359769103   -1.5272911856   -2.7703824593
 O    0.4405370872   -0.1660277014   -2.3564608302
 C    1.6871516155   -1.6658709012   -3.7860945107
 N    2.5174440586   -1.7900519257   -4.5802881922
 H    0.5866959180    2.0198491811    0.3056567320
 H   -0.6840994232    1.8248845767   -0.9104736902
 H   -1.0873137374    1.7562726099    0.8134579545
 H    0.2619633692   -0.3751789690    1.0291571270
 H   -1.0507949014   -0.5581311525   -0.1338419434
 H    1.8667211128    0.0373287586   -0.8257640988
 H    2.0205093885   -2.3995659211   -1.2276915756
 H    0.2865900118   -2.5944174791   -0.8527705803
 H   -0.2866696863   -1.9691389983   -3.1637741659