23

 C    0.5250693709    1.5701374441    0.1164952526
 C    0.2312365399    0.0930253622   -0.0569895516
 C   -0.1824333814   -0.4386320971   -1.2196187575
 C   -0.3019807390    0.3609564846   -2.4999913486
 C   -0.5578409262   -1.9016040453   -1.4668260787
 C   -1.2481073003   -2.6638034227   -0.3608119961
 C   -0.7267841579   -2.8179497603    0.8521120267
 C    0.5797971268   -2.1752649773    1.2319422684
 C    0.4865236134   -0.6424665879    1.2492711203
 H    0.1185893602    1.9195642675    1.0738272851
 H    1.6065662207    1.7596208091    0.1564032474
 H    0.1014912589    2.2024654678   -0.6631574403
 H    0.1317682018    1.3589030076   -2.4464256361
 H    0.2042781377   -0.1693902907   -3.3172650253
 H   -1.3522425335    0.4615465623   -2.8063389168
 H   -1.2011233520   -1.9225965392   -2.3529803474
 H    0.3497674568   -2.4484065967   -1.7739680729
 H   -2.2053611342   -3.1185250940   -0.6027358648
 H   -1.2612358918   -3.3866497069    1.6086857882
 H    0.9027884699   -2.5168259314    2.2206050009
 H    1.3674199317   -2.4768988263    0.5275771710
 H    1.4271640995   -0.2450991785    1.6590437942
 H   -0.2846303718   -0.3422549208    1.9749847611