21

 C    0.0751700646    1.6163052019    0.0619696235
 C    0.0108912511    0.1034994984    0.0157078460
 C    1.2777521459   -0.6679567553   -0.2704633952
 C    0.6708624807   -0.6847725880    1.1225249031
 C    0.3765388139   -2.1868616264    1.3143846884
 C   -0.8269828762   -2.6657085107    0.4693392391
 C   -0.2030449697   -2.6484087442   -0.9628050003
 C    1.2310845112   -2.1631811181   -0.6470696074
 O    1.4760402472   -2.8102043179    0.6188583685
 H    1.0270518902    1.9593417939    0.4808516931
 H   -0.0216899079    2.0465395211   -0.9407505399
 H   -0.7288702158    2.0269538089    0.6823059595
 H   -0.9187338813   -0.2771299297   -0.3939028199
 H    2.1873257102   -0.1163808175   -0.4834382943
 H    1.1294329642   -0.1456900600    1.9447301806
 H    0.3733717248   -2.5105815675    2.3549458631
 H   -1.1042850267   -3.6794191626    0.7658648830
 H   -1.7096350855   -2.0303631799    0.5728702267
 H   -0.1657970965   -3.6533967572   -1.3882984197
 H   -0.7339240141   -2.0033030994   -1.6666968389
 H    1.9937348097   -2.4656807799   -1.3643078691