17

 O   -0.1262006193    1.4029903838   -0.0587471754
 C   -0.0194572464    0.0229218189   -0.0743098881
 C    0.4694223795   -0.8010703753   -1.2785600876
 C   -0.2941529951   -1.9588307678   -0.5437062174
 C   -1.2776923769   -0.8723196689    0.0683923651
 C   -1.1269267537   -0.8650949245    1.6004134452
 C    0.3978352049   -0.7358460134    1.2824270466
 C    0.6351907462   -2.1069539687    0.6607256760
 O    1.3503999767   -3.0116639255    0.9930393783
 H    0.7519005739    1.7809560170    0.0634133282
 H   -0.0414526504   -0.4898389406   -2.1939594509
 H    1.5405759755   -0.9311457815   -1.4648058835
 H   -0.6304223652   -2.8507784589   -1.0650024823
 H   -2.2074946170   -0.6807020178   -0.4645832943
 H   -1.5313561403    0.0538908986    2.0295433730
 H   -1.4511308141   -1.7309935614    2.1851140875
 H    1.1250173616   -0.3479608441    1.9932859296