9

 C    0.0172494265   -1.1863973557   -0.0328792108
 C    0.0192685813    0.0140484544    0.0226989053
 C   -0.0106977409    1.4510801859    0.0703490806
 C    0.5219731603    2.1992195643    1.2265478926
 O    1.2466606766    2.1420974463    0.0055683506
 H    0.0228731533   -2.2475799493   -0.0787438088
 H   -0.8009894725    1.9193639951   -0.5151192469
 H    0.0866399781    3.1662435153    1.4751608867
 H    0.9541532273    1.6446770737    2.0570240008