18

 C   -0.0262009111    1.5838433593    0.3446808253
 C   -0.0064317532    0.0810896033    0.0318007957
 O    0.8673186226   -0.6309534281    0.9020254070
 C   -1.3614287560   -0.4866847145    0.0437694708
 C   -2.4740013043   -0.9422206441    0.1034410383
 C   -3.8138205334   -1.5310348770    0.1548926261
 C   -3.7716577155   -3.0757191542    0.2653972881
 C   -4.5974407961   -0.9561955786    1.2632070073
 N   -5.2235881462   -0.5235768514    2.1320698578
 H    0.9964391534    1.9691473329    0.3303955143
 H   -0.6253387345    2.1278047492   -0.3910952906
 H   -0.4589399357    1.7637754036    1.3340147850
 H    0.4249235685   -0.0656534242   -0.9657274080
 H    0.4825317883   -0.6029653208    1.7855128914
 H   -4.3452028019   -1.2696384903   -0.7707444109
 H   -3.2619647664   -3.3776781376    1.1823412954
 H   -4.7860424658   -3.4813231245    0.2736145905
 H   -3.2273948326   -3.4829944629   -0.5890181036