17

 C   -0.1224962677    1.5527576711    0.1042964740
 C    0.1272281133    0.0761328212   -0.0068106333
 O   -0.7225942618   -0.7816432130    0.8045410408
 C    0.6862541146   -0.7994086211    1.0434037394
 C    1.4158373892   -1.9573357775    0.3808505397
 C    1.1699011356   -1.7115376101   -1.1074866694
 C    0.4836357690   -0.5713830007   -1.3061589782
 C    1.6094657390   -2.6217354786   -2.0956750798
 C    2.0124422798   -3.4209152317   -2.9031124077
 H    0.7355344275    2.1216894205   -0.2687351061
 H   -0.9996595773    1.8421306692   -0.4847175351
 H   -0.3058021268    1.8321648649    1.1444450253
 H    1.0019733866   -0.4290765549    2.0157583120
 H    2.4872886321   -1.9475178138    0.6130631461
 H    1.0223687837   -2.9286977478    0.6993090983
 H    0.1956049619   -0.1774983782   -2.2727092905
 H    2.3579145716   -4.1176453695   -3.6260522554