17

 O   -0.0478751281    1.4347632651    0.1529208988
 C   -0.0058143098    0.0255545402    0.0231111569
 C    0.6898002386   -0.6953515168    1.2031324899
 C   -0.1051265765   -2.0204284460    1.3355096450
 C   -0.1350100546   -2.5431837790    2.7037053544
 N   -0.1401772032   -2.9379050327    3.7895349213
 N   -1.4725808374   -1.7986566467    0.8018085643
 C   -2.1225269879   -0.5889769105    1.3353871323
 C   -1.4167614907   -0.5389077132    0.0321107371
 H    0.8347176463    1.7817852047   -0.0108396503
 H    0.4758667097   -0.2565499543   -0.9252468436
 H    1.7533659655   -0.8760960455    1.0344213773
 H    0.5941977727   -0.0800419762    2.1003034571
 H    0.3483816622   -2.7890053616    0.6989288222
 H   -3.2055668567   -0.6462546550    1.3543937705
 H   -1.6833873174   -0.0813760882    2.1887877617
 H   -1.9801525626   -0.5154220943   -0.8950239850