18

 C   -0.0581982150    1.5829915101   -0.0464519187
 C   -0.0146964778    0.0539936535    0.0065058944
 C    0.9533383995   -0.5480357397   -1.0839624794
 N    2.3082506339   -0.6071444878   -0.4774928188
 C    2.0942874925   -0.5616429322    0.7666619467
 O    2.9464422603   -0.3903743511    1.7934452612
 C    2.1078374073   -0.0414432787    2.9226119398
 O    0.8399042796    0.3246026034    2.4277832652
 C    0.6812351755   -0.4875038392    1.2632539772
 H    0.9481931167    2.0098229047    0.0000908950
 H   -0.5228439942    1.9133365918   -0.9802257101
 H   -0.6338991364    1.9914353584    0.7882218262
 H   -1.0257785714   -0.3489391877   -0.0986595652
 H    0.6321685106   -1.5492533558   -1.3991534029
 H    0.9868005258    0.0767839944   -1.9818925832
 H    2.0496076528   -0.9191191140    3.5836764178
 H    2.5547606690    0.8095080186    3.4406764694
 H    0.2907922512   -1.4784473189    1.5469283652