15

 N   -0.0692907266    1.2842727909    0.1046592005
 C    0.1402230789   -0.0470799359    0.0135580515
 O    1.2003628469   -0.6042593795   -0.1112228070
 O   -1.0865853151   -0.6882171936    0.0868315174
 C   -1.0743959548   -2.0511578492    0.0171460174
 N   -2.1692969674   -2.6637274608    0.0765101455
 C   -2.1244063337   -4.1084428927    0.0102934882
 C   -2.8995855130   -4.7212905932    1.1713167900
 O   -2.7100577530   -5.8329256551    1.5874049096
 H    0.7251809329    1.8968636507    0.0694694478
 H   -0.9962361289    1.6561295879    0.2097775810
 H   -0.0734566180   -2.4751694336   -0.0885605600
 H   -2.6449828315   -4.4348243770   -0.9035510630
 H   -1.1151818202   -4.5455375565   -0.0147156618
 H   -3.6789819664   -4.0509481025    1.5947858629