17

 N   -0.0664109622   -1.0540847756    0.2979795132
 C   -0.0271582125    0.0868086151    0.1211487435
 C   -0.0105812095    1.5352644705   -0.1579363508
 O   -0.8258429602    2.2591222314    0.7540999814
 C    0.0062716742    2.8539437018    1.7541857191
 C    1.3034937166    3.2500940189    1.0358486997
 C    2.6101689457    2.6601835797    1.6195707542
 N    2.3674331198    1.4368143696    0.8226530128
 C    1.4132721184    2.1456007919   -0.0478285997
 H   -0.4371371541    1.6851712576   -1.1562769487
 H   -0.5507234913    3.6994162029    2.1640589109
 H    0.2092227914    2.1375283349    2.5621229543
 H    1.3137388477    4.2899084399    0.7124246979
 H    3.4929132286    3.2362717654    1.3131129217
 H    2.6518107530    2.4972820631    2.7023508133
 H    3.1672413227    1.0091092780    0.3731835178
 H    1.7974466417    2.4539956951   -1.0259812907