15

 C    0.1496048656    1.3416471771    0.0629530664
 O   -0.4352045202    0.1296099867   -0.4305763021
 C    0.3276391992   -0.5872733848   -1.2581652588
 C    0.6717284449   -1.8991978726   -1.2843006705
 C    0.3536378761   -2.9756309273   -0.3044650310
 N    1.4112649126   -2.1235555538   -2.4496508154
 C    1.4759458670   -0.9746490711   -3.0299720576
 O    0.8348671730    0.0287787210   -2.3764675669
 H    1.0810527495    1.1295980777    0.6004551543
 H    0.3493835889    2.0405451102   -0.7546788416
 H   -0.5819045201    1.7741071947    0.7463864673
 H   -0.2545497566   -3.7623805801   -0.7639592239
 H    1.2672703615   -3.4490572826    0.0702150143
 H   -0.1999911410   -2.5660781160    0.5439806661
 H    1.9744761497   -0.7098482291   -3.9490230206