19

 O    0.4242648600    1.2767786460    0.3793409432
 C    0.1799011629   -0.0752808575    0.0234334206
 C   -1.2689724900   -0.4948680526    0.2942648438
 C   -1.5164389644   -1.9617988074   -0.0416008909
 C   -2.9480999687   -2.5752364031    0.0850740883
 O   -3.9014394183   -1.5363545094    0.0086032649
 C   -2.7499696653   -3.3287398590   -1.2683844312
 C   -1.5360392306   -2.4147793314   -1.5131202358
 O   -0.9163196821   -2.0959831730   -2.4862888393
 H   -0.0747754737    1.8325883932   -0.2275052623
 H    0.4353760459   -0.2731814914   -1.0268321665
 H    0.8624126164   -0.6701306792    0.6420350086
 H   -1.5043487009   -0.3080520811    1.3481093571
 H   -1.9504771119    0.1280195171   -0.2954732907
 H   -0.8074331943   -2.6055244030    0.4977494022
 H   -3.1121292090   -3.2089957860    0.9641515342
 H   -4.7747573909   -1.9327596609   -0.0708592994
 H   -2.4513218185   -4.3754963528   -1.1487046095
 H   -3.5649420065   -3.2653631085   -1.9937034574