16

 C    0.1672762410    1.3814082783    0.0645974599
 O    0.2376581854   -0.0246485635    0.0882505605
 C    0.5211776046   -0.5776038497   -1.1711434607
 C    0.5362300689   -2.0865635009   -1.0527124561
 C    1.4201173779   -2.8618577738   -1.9488013092
 O    1.7763248128   -2.6521480633   -0.5896537147
 C   -0.6659217133   -2.7008092745   -0.5411358714
 C   -1.6790271088   -3.2048757655   -0.1378365257
 H    1.1214366477    1.8330862750   -0.2497432803
 H   -0.6228030881    1.7389500369   -0.6148834129
 H   -0.0624405898    1.7117521907    1.0799386764
 H   -0.2401483204   -0.2777930199   -1.9122238658
 H    1.5047706897   -0.2451583781   -1.5404544582
 H    1.1349730154   -3.8777654273   -2.2142768947
 H    2.0262080437   -2.3335432580   -2.6845860795
 H   -2.5693183866   -3.6498717663    0.2327870824