14

 N    0.1451805519    1.3589682049   -0.1363063939
 C   -0.0497699081   -0.0152830815   -0.0486477761
 C   -1.1589694868   -0.8052268959   -0.0409827549
 C   -0.6748885445   -2.1662529494   -0.0616471603
 N   -1.4611152276   -3.3302066093   -0.1349072904
 C    0.6776078659   -2.0851288286   -0.0679915427
 O    1.6425341716   -3.0286705321    0.0139859704
 O    1.0815056961   -0.7582284301   -0.0649173915
 H    0.9356111462    1.6725680226    0.4146736692
 H   -0.6849623800    1.8770993785    0.1174751995
 H   -2.1874429871   -0.4805722598   -0.0400583854
 H   -2.2391792909   -3.3020600271    0.5141349189
 H   -0.9052688191   -4.1535801530    0.0666179315
 H    2.0821012324   -3.1231118492   -0.8411619542