16

 C    0.0005449669   -1.1679244639   -0.0536783201
 C   -0.0090019718    0.0357404522   -0.0211730511
 C   -0.0318373847    1.4533057606    0.0174820064
 N   -1.1340232178    2.2402067819    0.6378559373
 C   -0.7563317310    3.3912174569   -0.2741370024
 C    0.1564524829    4.2964304524    0.5426063106
 O    1.2583333822    3.4415491890    0.8952303543
 C    1.2221812670    2.3451170003    0.0267162010
 C    0.2337689192    2.5004395727   -1.0754678884
 H    0.0170328087   -2.2294218515   -0.0731856777
 H   -2.0070605747    1.8427470351    0.2953865638
 H   -1.5845717337    3.8781863852   -0.7858368058
 H    0.5153311424    5.1589444022   -0.0384303673
 H   -0.3211529447    4.6410515360    1.4628896956
 H    2.1807764768    1.8632450651   -0.1184469851
 H    0.3981624625    2.4267063757   -2.1429067910