19

 C   -0.3135008209    1.4796576835   -0.1066301949
 C   -0.0308664801   -0.0011318813    0.0192985784
 C    1.3332928880   -0.6054889913   -0.1916193659
 O    2.4405532916    0.2745900699   -0.1914663295
 C    2.6446839926    0.8070748856    1.0529924684
 O    3.5178736910    1.5917263084    1.2739390712
 C    1.5960125048    0.2524890039    2.0216924627
 C    0.7117284344   -0.6531236515    1.1844034156
 C    0.1821266440   -1.9261422260    1.8009213765
 H    0.5399371365    2.1000485613    0.1761068385
 H   -0.5652580970    1.7323557760   -1.1415938951
 H   -1.1607476735    1.7695009246    0.5237811309
 H   -0.8314124557   -0.6314271927   -0.3627267017
 H    1.5000233060   -1.4705574072   -0.8224216697
 H    2.1115862233   -0.3042789768    2.8114396860
 H    1.0825948798    1.0893011261    2.5044470733
 H   -0.5586604123   -1.7126363104    2.5799675512
 H   -0.3035326497   -2.5571269022    1.0498969745
 H    0.9882086872   -2.5111863599    2.2586976095