21

 C   -1.1373736663    2.2581081098   -1.6869614486
 C   -0.6906787103    1.1045785098   -0.7841520028
 C   -1.6863979654   -0.0480325238   -0.7870098116
 O   -1.8268669519   -0.7066047408   -2.0710105854
 C   -1.4609344693   -2.0282859486   -1.5635274745
 C   -2.6381225227   -2.9958795295   -1.6259475764
 C   -0.2083575417   -2.5712627471   -2.2396229782
 C   -1.2393784092   -1.3833615808   -0.1820739714
 O   -0.8543898433   -1.7596940669    0.8839604562
 H   -0.3956955241    3.0621644730   -1.6916090685
 H   -1.2715606862    1.9095859824   -2.7147698989
 H   -2.0896069675    2.6800914497   -1.3473883344
 H    0.2885437339    0.7324526862   -1.1071969197
 H   -0.5759067664    1.4441254578    0.2525402577
 H   -2.6628363639    0.2906687704   -0.4077459342
 H   -2.8915358933   -3.2044213419   -2.6702540723
 H   -2.3841557610   -3.9392609139   -1.1332616101
 H   -3.5209182854   -2.5750187674   -1.1370635003
 H    0.6107819676   -1.8493595203   -2.1912178118
 H    0.1136302645   -3.4965012640   -1.7523765711
 H   -0.4154396781   -2.7859904743   -3.2929375837