17

 O   -0.0139129242    1.4039362740    0.2356888017
 C    0.0578302163    0.0105506237   -0.0300753059
 C    0.6717678631   -0.7110200283    1.1746079067
 C   -0.1027641874   -1.7268103431    1.5785647155
 C   -0.8301894312   -1.6777260920    2.8989604515
 O   -1.9253605996   -0.8044695744    2.4779296594
 C   -2.1895896313   -1.0817784621    1.1035672737
 C   -1.2970277863   -0.6830823267   -0.1323966099
 C   -1.1924449836   -2.0203881165    0.5532052426
 H   -0.6047732599    1.5117090383    0.9912524226
 H    0.6165375402   -0.0672823488   -0.9706428323
 H    1.3876054247   -0.1821900299    1.7960182471
 H   -1.2388225559   -2.6312662019    3.2528375178
 H   -0.2878992213   -1.1756542789    3.7013261686
 H   -3.2541969352   -1.1343344406    0.9016071757
 H   -1.8659735849   -0.5712753481   -1.0515304670
 H   -1.3603948036   -2.9996673245    0.1202330624