19

 C   -0.0733385272    1.4828257893    0.0189923555
 C   -0.0041056622   -0.0043967829   -0.0385834701
 C   -0.0014872510   -0.8540323430   -1.0695626200
 C    0.0880315312   -2.2242365285   -0.4195777882
 C   -0.8173367894   -2.1794116858    0.8767569262
 C    0.2037747263   -3.0600924750    1.6342380220
 O    0.2621587535   -4.4467890998    1.4178923894
 C    1.0778179333   -2.0887236120    0.8068521081
 C    0.0848225813   -0.9265569021    1.1768929808
 H    0.8040498995    1.9056689589    0.5254715269
 H   -0.1288423296    1.9191841274   -0.9821281468
 H   -0.9501992443    1.8216509535    0.5859929064
 H   -0.0504248615   -0.6467384684   -2.1295045419
 H    0.1069935356   -3.1108420197   -1.0562309513
 H   -1.9095001289   -2.2170490934    0.9089222189
 H    0.2374274143   -2.9271734508    2.7188335432
 H    0.2348052570   -4.6147575257    0.4705649291
 H    2.1679875561   -2.0219319244    0.7585110467
 H    0.1015108560   -0.5006241174    2.1818911853