21

 O    0.0279821688    1.3696091966   -0.0465746457
 C   -0.0150430325   -0.0267849840   -0.0048619984
 C   -0.4888298616   -0.7382933600    1.2506716249
 C   -1.3585548199   -0.6664116517    0.0012194694
 C   -2.6323471645    0.1530676311    0.0007935114
 C   -3.8129777701   -0.7249444390    0.4459905088
 C   -3.8414986978   -2.0245278398   -0.3720750661
 C   -2.4727354774   -2.7057171412   -0.3274379157
 O   -1.4402292275   -1.8325575493   -0.7756809548
 H    0.7605753108    1.6588578549    0.5071559774
 H    0.7443773592   -0.5384356677   -0.5956580324
 H   -0.0232341797   -1.6866409290    1.4951070346
 H   -0.7707347852   -0.1208197184    2.0975788430
 H   -2.5174718925    1.0310696981    0.6402886446
 H   -2.8078463615    0.5187808675   -1.0190160799
 H   -3.7020322938   -0.9692073981    1.5109591094
 H   -4.7570834832   -0.1800330153    0.3419274387
 H   -4.6074027541   -2.7119723092    0.0051304623
 H   -4.0897605291   -1.8003585118   -1.4169939909
 H   -2.2549600428   -3.0455021027    0.6987043243
 H   -2.4352800556   -3.5767096310   -0.9878286448