22

 C   -0.0738969933    1.5449414589   -0.0810785303
 C   -0.0108674899    0.0145636009   -0.0148036731
 C   -1.3881657664   -0.5872016078   -0.2790693369
 C    1.1692529700   -0.5438525849   -0.8757821720
 C    2.0403342733   -0.6320629515    0.4046254888
 C    0.7443856908   -0.5364319287    1.2485270565
 C    0.7595562172    0.2442973483    2.5470122935
 O    1.5495198425   -0.4902809941    3.4753788508
 H    0.9062876664    2.0063609490    0.0756509957
 H   -0.4323675070    1.8644079821   -1.0663609838
 H   -0.7613999828    1.9544095597    0.6678052169
 H   -1.7670978324   -0.2889086118   -1.2640557568
 H   -1.3552769672   -1.6814645010   -0.2510317427
 H   -2.1190946985   -0.2552677568    0.4682969859
 H    0.9389245502   -1.5324681821   -1.2842651844
 H    1.5275041023    0.0916704401   -1.6908806092
 H    2.6586070534   -1.5216732608    0.5370415240
 H    2.6771643096    0.2486104284    0.5344877824
 H    0.3762772259   -1.5444781629    1.4720034989
 H    1.1789760696    1.2493425194    2.3853151966
 H   -0.2704012979    0.3753610271    2.9202824783
 H    1.6064684042    0.0187126183    4.2892405209