18

 C   -0.0892841987    1.5784981120   -0.0037942477
 C    0.0104894149    0.0418196751    0.0085763079
 C    0.8503804040   -0.5234008543   -1.1324716579
 C    1.8599283080   -1.2552076267   -0.6473312211
 N    1.8062936375   -1.2692287956    0.7551756458
 C    2.5063528303   -1.7911210498    1.8129945228
 C    1.8684386131   -1.3661990835    2.9591861523
 C    0.7480845938   -0.5612436424    2.5789877920
 C    0.7362168570   -0.5210515004    1.2057003448
 H    0.9054547418    2.0303526350    0.0414214572
 H   -0.5882286022    1.9292867120   -0.9130030011
 H   -0.6644078578    1.9325269987    0.8570701102
 H   -1.0093667087   -0.3656014003   -0.0536377262
 H    0.6484157671   -0.3405560744   -2.1778203247
 H    2.6417151329   -1.7928502977   -1.1639773450
 H    3.3776467157   -2.4085237020    1.6669866023
 H    2.1689612398   -1.6063650859    3.9679705460
 H    0.0470278215   -0.0831178898    3.2458437722