18

 C   -0.2811746653    1.4546666515    0.0243113624
 C    0.0944565476   -0.0258416710    0.0730187799
 C    0.8149318901   -0.5021700837   -1.2058216511
 C    1.0626755688   -1.9951865500   -1.1482297456
 O    1.1190009035   -2.7231905557   -2.1076338214
 C    1.1807445043   -2.5537983871    0.2701741101
 O    1.5686678373   -1.5923921120    1.2484099209
 C    0.9590668959   -0.3653168864    1.2708753279
 N    1.1573593674    0.4434183345    2.2221491715
 H    0.6116742058    2.0767414108   -0.0833238326
 H   -0.9456078022    1.6467897288   -0.8237975898
 H   -0.7816518952    1.7568927313    0.9452414809
 H   -0.8316010009   -0.6142056427    0.1670439449
 H    0.2485479111   -0.2705100735   -2.1113730019
 H    1.7853206003    0.0065305591   -1.2916625163
 H    0.2151668491   -3.0099914081    0.5364476095
 H    1.9355506927   -3.3418489386    0.2901745023
 H    1.7710997398    0.0226480028    2.9226649785