21

 C   -0.0609867805    1.5678456726   -0.0178960985
 C    0.0707225192    0.0614981671    0.0520308826
 O   -1.0952383145   -0.5972473332   -0.4021954182
 C    1.3261997541   -0.7224455904   -0.2452410228
 C    2.5716376622   -0.0002156480    0.2659759013
 C    1.9627869500   -0.0651011002    1.7104103500
 O    1.7612828872    1.1243240549    2.4488294525
 C    0.6942051379   -0.7273189677    1.1778319447
 C   -0.0501172239   -1.7869013428    1.9415191308
 H    0.7709003442    2.0819288612    0.4614965976
 H   -0.1270404236    1.8990772956   -1.0630038768
 H   -0.9803066770    1.8733894203    0.4911315512
 H   -1.1899205986   -0.3961983351   -1.3394568118
 H    1.3068786899   -1.5181326416   -0.9811827557
 H    3.4920419088   -0.5818530764    0.1732356254
 H    2.7479835956    1.0026443669   -0.1349330082
 H    2.5195149020   -0.7961594647    2.3134387857
 H    2.6106745686    1.4055482852    2.8037645861
 H   -0.5087198084   -1.3591815306    2.8413516528
 H   -0.8444318585   -2.2215772055    1.3331895086
 H    0.6233429252   -2.5897112076    2.2634105328