15

 C    0.0289820127    1.5147565640    0.0490574317
 C    0.0246448674    0.0086345127    0.0125101040
 C   -0.0456830569   -0.7112993869   -1.1796229940
 C   -0.0463305430   -2.1011640352   -1.1556537946
 N    0.0182769736   -2.8117336955   -0.0257828848
 C    0.0857680261   -2.1364084930    1.1186511322
 C    0.0921296913   -0.7416245338    1.1928764348
 O    0.1649495261   -0.1795026354    2.4318934773
 H    0.9427977338    1.9095263457    0.5126505207
 H   -0.0290055415    1.9302840206   -0.9591924689
 H   -0.8238168158    1.9121232530    0.6153220480
 H   -0.0999352715   -0.1830119599   -2.1266404576
 H   -0.1009566972   -2.6675918261   -2.0814317351
 H    0.1385550205   -2.7087489038    2.0416308369
 H    0.1617595544    0.7794523638    2.3531642992