14

 N   -0.2119895762    1.4536861503   -0.0580223464
 C   -0.0282858832    0.0443196627   -0.0128913290
 C   -1.0890152461   -0.8203547835   -0.0801674037
 O   -2.3976574934   -0.5646096587   -0.1915663386
 N   -0.5981979571   -2.1000155413   -0.0129665898
 C   -1.3514993057   -3.2813389484   -0.0485550916
 O   -0.8905196787   -4.3845612683    0.0124668969
 N    0.7772207331   -2.0953283092    0.0982743747
 C    1.1032851954   -0.8197660875    0.0971484085
 H    0.2645086332    1.8768957889   -0.8482155962
 H    0.1319444902    1.9117616906    0.7800985737
 H   -2.4667191200    0.4036443692   -0.2181453316
 H   -2.4259812641   -3.0505775203   -0.1404486021
 H    2.1456592827   -0.5397274245    0.1754479753