19

 C    0.0177677515    1.5848482719   -0.0592895115
 C    0.0533211012    0.0507310693   -0.0003685860
 C    0.6946235094   -0.6214846903   -1.2122194048
 O    2.0994616202   -0.3658464054   -1.4059383406
 C    1.6902578759   -1.6045263454   -0.7614535037
 C    1.7689452360   -1.6078481489    0.7454245947
 C    2.2559800295   -0.3528248258    1.4499359355
 O    3.0627520908    0.6189851825    0.8757786528
 C    0.7747162234   -0.5359504655    1.2266862612
 H    1.0287664170    1.9967096072   -0.0541724400
 H   -0.5011332724    1.9346795520   -0.9578720226
 H   -0.5098993912    1.9881300264    0.8101878867
 H   -0.9804967266   -0.3208410941    0.0240608168
 H    0.1352598817   -0.7092579744   -2.1409100389
 H    1.9442614808   -2.4984417794   -1.3224629251
 H    1.8766156989   -2.5736803569    1.2263186624
 H    2.5587857607   -0.5126184793    2.4818849230
 H    2.9464471437    0.5399140480   -0.0838646123
 H    0.1645477595   -0.7022153718    2.1093591726