21

 C    0.0547176776    1.5744649445    0.0119325700
 C   -0.0213556037    0.0479655841   -0.0641453641
 C    0.7780707887   -0.5300009070   -1.2372915968
 O    2.1649222038   -0.1669405271   -1.1645426988
 C    0.6797529124   -2.0400902260   -1.3494130102
 O    1.0637418951   -2.7287218654   -0.1822075304
 C   -0.3069968870   -2.6859820522   -2.2974528262
 C    1.1705261335   -2.6579762919   -2.6228341921
 O    1.6053432659   -1.8272146210   -3.6545688886
 H    1.0952815599    1.9020983445    0.0777304699
 H   -0.3841086282    2.0355809583   -0.8797340246
 H   -0.4840535265    1.9550734153    0.8846857706
 H    0.3570195210   -0.3887387673    0.8696853173
 H   -1.0660138358   -0.2757300144   -0.1637268727
 H    0.4205911169   -0.0864234673   -2.1713758329
 H    2.5478830209   -0.7150107970   -0.4676624547
 H    0.3195839581   -2.7211414526    0.4302485981
 H   -0.7329524587   -3.6403278781   -2.0078910294
 H   -0.9566068679   -2.0382208969   -2.8762103644
 H    1.7063811926   -3.6005084383   -2.5157773580
 H    2.2754581414   -1.2442069243   -3.2730254220