17

 C   -0.1162234748    1.5679434765    0.0694208771
 C    0.0969192225    0.0754905364   -0.0065269382
 C    0.2947649433   -0.5221110578   -1.2021617545
 C    0.2681929395   -1.9674860622   -1.5440544393
 O   -0.1598378377   -2.3445082986   -2.6064365255
 O    0.7000013463   -2.8902634443   -0.6461655212
 C    1.4931276796   -2.4582580116    0.4689165379
 C    0.6719540092   -1.7815212731    1.5251111892
 C    0.0360127441   -0.6318082089    1.2724575227
 H    0.6157738450    2.0345994977    0.7388930085
 H   -0.0403873005    2.0395705810   -0.9121806271
 H   -1.1074268645    1.7915912937    0.4825958719
 H    0.2799745697    0.0910842450   -2.0977085512
 H    1.9624184570   -3.3686286572    0.8443418117
 H    2.2818238499   -1.7833603653    0.1077746379
 H    0.6027276832   -2.2438338690    2.5045711263
 H   -0.5282765318   -0.1456852522    2.0649232640