18

 C   -0.0321158292    1.5659907152   -0.0052769385
 C    0.0317955389    0.0575721058   -0.0095244498
 C   -0.8020093790   -0.7557608252    0.9485457651
 C    0.7126509834   -0.7757505150    1.1026743117
 C    1.4875044080   -1.9179283659    0.4300490299
 C    1.1461731668   -1.7532646815   -1.0336024476
 C    0.3934666921   -0.6770281322   -1.2628881463
 C    1.2814340147   -0.1445262570    2.2552403391
 N    1.7480543061    0.3668284887    3.1833861200
 H    0.8870960169    2.0015251508   -0.4097238220
 H   -0.8702383735    1.9167028045   -0.6176567964
 H   -0.1703991747    1.9538931842    1.0075494295
 H   -1.3486156809   -0.2204278437    1.7177483352
 H   -1.2790222648   -1.6611063055    0.5880529667
 H    2.5650084309   -1.8180850284    0.6088344031
 H    1.1943970116   -2.8985759419    0.8240787428
 H    1.4805053090   -2.4579984650   -1.7857682638
 H    0.0397208337   -0.3486183880   -2.2337724186