14

 O   -0.0137573144    1.3910803830   -0.0367304869
 C    0.0283586319   -0.0037143274    0.0092003267
 C   -0.4390314421   -0.6847558297    1.2778768510
 C   -1.3440018359   -0.6802793287    0.0559707664
 C   -2.5368000700    0.1107360127    0.0278208552
 C   -3.5564314627    0.7465643559   -0.0058599437
 C    1.0650414181   -0.6234681461   -0.7761269359
 C    1.9532103561   -1.1198987440   -1.4175136129
 H    0.8097689733    1.7208983896    0.3405736807
 H    0.0196391441   -1.6228610283    1.5667038549
 H   -0.7188277183   -0.0190907337    2.0856857987
 H   -1.3971521001   -1.6150710764   -0.4928604301
 H   -4.4487245350    1.3208125058   -0.0387160943
 H    2.7290656749   -1.5578607726   -1.9956158399