13

 C   -0.0006261683    1.5199572669    0.1435570538
 C    0.0194321521    0.0366000336    0.0224029509
 C   -0.0007499042   -0.7348147488   -1.1076133369
 O    0.0316022626   -2.0576382338   -0.7085214867
 C    0.0692281416   -1.9950413936    0.6342592739
 N    0.0644124481   -0.7998152453    1.1295098871
 C   -0.0447393136   -0.4393331178   -2.4775787611
 C   -0.0826562892   -0.1605532663   -3.6490847408
 H    0.8903279977    1.8772910296    0.6704194633
 H   -0.0360969372    1.9887966034   -0.8421801794
 H   -0.8710868117    1.8493739504    0.7205007146
 H    0.0992680185   -2.9357822655    1.1621371103
 H   -0.1158379263    0.0818064675   -4.6825227290