20

 C   -0.0278974540    1.4491564736   -0.2017842362
 C   -0.0138216481   -0.0626929335    0.0668340017
 C    0.7548580477   -0.4191830142    1.3439615139
 N   -1.3725686164   -0.6252920994    0.0925092755
 C   -2.0061029442   -1.1548064605   -1.1004327265
 C   -3.3877408953   -1.5282619054   -0.5406499820
 O   -3.5453824456   -0.6999101021    0.6156558296
 C   -2.3198492260   -0.2264686670    1.0066956356
 O   -2.1654206482    0.4292342363    2.0041978608
 H    0.9943584695    1.8294224423   -0.2902950894
 H   -0.5548759818    1.6812871767   -1.1331019981
 H   -0.5249757558    1.9717294527    0.6189003527
 H    0.4781691997   -0.5622706994   -0.7761108342
 H    0.7743443468   -1.5026751146    1.4930018414
 H    1.7866689302   -0.0626742521    1.2686109083
 H    0.2839696290    0.0419300080    2.2135132757
 H   -2.0747746055   -0.4007767064   -1.8994641619
 H   -1.4700422633   -2.0227188618   -1.4970945011
 H   -4.2081553890   -1.3270603996   -1.2318317961
 H   -3.4265533299   -2.5796264338   -0.2331573598