16

 C   -0.0396970331    1.3645017075   -0.0441511952
 O   -0.0140182195   -0.0413515437    0.0025149024
 C    0.6830243757   -0.5349852093    1.1269893669
 C    0.6375238991   -2.0547339054    1.0681173742
 C    1.3420836718   -2.6934216421    2.2596925325
 N    1.4586505564   -4.0527352009    2.1906315069
 O    1.7752479786   -2.0510727814    3.1975730185
 H    0.9744629749    1.7908817862   -0.1037615444
 H   -0.5968239316    1.6534008565   -0.9388993432
 H   -0.5378119360    1.7945052275    0.8394191522
 H    1.7267272457   -0.1840845581    1.1281135472
 H    0.2283286298   -0.1787531686    2.0632064937
 H   -0.4079494196   -2.3868488504    1.0453636592
 H    1.0912143646   -2.4047120995    0.1334750651
 H    1.0335905941   -4.5910447199    1.4564220856
 H    1.8503808992   -4.5366184985    2.9817147683