19

 O    0.0764492224    1.3901562726    0.0910656361
 C    0.0285626949    0.0055239382   -0.0315611542
 C    0.4800972080   -0.7999141722   -1.2549754279
 C   -0.2791236506   -1.9539828541   -0.5326319700
 C    0.6204103058   -2.1850975309    0.7008158173
 C    0.3610637808   -0.7861611288    1.3005526303
 C   -1.1664733002   -0.8595284336    1.6027504769
 C   -1.2735545211   -0.8792182420    0.0738643319
 O   -2.4397633467   -0.6908264182   -0.6603078622
 H   -0.2868589170    1.7712842676   -0.7157604969
 H   -0.0508133372   -0.4669505678   -2.1524111090
 H    1.5445958415   -0.9337588491   -1.4711223173
 H   -0.6638249856   -2.8085828393   -1.0853445656
 H    0.2831342204   -2.9885601399    1.3617711086
 H    1.6620604750   -2.3723885833    0.4250324597
 H    1.0600985514   -0.3737045351    2.0251609656
 H   -1.5386428625   -1.6995072611    2.1974915662
 H   -1.5447878298    0.0864178011    2.0029832419
 H   -2.8946819696    0.0785159559   -0.3006150214