17

 N   -0.0843563686    1.3501197744    0.1334149718
 C    0.0058610941   -0.0289894209    0.0451684081
 N   -1.1500998158   -0.6961428171    0.0328923031
 C   -1.1129186115   -2.0347379161    0.0089578548
 C   -2.4713237076   -2.6959777533    0.0087007368
 O   -2.3279027438   -4.1024999740   -0.0644170615
 C    0.0660654251   -2.7686288161   -0.0158027921
 C    1.2687348548   -2.0592769498   -0.0127265386
 C    1.2545829388   -0.6772689999    0.0208481600
 H    0.6829647319    1.8774686409   -0.2527242532
 H   -0.9951660528    1.7082538237   -0.1136093273
 H   -3.0039098375   -2.3874740857    0.9222892883
 H   -3.0477330709   -2.2987988303   -0.8415904219
 H   -3.2047167089   -4.4935925641   -0.0321790769
 H    0.0338286208   -3.8484278536   -0.0408085193
 H    2.2154660952   -2.5903026608   -0.0347991495
 H    2.1732392865   -0.1007191072    0.0339319573