18

 O   -0.2108044120    0.3145601989    0.0250644929
 C    0.2647986244    1.0455093876   -0.7993700367
 C    1.4871068020    1.9314614359   -0.5423419724
 C    1.3838093488    3.2256703127   -1.2008853703
 C    1.2331180005    4.2902627978   -1.7465636219
 C    1.0917573673    5.5852424543   -2.4225634285
 N    1.9789306009    5.8549004964   -3.5603506941
 C    3.3452323876    5.3471299774   -3.5184115758
 C    2.3397724791    4.7522443606   -4.4435967832
 H   -0.1455746806    1.1223770088   -1.8296737630
 H    1.6232155390    2.0221856379    0.5403014842
 H    2.3596986879    1.3811145365   -0.9268588755
 H    0.0613299897    5.6910450823   -2.7836222643
 H    1.2478258282    6.3890085442   -1.6925572291
 H    4.1050673726    6.0300197991   -3.8873098357
 H    3.6412141076    4.7389234253   -2.6665479489
 H    1.9804972060    3.7562350732   -4.1944050517
 H    2.3487308513    4.9904314611   -5.5032979960