16

 C    0.0022279279    1.4766688664    0.0592203961
 C   -0.0333952549   -0.0178389372   -0.0728916219
 N   -0.0539569406   -0.5918037163   -1.2036370383
 C   -0.0295106555   -2.0496911810   -1.2607843408
 C    0.4690776686   -2.6976279587    0.0340010212
 C   -0.2300891083   -2.0188066252    1.2026983373
 O   -0.0351582227   -0.5999237506    1.1627667152
 H    0.8789578615    1.7837597467    0.6385883232
 H    0.0370897300    1.9297168257   -0.9305484400
 H   -0.8811631835    1.8325761012    0.5992532113
 H   -1.0407028056   -2.4074233476   -1.5009428160
 H    0.6016062956   -2.3428940273   -2.1072413588
 H    0.2714803736   -3.7744778811    0.0484779703
 H    1.5517845286   -2.5578994037    0.1311469419
 H   -1.3091508352   -2.2242555427    1.1794945883
 H    0.1577684505   -2.3438549385    2.1713499610