18

 C   -0.1988202263    1.4203599538    0.2828463363
 N   -0.2776395863   -0.0335481981    0.3284699420
 C    0.6422941656   -0.6793431315    0.8725448600
 O    1.8106687582   -0.2495218082    1.4986312333
 C    2.0827693356   -1.5889177391    1.9726510793
 C    3.4571593990   -2.0853320618    2.2238549796
 C    2.4805149746   -1.8694284837    3.3779381318
 C    0.8971084126   -2.1531458744    1.1767660249
 O   -0.0837261995   -2.9068383175    1.8232109565
 H    0.5899202912    1.8437550869    0.9157375682
 H   -0.0236318547    1.7382175830   -0.7512626882
 H   -1.1643410689    1.8375878964    0.5861363762
 H    3.7013858199   -3.1001510208    1.9271012806
 H    4.2690631975   -1.3730675954    2.1248934618
 H    2.6614676298   -1.0215786717    4.0294262594
 H    2.0414868864   -2.7382339555    3.8578662358
 H    1.2055367398   -2.7235096384    0.2961448523
 H   -0.5371475147   -2.3369047139    2.4543212403