20

 C   -0.2032876720    1.4185484988   -0.0885513672
 C   -0.3090076344   -0.0618591571    0.2432086433
 O   -0.0510742551   -0.5021332147    1.3500069735
 N   -0.7060361893   -0.8697113751   -0.7841015095
 C   -0.8608448674   -2.3057819473   -0.6056942776
 C   -2.1843805282   -2.6913538326    0.0517970687
 C   -3.4463786992   -2.5479008661   -0.8266884924
 O   -3.5976295821   -3.9784809797   -0.9240367182
 C   -2.5201138419   -4.1983582520    0.0105617483
 H    0.8143296194    1.7536598566    0.1279378259
 H   -0.4432590298    1.6575325340   -1.1279256548
 H   -0.8759644400    1.9757778433    0.5689482540
 H   -0.9454483722   -0.4601421796   -1.6705222458
 H   -0.7747808984   -2.7827192442   -1.5882250507
 H   -0.0320842382   -2.6559865593    0.0172229994
 H   -2.2441801281   -2.2251348680    1.0358044061
 H   -4.3086771375   -2.0772233951   -0.3369615266
 H   -3.3040882223   -2.0807174306   -1.8110774699
 H   -1.7438267603   -4.8559406240   -0.4027429210
 H   -2.8772126930   -4.6245036274    0.9564774344