19

 C   -0.0185209940    1.6522645495   -0.0157810812
 C    1.4767124918    1.2161555103    0.0063157076
 C    1.0517293441    0.1809258783    1.0962270895
 C    1.9295474856   -0.9875119601    1.5233806295
 O    2.7568149474   -1.5531390982    0.5224456751
 C    2.0546399156   -1.9320915525   -0.6221908792
 O    1.8484896970   -0.8774339890   -1.5190670180
 C    1.0510541225    0.1976888054   -1.1063852589
 C   -0.0576965217    0.0943849925   -0.0117730271
 H   -0.3895319133    2.1395590949    0.8873989646
 H   -0.3757198965    2.1522425980   -0.9192390169
 H    2.3534135824    1.8642496210    0.0099836003
 H    0.6782290155    0.6476195681    2.0170975491
 H    2.6154397361   -0.6495555448    2.3072482318
 H    1.2872403291   -1.7679223659    1.9676208082
 H    2.6733439916   -2.6554980097   -1.1582699172
 H    1.0906832496   -2.3943595380   -0.3432930327
 H    0.7306863941    0.6760456391   -2.0356407226
 H   -0.9495596570   -0.5346588389   -0.0112901720