20

 C   -0.0390583210    1.4837582769    0.0123998039
 C    0.0234781741   -0.0199091349   -0.0442897637
 C    0.4936533305   -0.7231605045   -1.3207671522
 C    0.4819304244   -2.1377508124   -0.6985243457
 C    1.4950627778   -1.9499803980    0.4577119761
 C    0.7042471090   -0.8252913289    1.1474473805
 C   -0.6832095920   -1.4424563751    1.3648397404
 C   -0.8780530079   -2.1153775701    0.0536300338
 N   -1.3166742561   -0.6940255582    0.2380927180
 H    0.9571963847    1.9206657627   -0.1155902984
 H   -0.6905965770    1.8723870528   -0.7774949881
 H   -0.4401372091    1.8232801359    0.9725339115
 H   -0.2299983057   -0.5917424366   -2.1306991517
 H    1.4861511279   -0.4141867800   -1.6642994888
 H    0.6363459186   -2.9834037518   -1.3672777413
 H    1.5931630367   -2.8330967315    1.0972783617
 H    2.4881130298   -1.6515570438    0.1045628674
 H    1.1758941129   -0.2627087899    1.9507925969
 H   -1.2038492054   -1.6647376233    2.2903913542
 H   -1.6682207223   -2.8327783194   -0.1294239545