16

 C    0.0703944253    1.4897422010    0.0132404633
 C   -0.0404313570   -0.0070750315    0.0421807811
 O    0.6271656623   -0.5888521773   -1.1201796312
 C    0.9647326164   -1.9126669820   -0.7065780102
 C    0.3553948632   -1.9604842027    0.7330103117
 O    0.6442049707   -0.6088587800    1.1245287297
 C   -1.1545055683   -1.9258416361    0.5420751866
 C   -1.4091047710   -0.6924704287    0.1047529928
 H    1.1224119007    1.7824912585    0.0113234655
 H   -0.4052620389    1.8795947443   -0.8900521658
 H   -0.4235873562    1.9201894114    0.8876565789
 H    0.5329318203   -2.6564977605   -1.3844144539
 H    2.0537771188   -2.0251583769   -0.6745361288
 H    0.7868986867   -2.6814153415    1.4240686639
 H   -1.8171975681   -2.7771763184    0.6132602951
 H   -2.3335308052   -0.2710224396   -0.2651353986