21

 C   -0.2073100349    1.3923372925    0.0310666713
 C   -0.2157343975   -0.1179316520    0.1850223826
 O    0.8679746898   -0.4817201523    1.0385061794
 C    0.9592125426   -1.8559593386    1.2621542361
 C    2.0790534556   -2.2301489509    2.2728971658
 N    1.0592868268   -2.9603325196    3.0494326130
 C   -0.0073022616   -2.4670288059    2.2934371610
 N   -1.2655244012   -2.4745702563    2.3923867655
 C   -1.8373290362   -3.0953455217    3.5803175006
 H    0.7419463550    1.7337438774   -0.3923147272
 H   -1.0177554790    1.7090708565   -0.6321721047
 H   -0.3445583874    1.8781375182    1.0013401306
 H   -1.1605841004   -0.4707835933    0.6163537500
 H   -0.0916398129   -0.6104067367   -0.7940839337
 H    0.9968379170   -2.4176561558    0.3168221089
 H    2.8964617114   -2.8558621797    1.9048595220
 H    2.4760394802   -1.3371924847    2.7653727117
 H    1.0694393807   -3.0878583078    4.0507313688
 H   -1.8010452775   -2.4145032874    4.4431561260
 H   -2.8892745558   -3.3302204490    3.3969326131
 H   -1.3271183845   -4.0274272330    3.8676156192