19

 C   -0.1416728383    1.5119858185    0.0152974383
 C    0.0031092014   -0.0049752799   -0.0703060871
 O   -1.2131394991   -0.6135702335   -0.4195733142
 C    1.1732733797   -0.4768274877   -0.9640588748
 C    2.0690542568   -0.6161751139    0.2920336776
 C    0.7752537532   -0.6102810813    1.1869933962
 N    0.6925639050    0.1445278358    2.4295275658
 C    0.3327078462   -1.9800286329    1.4544528910
 N    0.0166205875   -3.0664776229    1.6892932190
 H    0.8188690467    2.0138965166    0.1715081852
 H   -0.5646121942    1.8785465763   -0.9242237018
 H   -0.8064285783    1.7950269065    0.8379513666
 H   -1.8901054857   -0.3352093484    0.2082991000
 H    0.9360997514   -1.4453740814   -1.4084403133
 H    1.5019959883    0.2096152922   -1.7463799793
 H    2.7167903825   -1.4905772609    0.3626387321
 H    2.6614159841    0.2818315315    0.4895671424
 H    1.1068215066   -0.3767261468    3.1959185360
 H    1.2117357461    1.0120942622    2.3430628602