17

 C   -0.0249119541    1.4107276172    0.0790689559
 N   -0.0573656537   -0.0296789164   -0.1089333216
 C   -1.2010035919   -0.7441407201   -0.0228783250
 N   -1.3091967419   -2.0454977511    0.0484249360
 C   -2.6765504181   -2.1959449982    0.0685442744
 N   -3.2399615214   -3.4315555731    0.1849976150
 C   -4.6611291982   -3.6064534825   -0.0534357043
 N   -3.3869610142   -1.0878676082    0.0047269132
 O   -2.3589823333   -0.0828010139   -0.0399027063
 H    0.9431784290    1.7862093344   -0.2581958067
 H   -0.8058966681    1.8746558366   -0.5262923284
 H   -0.1767060027    1.7090103213    1.1247894114
 H    0.7737586587   -0.5594597221    0.0972451767
 H   -2.6262253123   -4.1801941523   -0.0940168529
 H   -5.2221272005   -2.9373284443    0.6038121712
 H   -4.9546352763   -3.3829744731   -1.0886727380
 H   -4.9356270007   -4.6370938242    0.1813070192