23

 C    0.9051231364    1.5440684802   -0.3243346828
 C    0.6567763346    0.0491370424   -0.2058908832
 C   -0.2648341288   -0.4692732014   -1.2979248834
 C    1.7400844743   -0.8956116046    0.2748955291
 C    3.1335260405   -0.4741912797    0.7039584361
 O    3.6497802161   -1.3059825758    1.7263204328
 C    0.5283033598   -0.6211791207    1.1549385046
 C    0.6652583956    0.0962304746    2.4767874431
 O    1.3804706318   -0.6786405178    3.4538020293
 H    1.5659623644    1.9434357794    0.4462962949
 H    1.3599618043    1.7767071720   -1.2941889497
 H   -0.0409653800    2.0954284713   -0.2683212888
 H    0.1655290276   -0.2883877807   -2.2899682197
 H   -0.4384097663   -1.5452929608   -1.2012764012
 H   -1.2390436913    0.0330940387   -1.2630480228
 H    1.7378400310   -1.8756340560   -0.1971575785
 H    3.8197645198   -0.5685716648   -0.1455014597
 H    3.1543263974    0.5835263146    1.0052482373
 H    3.0504453062   -1.2031815588    2.4819934628
 H   -0.2057305495   -1.4256888874    1.1912608935
 H    1.2354355056    1.0223204424    2.3869224713
 H   -0.3259410470    0.3636514492    2.8695651000
 H    0.9180016076   -1.5176000364    3.5567439052