19

 C   -0.0990925919    1.5835601660    0.1153283143
 C    0.0619376021    0.0956267254    0.0480803675
 C    0.6733562952   -0.7083261518   -1.0961194474
 O    1.2748260920   -1.6640831577   -0.1747720456
 C    0.7785745234   -0.9123357731    0.9395563804
 C    1.5593692798   -0.8464301012    2.2190281355
 O    0.9573209117   -1.6099586512    3.2735219380
 C   -0.7269073606   -0.8800215293    0.9079140973
 O   -1.3380510964   -0.3124021375    2.0255605128
 H    0.8430474144    2.1038586501   -0.0893675122
 H   -0.8382557078    1.9294330536   -0.6173134628
 H   -0.4555061692    1.8764662019    1.1055203122
 H   -0.0134982756   -1.1922410874   -1.8007751593
 H    1.4502052061   -0.1669623204   -1.6491234030
 H    2.5899437061   -1.1724293516    2.0268090381
 H    1.5957417928    0.1782940307    2.5969535859
 H    0.9599180183   -2.5339335150    3.0009639100
 H   -1.2630438387   -1.7081503409    0.4365213247
 H   -0.9704607017   -0.7682717206    2.7965204235