18

 C    0.3221088856    0.1557784926   -0.7360417860
 C   -0.0360120700    1.1663018906    0.2992873603
 N    0.7813877433    0.0107085322    0.6383281607
 C    0.2182112326   -1.0550392486    1.4877362945
 C   -1.2300188906   -1.4231368390    1.3180469139
 C   -2.3259487628   -0.9167198813    1.9951147557
 N   -3.4158377066   -1.5547434368    1.5071312169
 N   -3.1199512198   -2.4546477471    0.5503360798
 C   -1.7982889077   -2.3757716088    0.4350363381
 H   -0.4851331634   -0.4831355401   -1.0880716905
 H    1.0986856760    0.3600530826   -1.4682576562
 H    0.4714170478    2.1264240732    0.3410922369
 H   -1.0760770270    1.1811023522    0.6197155592
 H    0.8364491798   -1.9426322110    1.3130657095
 H    0.3982018301   -0.7467561193    2.5235855104
 H   -2.4019753010   -0.1787034892    2.7787584309
 H   -4.3761111640   -1.4355073930    1.7821222765
 H   -1.2844702222   -3.0130958091   -0.2709978706