21

 C    0.1284505766    1.6289048250    0.1606346686
 C    0.0379691846    0.1068676074    0.0535776084
 C    1.0257484581   -0.4804715142   -0.9930711393
 O    1.9367925628   -0.9138998565    0.0375502320
 C    0.9829773748   -0.5988046268    1.0680892834
 C   -1.3680917587   -0.4666211990   -0.0160928112
 C   -2.6283914499    0.3155958741    0.3120562359
 C   -2.3445148608   -0.1152498344   -1.1046096758
 O   -1.9346684911    0.8253652348   -2.0575397384
 H    1.1789033681    1.9364380405    0.1808675532
 H   -0.3586547758    2.1131326364   -0.6880384664
 H   -0.3389131965    1.9871750650    1.0843959102
 H    0.6256478290   -1.3259688694   -1.5685401197
 H    1.4874260865    0.2355384797   -1.6826115669
 H    1.4147795760    0.0359306620    1.8518264255
 H    0.5666110973   -1.5041133858    1.5325821287
 H   -1.3997647268   -1.5173848511    0.2622518953
 H   -3.4222206877   -0.1749103861    0.8652595275
 H   -2.5162177548    1.3727175635    0.5246022720
 H   -2.9413433430   -0.9307611403   -1.5131626874
 H   -2.6995704085    1.3574204451   -2.3005655253