17

 O   -0.0100196004    0.0309699516   -0.0778250368
 C   -0.0279866040    1.2244149225    0.0156536816
 C   -1.1696016325    2.2625258089    0.0607032096
 N   -0.7502936667    2.7039769135    1.4174068602
 C    0.4921326500    3.3870384271    0.9759043598
 C   -0.0711081680    4.4511081785    0.0048748619
 C   -0.5956405583    3.3699151682   -0.9521395045
 N    0.7436401931    2.8339466498   -1.3455926844
 C    1.0864915931    2.2815031592    0.0004431420
 H   -2.1962065406    1.9196127758   -0.0266619622
 H   -1.4017516252    3.3664747870    1.8309672094
 H    1.1378105506    3.7010419206    1.7935571120
 H   -0.8329240778    5.0657421206    0.4919602800
 H    0.6653631543    5.0836919035   -0.4910748533
 H   -1.2202943695    3.6569583675   -1.7951924461
 H    0.6740650014    2.0768001237   -2.0249662263
 H    2.1205660303    1.9716317520    0.1221600671