21

 C   -0.0715026218    1.5937461434   -0.0257885569
 C    0.0088601187    0.0703630521   -0.0287106887
 C   -1.3683247227   -0.5607338830    0.2093194053
 O   -1.9013443295   -0.3031943950    1.4975487316
 C    0.7045327891   -0.6198316648   -1.2181690594
 C    2.1523798757   -0.2471592920   -1.3112047955
 C    1.7332803753   -1.2679868963   -0.2831726243
 C    1.0898230493   -0.5907052543    0.9249697054
 O    1.8877527829    0.2326760149    1.7443075447
 H    0.8958697650    2.0625280699   -0.2228495763
 H   -0.7732419600    1.9511187621   -0.7887445728
 H   -0.3993588973    1.9662425349    0.9510212700
 H   -2.0628450338   -0.2367064888   -0.5840041830
 H   -1.2853589527   -1.6511930352    0.1393357142
 H   -2.0655095161    0.6416307240    1.5713593588
 H    0.1827316550   -1.0795811269   -2.0501324775
 H    2.6866337481   -0.6556584303   -2.1629709224
 H    2.4975808683    0.7455922156   -1.0302061065
 H    2.1320173884   -2.2752768084   -0.3011729109
 H    0.6050274217   -1.2975162924    1.6015650300
 H    2.5622219765    0.6410195304    1.1921418842