18

 C   -0.3868575272    1.3973932973   -0.0518239667
 C    0.0036404268   -0.0729330605   -0.0662249982
 C    1.2526154779   -0.4732035330   -0.8207428068
 N    1.6597153403   -0.2945544941   -1.9928003881
 O    1.8455578807   -1.1117513740    0.2469383380
 C    0.7394013710   -0.7288559711    1.1593810560
 C    1.2648170335    0.1911309700    2.2529943154
 C    0.0827462148   -1.9059572963    1.7047323743
 C   -0.4807053148   -2.8625300781    2.1647015571
 H    0.4467964288    2.0437458795    0.2331505118
 H   -0.7049788465    1.6942069323   -1.0550547939
 H   -1.2183440545    1.5776789397    0.6363967069
 H   -0.8477945118   -0.6872594948   -0.3699968472
 H    2.5795519710   -0.7143753578   -2.1382376794
 H    1.7997658409    1.0381421499    1.8182458558
 H    0.4398042538    0.5649387979    2.8658052899
 H    1.9515893837   -0.3606639159    2.8995290719
 H   -0.9723723183   -3.7143269610    2.5664042131