20

 C   -0.1748462867    1.4999787523    0.0232518494
 C    1.2432114188    1.0123242103   -0.0572914763
 C    0.0938377988    0.0111677636    0.0015084103
 C   -0.1534404114   -0.7640994864    1.2951733892
 C    0.2106925116   -2.2429772227    1.1907374144
 N   -0.9134789431   -3.1549290446    0.8855218397
 C    0.1359063659   -2.9016959449   -0.1364535393
 C   -0.2186302567   -2.0701616768   -1.3130349035
 C   -0.2076464101   -0.7371221689   -1.2461155474
 H   -0.5174898391    1.9298086772    0.9591888621
 H   -0.6154541532    1.9525146333   -0.8593295831
 H    1.7739166185    1.1229163990   -0.9966821017
 H    1.8721875382    1.1034146285    0.8222760486
 H    0.3984066706   -0.2968342862    2.1178080347
 H   -1.2182706466   -0.7025215856    1.5456835550
 H    0.9661256231   -2.6034356894    1.8840810876
 H   -0.7435113615   -4.0613357556    1.3168483091
 H    0.8253849236   -3.7202093623   -0.3359504729
 H   -0.4558724385   -2.5751336373   -2.2451774254
 H   -0.4186291125   -0.1450743432   -2.1343751806