17

 O    0.3369671706    0.8807568600   -0.5564888357
 C   -0.1128721199   -0.3932924797   -0.1959513586
 C   -0.0575701943   -0.8245118004    1.3220250004
 C   -1.5094034773   -1.3966532185    1.1611121694
 C   -1.6251437719   -0.5507616433   -0.1067110182
 C   -2.6264806444    0.4522996176   -0.4643604545
 O   -2.4866658185   -0.7789777835   -1.1967957685
 C    1.0040659230   -1.7073658451    1.7476298468
 C    1.8932521212   -2.4519194978    2.0678836305
 H    1.2764492087    0.8334557665   -0.7590916350
 H    0.3209437542   -1.1837563991   -0.8227451105
 H   -0.0805574552    0.0860061732    1.9287889025
 H   -1.4985037984   -2.4664287644    0.9393534347
 H   -2.2095435387   -1.1998786484    1.9738816978
 H   -3.5361689025    0.5394489304    0.1281497229
 H   -2.3160032298    1.3472151815   -0.9987106079
 H    2.6740943033   -3.1080270889    2.3629393140