14

 O   -0.0462667855   -0.1232028760   -0.0000283922
 C   -0.0142544358    1.0815176130    0.0045725385
 C    1.2771950253    1.8932255173   -0.0027763815
 O    2.3769723469    1.0272075345   -0.0156177872
 C    3.6025265388    1.7190030647   -0.0227270322
 C    4.7028183761    0.7513264268   -0.0361553467
 N    5.5987920867    0.0239034380   -0.0468240352
 C   -1.2116993773    1.9055861025    0.0179475975
 C   -2.1940084692    2.6007804537    0.0292749965
 H    1.2614819671    2.5577569952   -0.8847144708
 H    1.2762145766    2.5502312293    0.8849320361
 H    3.6959450741    2.3692228000   -0.9078429942
 H    3.7106721651    2.3613559129    0.8664470017
 H   -3.0726851789    3.1997984881    0.0402790496