20

 C   -0.0810867292    1.3855921472    0.2874842432
 C   -0.0718589168   -0.0563870723    0.0924280396
 C   -0.0740252622   -1.2488558686   -0.0669720445
 C   -0.0490670864   -2.6907495744   -0.2641639966
 O   -1.3519695544   -3.2285396268   -0.1178312641
 C   -1.3797168379   -4.6291944481   -0.3051173738
 C   -2.8020984441   -5.1045250956   -0.2020909925
 C   -3.0793477709   -6.4516765154    0.3563621960
 N   -3.4448725298   -5.2436082608    1.1113286566
 H    0.6229807013    1.6873173751    1.0706583605
 H    0.1931228968    1.9158579541   -0.6310409865
 H   -1.0765558252    1.7321448561    0.5858134711
 H    0.3495344659   -2.9277459407   -1.2664773550
 H    0.6394833687   -3.1578436569    0.4622637620
 H   -0.9613516971   -4.8930504326   -1.2925691893
 H   -0.7567578607   -5.1344170561    0.4557789937
 H   -3.4631615078   -4.7072549114   -0.9689804113
 H   -3.9178095341   -7.0321321784   -0.0172533632
 H   -2.2340897595   -7.0477643162    0.6930591472
 H   -2.7638899266   -5.0671933081    1.8466410868