17

 N    0.0077071087   -1.1421083076   -0.0256686045
 C    0.0073725549    0.0144298045   -0.0119898559
 C    0.0108553855    1.4596956595    0.0097767033
 C   -0.2899971456    2.2662434276    1.3156284884
 C    0.4326048089    3.4002367988    0.5339197872
 C    1.3390461108    2.2829440267   -0.0570030484
 C   -0.5468509160    3.6688108783   -0.6252203632
 C   -0.8735588227    2.1940029740   -1.0309197915
 H   -1.3394712225    2.4038528270    1.5884666067
 H    0.2837936041    1.8986695586    2.1677849984
 H    0.8561812567    4.2621899286    1.0471131150
 H    2.0859310049    1.9171309585    0.6492977611
 H    1.7841861389    2.4358756206   -1.0435295507
 H   -1.4345441296    4.2174287981   -0.2995139565
 H   -0.0819767181    4.2313108003   -1.4391929546
 H   -0.5764906820    1.9531820998   -2.0541689474
 H   -1.9293954170    1.9393022869   -0.9142183873