13

 N    0.1241034352    1.4053005010    0.1302523721
 C   -0.0380275103    0.0221725217    0.0371778563
 C   -1.1542699554   -0.7875991469    0.0225433308
 C   -0.6379805400   -2.1124871146    0.0026170784
 N    0.6986064839   -2.1245948675   -0.0009904833
 N    1.0330450750   -0.8147383932    0.0270581411
 C   -1.3889028853   -3.3154055092   -0.0246298787
 C   -2.0594843152   -4.3144086625   -0.0471049833
 H    0.7536877313    1.7860283236   -0.5668500985
 H   -0.7617577136    1.8896349509    0.0758021621
 H   -2.1876826995   -0.4842140203    0.0112399324
 H    2.0045896605   -0.5616592661    0.0921337680
 H   -2.6404959566   -5.2026974668   -0.0658571974