18

 C    0.5412316447    1.4242373990    0.0151968548
 C    0.1232544038   -0.0134530863   -0.0965361050
 C   -0.0658654760   -0.6391297296   -1.2565500236
 C   -0.5164716789   -2.0641210911   -1.3220405244
 O   -0.1283873935   -2.8563569266   -0.1880568440
 C    0.0886232067   -2.2929998405    1.0151846487
 O    0.4668859133   -2.9750295996    1.9309986069
 C   -0.1727608766   -0.7813448639    1.1794969958
 N    0.5051430431   -0.2257626769    2.3460695177
 H    1.4992438493    1.5298155230    0.5344004815
 H    0.6319030244    1.8801349205   -0.9741490455
 H   -0.1839693695    1.9951036465    0.6052819849
 H    0.0728105489   -0.1278693683   -2.2045522850
 H   -1.6099748416   -2.1335055572   -1.4258442293
 H   -0.0823296649   -2.5766155992   -2.1859595694
 H   -1.2554507112   -0.6909602217    1.3712968688
 H    0.2676843671   -0.8088364403    3.1445913421
 H    1.5086232008   -0.3550633977    2.2326594249