18

 O   -0.0040052186    1.3649816695   -0.0139109205
 C   -0.0425007723   -0.0551425324    0.0727666385
 C   -1.4442751433   -0.5916327187    0.1053577790
 N   -2.4432037712   -0.2994764912   -1.0141465343
 C   -3.2057282642   -1.1693185462   -0.0208749698
 C   -1.9377380170   -2.0757840001   -0.0030332668
 O   -1.6103121714   -2.8006098039   -1.1413722486
 C   -2.5947377232   -0.3469612134    1.1313203920
 O   -2.5694488488   -0.9488408727    2.3980300334
 H   -0.2591277122    1.6057470782   -0.9101826455
 H    0.5122836452   -0.5280657329   -0.7507767889
 H    0.4680509166   -0.3218787673    1.0052367883
 H   -2.7717793715    0.6692474320   -0.9447994553
 H   -4.2474262371   -1.4445712796   -0.1885110475
 H   -1.7959148501   -2.7012719863    0.8747911547
 H   -1.7844056711   -2.2016039352   -1.8823125368
 H   -2.9377586454    0.6959411703    1.1659864663
 H   -2.0649782044   -0.3840820302    2.9920677619