21

 C   -0.0717856307    1.7351266730    0.0999434236
 C    0.0232718594    0.2101291928   -0.0376426334
 C    0.7495432540   -0.3581995652   -1.3150387106
 C    0.7294453314   -1.8979186671   -1.2486068560
 C    1.4029425493   -2.6058416044   -2.4292761643
 C   -0.0093070097    0.1762997090   -2.5233605808
 O   -0.9167279914   -0.4020980172   -3.0636229541
 C    2.1668878974    0.2007672958   -1.2968156141
 O    3.1085258671   -0.3567088834   -0.7944443299
 H    0.9127001330    2.2105383960    0.1455629499
 H   -0.6291660174    2.1927746806   -0.7229757418
 H   -0.5965490401    1.9859490800    1.0263912870
 H    0.5517740595   -0.2046182110    0.8275848161
 H   -0.9832018374   -0.2222537686   -0.0372899268
 H    1.2207026957   -2.1937921229   -0.3167265032
 H   -0.3169495486   -2.2111176970   -1.1834726493
 H    0.9125397241   -2.3594340483   -3.3749246365
 H    2.4615194450   -2.3419799234   -2.5017959406
 H    1.3420942305   -3.6904429181   -2.2996337248
 H    0.3075914500    1.1844232244   -2.8782048704
 H    2.2892969687    1.2065360050   -1.7616703500