18

 C   -0.0270636030    1.5530632425    0.0474262626
 C    0.0231451744    0.0279507238    0.2008220249
 C   -1.3581584571   -0.6072135645    0.0723574790
 C   -2.0580986545   -0.7608238318   -1.3368590330
 C   -1.1021233766   -1.9752381389   -1.6004334624
 C   -1.5207070751   -2.1667374440   -0.1008880363
 C   -2.9236075250   -1.8038907673   -0.6129394151
 O   -4.0603194558   -2.1458866358   -0.5087573322
 H    0.9612352510    1.9966669501    0.2010538892
 H   -0.3712255419    1.8402402762   -0.9516171232
 H   -0.7111463011    2.0028279316    0.7752953636
 H    0.7330714173   -0.3867822941   -0.5204454874
 H    0.4180046783   -0.2248103762    1.1931786132
 H   -2.0154847726   -0.1810939279    0.8386351736
 H   -2.3541887265    0.0230210030   -2.0307748568
 H   -1.4431524136   -2.7299642094   -2.3114414758
 H   -0.0564765127   -1.7242343730   -1.7689027184
 H   -1.2125686658   -2.9512748943    0.5873159045