24

 C   -0.4108504865    1.4842310820   -0.1601930967
 C   -0.0080898592    0.0031315946   -0.0199357902
 C    0.9561645904   -0.1223910167    1.1807891812
 C   -1.2884101375   -0.8108663240    0.2638875997
 C    0.6808512032   -0.5455186752   -1.2899135782
 C    0.8695933552   -2.0697725868   -1.3565441116
 O    1.7361481198   -2.4462409551   -2.4013222009
 C    0.5954381570    0.1553533860   -2.5978538013
 N    1.8660971866    0.1434101830   -1.8413618177
 H    0.4322471347    2.1264675429   -0.4387585869
 H   -1.2040125315    1.6226985866   -0.9002699974
 H   -0.7879802497    1.8537028104    0.7985830957
 H    0.4747384351    0.2436573768    2.0935732147
 H    1.2589195151   -1.1574506996    1.3597478468
 H    1.8657831472    0.4671786299    1.0249982193
 H   -1.9697160711   -0.7883755576   -0.5932121164
 H   -1.0681037679   -1.8565944068    0.4949533966
 H   -1.8192617993   -0.3907403353    1.1245849088
 H    1.2412849270   -2.4377045621   -0.3863265917
 H   -0.0934026468   -2.5573796406   -1.5421126495
 H    2.4253741352   -1.7630773196   -2.4090954357
 H    0.6195495218   -0.4329356528   -3.5096935304
 H    0.0525567523    1.0909639536   -2.6657973244
 H    2.0197760089    1.0370459565   -1.3833285739