15

 O    0.3955426359    1.6159768073    0.0050378659
 C    0.0624728253    0.2593242473   -0.0317149060
 C    0.6847477175   -0.4138057582   -1.2448461988
 O    1.3517456431    0.2199517709   -2.0265351093
 C    0.5288569881   -0.4151435641    1.2607849733
 C   -0.2590157887   -0.0839219723    2.5378694613
 C   -0.6608826702   -1.5583390917    2.4747906059
 O   -1.3200149331   -2.3282010781    3.0893152462
 O    0.0710286624   -1.8068875473    1.3288523998
 H    0.9408347831    1.7714158703   -0.7843263068
 H   -1.0306398279    0.1154185347   -0.1095260432
 H    0.4961671006   -1.4962099023   -1.3651755720
 H    1.6162604700   -0.3643185825    1.3549853344
 H    0.3299703612    0.1831717665    3.4160048715
 H   -1.0842309471    0.6204605798    2.4215289877