19

 C    0.1539856076    1.6244999368   -0.4517211358
 C   -0.2520964201    0.3342367101    0.2362155504
 O   -0.7090761159    0.2836489554    1.3582150068
 N   -0.0560327280   -0.8004763901   -0.5341754758
 C   -0.3626031811   -2.0845762981   -0.1096517517
 N   -0.1491332899   -3.0748921077   -0.8705418466
 C   -0.4750598685   -4.3927129597   -0.4100937073
 C    0.6003653557   -5.2806752435    0.1553806678
 C   -0.5381931373   -4.8150734423    1.0398938661
 H    1.2128038592    1.6010394614   -0.7303567078
 H   -0.4273569957    1.7753432414   -1.3675020277
 H   -0.0229379813    2.4555589965    0.2296535796
 H    0.3300296421   -0.7233206924   -1.4641641133
 H   -0.7850603876   -2.1105178755    0.8959891489
 H   -1.1714918285   -4.8866713077   -1.0831930095
 H    0.6368704369   -6.3182732404   -0.1575932143
 H    1.5703784890   -4.8249523177    0.3229295059
 H   -0.2999728091   -4.0905168519    1.8100825436
 H   -1.2991553573   -5.5309677945    1.3308260105