18

 O    0.1504165471    1.2116783121   -0.5625108943
 C    0.0764951927   -0.0389685688    0.1113803582
 C   -1.3428951729   -0.5572024908    0.1770277671
 C   -1.9152320410   -1.3672354484   -0.9678434945
 C   -1.6733092703   -2.0217930693    0.3671767168
 C   -0.6160138471   -3.0722533075    0.5233134268
 C   -0.5756385571   -4.2686135391   -0.3307663770
 O    0.3584585237   -3.2013157078   -0.5145341634
 H   -0.1945496724    1.0748276904   -1.4511233474
 H    0.7341328974   -0.7859121863   -0.3524060751
 H    0.4573994972    0.1550004071    1.1203478940
 H   -2.0289412837    0.1395664392    0.6520119550
 H   -2.9361187265   -1.1864556909   -1.2846438903
 H   -1.2302201095   -1.6465649488   -1.7625591527
 H   -2.5481221730   -2.2223685028    0.9815125524
 H   -0.1957213035   -3.1640790704    1.5266643678
 H   -0.1512372773   -5.1963491656    0.0495168583
 H   -1.3143797739   -4.3786771323   -1.1229477918