19

 C   -0.0394211181    1.4725288347   -0.0843008475
 C    1.5093794225    1.5784229791    0.0519415595
 C    2.0700014946    1.4472584230    1.5024879013
 C    1.6864489792   -0.0316929468    1.4519727560
 C    1.9526214959   -1.3562367120    2.1433447563
 O    0.6183348298   -1.8067932430    1.7724942071
 C    0.1934978233   -0.4507110415    1.4802372768
 C    0.0183395415   -0.0833263097    0.0075652258
 C    1.5825761293    0.0194294470   -0.1124860460
 H   -0.6571326088    1.9982645892    0.6527072018
 H   -0.3524247699    1.7881352884   -1.0830196777
 H    2.0079342968    2.2861762865   -0.6099308585
 H    3.1558458028    1.5951305849    1.4972152768
 H    1.6336433421    2.0634272401    2.2955526345
 H    2.7380257035   -2.0017212132    1.7338439550
 H    2.0619865802   -1.2982743029    3.2368218431
 H   -0.5391256573   -0.0917044649    2.2139288128
 H   -0.6435647246   -0.6720041936   -0.6286362320
 H    2.2371778271   -0.5202767052   -0.7929947851