15

 C    0.0880886201    1.5305993435    0.0427658902
 C    0.1084404706    0.0208583855    0.0314788999
 C    1.3413054336   -0.7650772145   -0.2016843149
 C    0.7312649301   -0.8007383400    1.2075449306
 C    1.4663589063   -0.0842471431    2.2973947518
 O    2.2740457807    0.7898311879    2.1010288162
 C    0.0159876990   -1.9766199797    1.6212048702
 N   -0.5575454819   -2.9183787185    1.9721085710
 H    1.0133655963    1.9447016445    0.4450936075
 H   -0.0347593554    1.8937470712   -0.9831466667
 H   -0.7513176026    1.9092248199    0.6338700325
 H   -0.8097670688   -0.4418340234   -0.3192952290
 H    1.2922500049   -1.6852930025   -0.7711374430
 H    2.2818783510   -0.2258286545   -0.2441228887
 H    1.2091459061   -0.4205754562    3.3220135524