17

 O   -0.0662405330    1.4338731195   -0.0591711912
 C   -0.0038679461    0.0389201355    0.0223873032
 C    0.9099985235   -0.5453203366   -1.0781998951
 C    2.2645988529   -0.0167527555   -0.9731958517
 C    3.3551200379    0.4736510097   -0.8416492929
 C    0.2603549749   -0.6216327621    1.4384995016
 C   -1.1013114627   -1.3097987434    1.2965924477
 O   -2.0751388512   -0.2667374370    1.2042061937
 C   -1.3833842048   -0.6380179741    0.0147736658
 H    0.8406218288    1.7656785201   -0.0815516498
 H    0.9209282774   -1.6398960938   -1.0181857444
 H    0.4865010779   -0.2801306123   -2.0552175250
 H    4.3313479170    0.8811820758   -0.7464153319
 H    1.1234763669   -1.2907202411    1.4493688909
 H    0.3155808376    0.0833489971    2.2696176850
 H   -1.4314809056   -2.2743952033    1.6625201931
 H   -1.9792727314   -0.9340881587   -0.8423590689