21

 C   -0.0365225553    1.4190028210    0.7714775489
 C    1.2188941310    0.9108844800    0.0992075005
 C    2.4961015691    0.5317669844    0.8450024758
 C    2.4632895518   -0.7038862888    1.7385209329
 C    1.2903547744   -0.8659557814    2.7277087701
 C    0.7183239428   -1.8003801873    1.6413542260
 C   -0.3354664943   -1.2475206223    0.6873296002
 C   -0.0668341469    0.1029655881    0.0276161682
 O    2.0153428739   -1.8662433122    0.9959437752
 H   -0.0861411854    1.4020741927    1.8536786280
 H   -0.5471409547    2.2704655121    0.3329058720
 H    1.4490051069    1.4253157020   -0.8303767287
 H    3.2758032068    0.3404074807    0.0970615298
 H    2.8481839297    1.3876050088    1.4384381458
 H    3.4610073777   -0.8687552711    2.1621046303
 H    1.5858263129   -1.4155452411    3.6234280141
 H    0.7212757566    0.0135746474    3.0222890607
 H    0.4031182411   -2.7902583605    1.9918288011
 H   -0.4396359428   -1.9942822131   -0.1098306502
 H   -1.3037615491   -1.2213764322    1.2072408148
 H   -0.5543503563    0.1664616829   -0.9419269357