16

 O   -0.1455606832    1.4597039554   -0.0155085652
 C    0.0636525390    0.0494079040   -0.0439078840
 C   -1.3178721889   -0.5935432593    0.1318327401
 C   -1.3108284782   -2.0750167329   -0.2006124606
 O   -1.7513264699   -2.9166179632    0.5448696788
 C   -0.7242359996   -2.4301291167   -1.5638043054
 C    0.3662792983   -1.4893754917   -2.0036651073
 C    0.7180655792   -0.3970958244   -1.3287006534
 H    0.7148943769    1.8910140295    0.0046501461
 H    0.7033084662   -0.2438711713    0.8061357149
 H   -1.7036847477   -0.4462551950    1.1416804942
 H   -1.9895542633   -0.0882788618   -0.5753710960
 H   -0.3761825169   -3.4684194531   -1.5274771374
 H   -1.5484701932   -2.4195557902   -2.2939499818
 H    0.8922697669   -1.7531479067   -2.9179120259
 H    1.5310001143    0.2286834274   -1.6916898272