21

 C   -0.1604761894    1.3080377542    0.0701605584
 O   -0.0902590574   -0.1091901223   -0.1252571924
 C    0.7064157128   -0.5136305887   -1.1378537502
 O    1.3299223913    0.2464693419   -1.8359492291
 C    0.6904305647   -2.0224065602   -1.2645006381
 C    1.6731710107   -2.5451980910   -2.3152560204
 C    1.6124010286   -4.0496804455   -2.4666568314
 C    0.5838051901   -4.6840687536   -3.3716329775
 C    2.0448750739   -4.7053257134   -3.7518199844
 H    0.8272395406    1.7167307860    0.2988207132
 H   -0.5439206438    1.8039982203   -0.8253169981
 H   -0.8390339148    1.4593130828    0.9098989902
 H    0.8956399880   -2.4493634547   -0.2755752793
 H   -0.3358087069   -2.3277404662   -1.5046708275
 H    1.4580002056   -2.0653986756   -3.2765035439
 H    2.6890574402   -2.2317086856   -2.0471420714
 H    1.8402733068   -4.6022454287   -1.5575253206
 H    0.1174275286   -5.6126634534   -3.0615570162
 H   -0.0721519781   -4.0245738852   -3.9314078517
 H    2.3650751546   -4.0609348046   -4.5641401300
 H    2.5774868840   -5.6483985163   -3.6985051596