15

 C    0.0427739076    1.5517561202    0.0113577628
 C    0.0442429530    0.0551635763   -0.0068390712
 C    0.0333669268   -0.7809451464   -1.0921406390
 O    0.0135364905   -0.5644590411   -2.4223078053
 N    0.0419811880   -2.0821337978   -0.6355482622
 C    0.0350182463   -3.2403749354   -1.4248083062
 O    0.0422818533   -4.3570742647   -0.9920189621
 N    0.0586485680   -2.1216779663    0.7370373375
 C    0.0605391999   -0.8563197328    1.0936733050
 H    0.9978156651    1.9622399049    0.3585699410
 H   -0.1436120871    1.9709248288   -0.9846825736
 H   -0.7399213866    1.9445510214    0.6686090326
 H    0.0301597425    0.3851833777   -2.5837673399
 H    0.0222608590   -2.9802379209   -2.4956507792
 H    0.0711559438   -0.6029587438    2.1457235599