18

 C    0.0216437510    1.5506683088   -0.0045695271
 C   -0.0060190023    0.0109479749    0.0415387450
 C    0.6647407928   -0.4838771727    1.2492851145
 N    1.1923338260   -0.8772182048    2.1995391761
 C   -1.4490745092   -0.5315031757   -0.0460350196
 C   -1.5866048843   -2.0706393504   -0.0146853968
 O   -2.7561432501   -2.2769720765    0.7601484928
 C   -2.7288359666   -1.2539472942    1.7190770411
 O   -2.2229146867   -0.0963984596    1.0659397918
 H    1.0452921172    1.9260311818    0.0599960321
 H   -0.4181183528    1.8984700643   -0.9436976455
 H   -0.5584244913    1.9601845483    0.8245647931
 H    0.5472930562   -0.3831656475   -0.8219434210
 H   -1.8950044818   -0.1187167846   -0.9607589256
 H   -1.7413488141   -2.5117313909   -1.0011241858
 H   -0.7110627565   -2.5376348830    0.4598050091
 H   -3.7484527280   -1.0599266609    2.0633265838
 H   -2.0749474097   -1.5170792773    2.5663007520