18

 C   -0.2089091904    1.3773227084    0.2566288060
 C   -0.0289750884   -0.0947080168    0.0213052961
 C    0.5741432633   -0.8353520360   -1.1949493755
 C    0.1793414576   -1.9812416063   -0.2448395582
 C    0.5689032303   -1.1606443765    1.0240012000
 N   -0.7452065491   -1.4402344057    1.6655562116
 C   -1.3126130053   -0.8344161415    2.7507448727
 O   -2.4801175709   -0.5172328004    2.8428124853
 C   -1.1049972217   -1.2357397557    0.2383136798
 H    0.7549225535    1.8977356668    0.2519304174
 H   -0.8348376432    1.8224896408   -0.5239056162
 H   -0.6941501698    1.5634987095    1.2204658054
 H    0.0172593298   -0.7645872067   -2.1337743149
 H    1.6439244379   -0.6925201785   -1.3740016672
 H    0.2837961570   -3.0591150409   -0.3611428260
 H    1.5135079556   -1.1436022094    1.5677308789
 H   -0.5902028767   -0.7406448613    3.5890959753
 H   -2.1241714694   -1.2993305399   -0.1362074205