24

 C   -0.2070417119    1.5062598545    1.5980003895
 C   -0.0720020856    0.4487050072    0.4943221320
 C   -1.3506275980   -0.3441806606    0.2937038482
 C   -1.3927508874   -1.6944036073   -0.3500662642
 C   -0.1576198235   -2.4051240054   -0.8669039942
 C   -0.3665861587   -3.9120458939   -0.9894292002
 O    0.8120257721   -4.4663425925   -1.5537392110
 N   -1.7189415270   -1.5319261249    1.0732089346
 C   -0.8353511457   -2.0502734369    2.1048860197
 H    0.7081091517    2.0991023269    1.6909799117
 H   -1.0316821699    2.1946372912    1.3833357296
 H   -0.4088737277    1.0443794047    2.5696732169
 H    0.1709092533    0.9446604498   -0.4546888209
 H    0.7749203457   -0.2064722245    0.7148362998
 H   -2.2085746163    0.3067824327    0.1121908548
 H   -2.2783409934   -1.9193736967   -0.9481025868
 H    0.0890763843   -2.0149062434   -1.8623815255
 H    0.7190629168   -2.2258520548   -0.2401961115
 H   -0.5770392327   -4.3435629261    0.0020238863
 H   -1.2465134288   -4.1118591422   -1.6228164876
 H    0.6905132625   -5.4169947337   -1.6309262479
 H    0.2431331576   -1.9843690085    1.9016875319
 H   -1.0315964073   -1.5105880899    3.0374020833
 H   -1.0772661802   -3.1046918556    2.2767709417