18

 C    0.0847511063    1.4601124010    0.1960576792
 C   -0.1249067330   -0.0121226719    0.4999715163
 O    1.1382057450   -0.5855862156    0.8256451625
 C    1.0828327410   -1.9459115785    1.0733332284
 C    2.1584769471   -2.5209236868    1.9050429482
 C    0.7371452687   -2.4630022144    2.4798049207
 C    0.4717942184   -1.4991167838    3.5682517871
 O   -0.3116226181   -1.6861752055    4.4689317131
 H    0.7745465522    1.5859797775   -0.6430898378
 H   -0.8677491334    1.9320123804   -0.0618263248
 H    0.5025905523    1.9763349618    1.0649051399
 H   -0.8231522596   -0.1453264748    1.3401312609
 H   -0.5547239478   -0.5347572076   -0.3689903367
 H    0.6803536538   -2.5435528823    0.2538424375
 H    2.5610730210   -3.4965467637    1.6609400991
 H    2.8722080342   -1.8182851446    2.3226689400
 H    0.1751140273   -3.3878477743    2.5483784450
 H    1.0630114647   -0.5589710368    3.5032033513