20

 C   -0.1033800357    1.5884261268    0.2280324882
 C   -0.0661392855    0.0708221886    0.0134408007
 C    0.8909338197   -0.6315875005    0.9836295574
 N   -1.4067972428   -0.5067200175    0.0828761394
 C   -2.2672414552   -0.5159876106    1.1436115598
 C   -3.4083124785   -1.1789328535    0.7277242828
 N   -4.5482769737   -1.5082830750    1.4831866003
 C   -3.1319291051   -1.5332930302   -0.6107755772
 N   -1.9212289479   -1.1212545650   -0.9909839423
 H    0.8943150697    2.0134836340    0.0824414968
 H   -0.7889231836    2.0629848362   -0.4789392107
 H   -0.4283295210    1.8392567939    1.2432936741
 H    0.2476854939   -0.1376567350   -1.0122805075
 H    0.9042629038   -1.7092509372    0.8012441426
 H    1.9067614954   -0.2450795145    0.8569140393
 H    0.5957593037   -0.4633698131    2.0245962803
 H   -2.0135138571   -0.0670469064    2.0903248094
 H   -4.7404195885   -0.8348975971    2.2137544409
 H   -5.3734761686   -1.6004081219    0.9046119961
 H   -3.7636153929   -2.0689765720   -1.3048832502