21

 O   -0.7188923571    0.8746226489    0.8293149678
 C    0.0131191060    1.0192804276   -0.1151952752
 C    1.2905165998    1.8267249542   -0.1120142258
 C    1.2844763436    2.9159510188   -1.1990807002
 C    2.6127031128    3.6751615250   -1.2894466926
 C    2.6058691821    4.7654004960   -2.3647807760
 C    3.9472988111    5.5219294419   -2.4473780496
 C    3.9539917141    6.5605866087   -3.4701373898
 C    3.9321523992    7.4100138936   -4.3203415775
 H   -0.2242837003    0.5477448100   -1.0991206266
 H    1.4328808604    2.2524078838    0.8856908180
 H    2.1203087480    1.1311813771   -0.3074005196
 H    1.0588020299    2.4587973611   -2.1719635144
 H    0.4706895859    3.6237152645   -0.9967635879
 H    2.8415942194    4.1241881747   -0.3134178088
 H    3.4238141377    2.9625804702   -1.4939231417
 H    2.3859075633    4.3242473356   -3.3441247180
 H    1.8038207064    5.4850990740   -2.1634829515
 H    4.1743064849    5.9695930953   -1.4706734038
 H    4.7570504057    4.8075430392   -2.6469703100
 H    3.9249522271    8.1637170296   -5.0679984267