20

 C   -0.0965631330    1.6141105309   -0.0607507536
 C   -0.0556565137    0.0839986968   -0.0548649294
 C   -1.4432852784   -0.5584642495    0.0128790638
 C   -1.4223603727   -2.0778601537    0.3617749756
 O   -1.9626622884   -1.7820347498    1.6865860905
 C   -2.1124685748   -0.4437239306    1.3918858436
 N   -2.6255742813    0.4863137258    2.0590420540
 O   -2.1485297573   -0.1416659377   -1.1203192178
 C   -3.5439939101   -0.3927308790   -1.1405982471
 H    0.9176475263    2.0228125250   -0.0951944034
 H   -0.6452483177    1.9801710625   -0.9312376999
 H   -0.5923141496    1.9939472077    0.8367670964
 H    0.4307766370   -0.2889872692   -0.9647167877
 H    0.5338166838   -0.2787944850    0.7950989141
 H   -2.1095505855   -2.7048221747   -0.2107590381
 H   -0.4393276974   -2.5487476454    0.4304635455
 H   -2.9721669836    0.1529388485    2.9611987311
 H   -3.7745636710   -1.4672638593   -1.1157566167
 H   -4.0527335510    0.1005518103   -0.3046663467
 H   -3.9143445016    0.0172375066   -2.0823514740