14

 N   -0.0290691340   -1.1542796296   -0.0535322957
 C   -0.0246370545    0.0010166175   -0.0268815619
 C   -0.0558238216    1.4512505129   -0.0306841841
 C   -0.0477021721    2.0879926833    1.3935096707
 O    1.3887339045    1.8000067490    1.4669693394
 C    1.3546898759    2.1145860135    0.0346420275
 C    1.0261260622    3.6302354385    0.0782821534
 O   -0.3283225304    3.9621693566   -0.2627687414
 C   -0.0234415638    3.6103319947    1.0952769648
 H   -0.7682176101    1.8367765428   -0.7583505343
 H   -0.6268110405    1.7019075001    2.2289503280
 H    2.2152530108    1.7558057879   -0.5249088519
 H    1.7759244503    4.3997114632   -0.0595058137
 H   -0.1996717566    4.3622486395    1.8547771491