16

 C    0.0088677077    1.4584602314    0.0668834128
 C    0.0011947772   -0.0550143567    0.0070342998
 O    0.7209337222   -0.5310072406    1.1700246951
 C    0.8403478991   -1.8318806805    1.3207389531
 N    1.4554476753   -2.4195454909    2.3038543305
 C    1.2786402786   -3.7410142663    1.9675111690
 N    1.8346511115   -4.7383009809    2.7233427593
 N    0.5952822200   -3.9768562768    0.8670773392
 O    0.3005730741   -2.6482466934    0.4160096457
 H    1.0323273578    1.8425562543    0.0527858940
 H   -0.5258185349    1.8628532175   -0.7971891910
 H   -0.4822204065    1.8140449169    0.9766273940
 H   -1.0151523294   -0.4606436298    0.0310478776
 H    0.4975693947   -0.4315636459   -0.8928520366
 H    1.9794055021   -4.4897569143    3.6898532172
 H    1.4336140706   -5.6535624841    2.5844870703