20

 O    0.0319345334    1.3554579583   -0.3195094181
 C    0.0054958557    0.0134303305    0.1530140520
 C   -1.3863602005   -0.5335502892    0.1864139854
 C   -1.9746648751   -1.8911445984   -0.0325160531
 C   -2.9698428431   -1.6891164591    1.1183918933
 C   -2.5748556330   -0.1760607694    1.1304453134
 C   -3.5209995682    0.6279864212    0.2368300511
 C   -3.3766631559   -0.1154927782   -1.1160119131
 N   -2.0835809159   -0.8409355288   -1.0633357633
 H   -0.3162897217    1.3323896440   -1.2178842315
 H    0.6375056424   -0.6434628725   -0.4629633082
 H    0.4339901833    0.0414476924    1.1605017669
 H   -1.5029526529   -2.8236837460   -0.3256566445
 H   -4.0231067509   -1.9335070509    0.9405886725
 H   -2.6326272597   -2.2099681305    2.0179277871
 H   -2.3556053238    0.2642482818    2.1026077397
 H   -4.5520107554    0.6363960800    0.6044079519
 H   -3.1783637413    1.6648348837    0.1539373856
 H   -4.1902124793   -0.8267026919   -1.2894403038
 H   -3.3568456381    0.5692073529   -1.9685736734