21

 C   -0.0550825778    1.6879648267    0.1310416969
 C   -0.0326840502    0.1767976704   -0.0793913887
 O    0.5684070730   -0.0667772012   -1.3412763732
 C    0.7249382852   -0.5048595287    1.0605459578
 C   -0.0106540352   -1.2703223612    2.1105808290
 C    0.9200758077   -2.0126363370    1.1482099824
 C    0.3454272847   -2.9752678207    0.1674571407
 C    0.9073399097   -4.3832294190    0.2244888194
 O   -0.5228792536   -2.6770028170   -0.6337355840
 H    0.9628325228    2.0902401542    0.0936872862
 H   -0.6387758382    2.1679566824   -0.6583997643
 H   -0.4948179002    1.9426233135    1.1002505617
 H   -1.0625753063   -0.2012475756   -0.0821805806
 H    0.3095405111   -0.9660462659   -1.5766868785
 H    1.6009457698    0.0477138185    1.3927850595
 H    0.2933540711   -1.2138447717    3.1497046230
 H   -1.0739234625   -1.4206756649    1.9519370135
 H    1.8569277777   -2.3391696877    1.5887148088
 H    0.8296868265   -4.7873147106    1.2397852906
 H    0.3747135603   -5.0259802773   -0.4768539093
 H    1.9737752043   -4.3676617772   -0.0297933908