18

 C   -0.2882723954    1.5386600018    0.0590227960
 C   -0.0267267721    0.0371631128    0.0035430631
 C    1.1316242863   -0.4397811350   -0.9638208812
 N    1.8041404460   -0.9878376381    0.2325087034
 C    2.7932977499   -1.5904020870    0.9271670991
 N    2.4770456780   -1.5995068341    2.2177548867
 C    1.2589219319   -0.9731417709    2.3575434009
 N    0.7036923974   -0.7725001453    3.6288402647
 C    0.8286717267   -0.5818792590    1.1082095592
 H    0.6412065634    2.0930506990    0.2217665000
 H   -0.7473761583    1.8934236131   -0.8702843245
 H   -0.9682353858    1.7804348258    0.8818626648
 H   -0.9621821427   -0.4995061400   -0.1907927299
 H    0.8607295921   -1.1986933872   -1.7020857434
 H    1.6898668429    0.3680377035   -1.4447802047
 H    3.6907976684   -2.0037707899    0.4956912139
 H    1.1773319303   -1.3604588824    4.3039191326
 H   -0.2911153391   -0.9564097770    3.6594754992