17

 N   -0.0690919240   -1.1666382561   -0.1121497959
 C   -0.0224427619   -0.0139149434   -0.0488158157
 C   -0.0053094096    1.4465677043    0.0434315918
 C   -0.5000531324    2.0039921313    1.3922023906
 C    0.7422647917    2.1176317839    2.2464399905
 C    1.8856910573    1.6049382333    1.3650506316
 N    1.3794608332    2.0122697116    0.0208956544
 C    1.0701858748    3.4514585248    0.2609083624
 C    0.2079574062    3.3345300649    1.5226997647
 H   -0.5684142521    1.8472716787   -0.8053809130
 H   -1.4854095512    1.8033797524    1.7869839380
 H    0.7171981645    2.0105042635    3.3215024419
 H    2.8435826159    2.0942490012    1.5584490188
 H    2.0245604896    0.5222549803    1.4075108894
 H    1.9988090015    4.0074231164    0.4130483768
 H    0.5420618099    3.8751071807   -0.5980717652
 H   -0.2350602033    4.1803160722    2.0296817889