17

 O   -0.1769310672    1.4202166853   -0.3482073322
 C    0.1050088148    0.0631737123   -0.0262156051
 C   -1.2203195575   -0.5934612872    0.2684276619
 C   -2.0524136581   -1.1776828802   -0.8136309307
 C   -1.4113313816   -2.1162148001    0.2060117358
 C   -0.3296985263   -3.0138766653   -0.2391670567
 O    0.4463216009   -2.8165122768   -1.1541905352
 C   -0.1820378057   -4.3408337043    0.5241482804
 O   -0.8871003251   -4.6794041189    1.4373676087
 H    0.6538888179    1.8482969538   -0.5749488383
 H    0.6066616111   -0.4558954732   -0.8512821255
 H    0.7560099180   -0.0054735180    0.8603313092
 H   -1.7549523124   -0.1314880636    1.0936230403
 H   -3.1305529305   -1.0747808125   -0.7760960264
 H   -1.6197571294   -1.2130851745   -1.8080497228
 H   -2.0442873985   -2.5449789745    0.9728030772
 H    0.6532564996   -4.9585364522    0.1318468194