14

 N   -0.2336413439    1.0726466086   -0.7851847814
 C   -0.0961797386   -0.0005165132   -0.1649030003
 O    1.0219264364   -0.5517184870    0.4743400210
 C    0.3172731777   -1.7806179206    0.7639868365
 C   -0.3811143590   -1.7650031756    2.1578249576
 N   -1.5352294821   -1.0277167167    1.5599052904
 C   -0.9843440644   -1.1837039640    0.1828735016
 C   -0.7042620486   -3.1004554018    2.6495430707
 N   -0.9849211969   -4.1614431070    3.0135832901
 H    0.6223889048    1.6295152637   -0.7892067852
 H    0.8577661449   -2.6666311319    0.4395700409
 H    0.1493412190   -1.1988520906    2.9296359655
 H   -2.4286406881   -1.4834308084    1.7015820837
 H   -1.6259711413   -1.6197870056   -0.5799063510