23

 C   -0.0799041876    1.5236888918    0.0802463811
 C   -0.0084241006    0.0057340605    0.0021364668
 C    0.7466124884   -0.4943613739   -1.2348227216
 C    0.8890031789   -2.0285180866   -1.2537509626
 C    2.3147687929   -2.5074134220   -1.6517918947
 C    2.6776972387   -2.5558986546   -0.1418274755
 C    1.1571931139   -2.6141532141    0.1704421400
 C    0.5684729661   -1.8489096895    1.3454942106
 O    0.6540432758   -0.4442409765    1.1815614465
 H    0.9279687736    1.9500444786    0.1070933935
 H   -0.6055424489    1.9310311756   -0.7887929888
 H   -0.6065235768    1.8359791688    0.9859706903
 H   -1.0341895913   -0.4069778400   -0.0059979562
 H    0.2484968069   -0.1494068871   -2.1481992482
 H    1.7367497952   -0.0222954321   -1.2192931224
 H    0.0535026488   -2.4785505793   -1.7978041935
 H    2.2982047670   -3.5085400832   -2.0923184040
 H    2.8991878027   -1.8494552204   -2.3010218232
 H    3.2995854696   -3.3831493610    0.2086059651
 H    3.1167129018   -1.6160200718    0.2042393817
 H    0.8257898490   -3.6572466792    0.2185076529
 H   -0.4884810078   -2.1397746040    1.4816807643
 H    1.0984632737   -2.0818288201    2.2760112879