16

 N   -0.3664746735    0.9061808647    0.8573148115
 C   -0.5882042074   -0.0532788242    0.0694291381
 O   -0.3840353716   -1.3228300702    0.4803387638
 C   -0.8187818102   -2.3526889339   -0.4049254360
 C   -2.2679906387   -2.6801450902   -0.2147345015
 C   -3.0845803294   -2.2275809754    0.7749273608
 O   -4.3347829845   -2.7441036163    0.6364361879
 C   -4.3131644310   -3.5449169591   -0.4589888990
 C   -3.0793727218   -3.5479622463   -1.0247458868
 H   -0.5391540235    1.7907017401    0.3843311656
 H   -0.9314119278    0.0181788551   -0.9722409353
 H   -0.6161393762   -2.0683772677   -1.4480203970
 H   -0.1842037570   -3.2160089683   -0.1791244449
 H   -2.9305324648   -1.5650555916    1.6092410962
 H   -5.2427704957   -4.0319998996   -0.7029337092
 H   -2.7778053869   -4.0936876271   -1.9056130741