17

 N    0.3797065052    1.4696897175    0.2290859414
 C    0.0162430840    0.1031617119    0.1899629509
 C   -1.1275245847   -0.5964674418    0.4848965171
 C   -0.8892519169   -1.9821650673    0.1983858390
 C   -1.7718206083   -3.1764636046    0.3698775530
 O   -1.4995595808   -4.1795267775   -0.6334392731
 C    0.4078041904   -2.0617168765   -0.2638400971
 O    1.1339406936   -3.1232389535   -0.6826517725
 N    0.9522694009   -0.8141585068   -0.2737754030
 H   -0.3721561041    2.0581534018   -0.1103233188
 H    0.6047187228    1.7811758063    1.1696707497
 H   -2.0387685946   -0.1725325752    0.8814945643
 H   -1.5970077260   -3.7010360044    1.3175248552
 H   -2.8331013517   -2.8915501811    0.3536876729
 H   -1.7085442959   -3.7777953324   -1.4851298384
 H    0.4989081396   -3.8586361657   -0.7300878874
 H    1.8567906466   -0.5689980707   -0.6390405133