25

 C   -0.0047507672    1.5949436579   -0.0302871722
 C   -0.0217869737    0.0593413317   -0.0297124903
 C    0.7141664382   -0.4683928446   -1.2746016628
 C    0.6669342745   -1.9820042824   -1.5232017844
 C    1.3541841251   -2.8399670383   -0.4437297059
 C    0.5877765653   -2.9445444615    0.8530458079
 C    0.2273858830   -1.9185443116    1.6281187877
 C   -0.5544482247   -2.1280896928    2.8987828553
 C    0.5710974578   -0.4781087460    1.2946015536
 H    1.0204190345    1.9762659998    0.0525156595
 H   -0.4330597008    1.9968745576   -0.9545996643
 H   -0.5775874344    2.0011260791    0.8099458204
 H   -1.0692060943   -0.2694583129   -0.0849660926
 H    0.3030507434    0.0384107272   -2.1572704280
 H    1.7668642554   -0.1528623374   -1.2122414623
 H   -0.3754097358   -2.3086070714   -1.6286571568
 H    1.1525668706   -2.1796700389   -2.4872180250
 H    1.5118622549   -3.8473613520   -0.8427925288
 H    2.3598595421   -2.4312748918   -0.2600331998
 H    0.3009893174   -3.9472922813    1.1642441319
 H   -0.7718494863   -3.1850035808    3.0754395660
 H   -0.0064743054   -1.7422902807    3.7688915500
 H   -1.5080186448   -1.5836146399    2.8716580023
 H    1.6638549778   -0.3528429926    1.2585883271
 H    0.2266646474    0.1632533334    2.1137563716