20

 C    0.5440346097    1.4360318474   -0.0709667678
 C    0.0358268413    0.0345176316    0.1552491727
 N   -0.1991548701   -0.4501574996    1.3154099175
 O    0.1074566320    0.4732187767    2.3302219780
 C   -0.2183909609   -0.8148644551   -1.0398341550
 C    0.8921743101   -1.6430895019   -1.6695733432
 C   -0.3066006962   -2.3227870365   -1.0623391511
 C   -0.1524344114   -3.2228411550    0.1468550583
 O    0.2661985912   -4.5316717672   -0.2258410256
 H    1.5407022671    1.5542873288    0.3672731898
 H    0.5989238046    1.6689074465   -1.1357563260
 H   -0.1026773853    2.1628677068    0.4297371365
 H   -0.1282094591   -0.0164057083    3.1250397249
 H   -0.8569405965   -0.3108839321   -1.7636505601
 H    1.0106224208   -1.6173704688   -2.7471677775
 H    1.8221690169   -1.7209732365   -1.1155016174
 H   -1.0390910989   -2.7012445802   -1.7750003174
 H    0.6172563915   -2.8398225757    0.8172564385
 H   -1.0901999865   -3.2519680768    0.7202788587
 H   -0.4242850402   -4.9167636539   -0.7746206337