17

 C    0.0422911018    1.5483531825    0.0274072917
 C   -0.0265960720    0.0156169699   -0.1154064346
 C   -1.3815898331   -0.5078291276   -0.0532821989
 C   -2.5175357410   -0.9269721208    0.0007375102
 C   -3.7882517059   -1.3948232894    0.0612696224
 C   -4.9266640006   -1.8148638827    0.1154039797
 C   -6.2882606612   -2.3046597187    0.1814239315
 C   -6.4480300239   -3.8052227203    0.0443350210
 O   -7.2262848894   -1.5502386091    0.3365044240
 H    1.0818818763    1.8832056298   -0.0267002876
 H   -0.5217751000    2.0384656725   -0.7700427910
 H   -0.3756396037    1.8683581246    0.9851324429
 H    0.4291422610   -0.2907097789   -1.0661632897
 H    0.5738157140   -0.4591234735    0.6717427176
 H   -5.8868971654   -4.3174396670    0.8333397239
 H   -7.5056167946   -4.0657095982    0.1076791000
 H   -6.0346263523   -4.1422120831   -0.9123784430