19

 C   -0.0924138328    1.5831218978    0.1196098877
 C    0.0861490284    0.0779623601    0.0006399972
 C    1.2220341798   -0.5669344397   -0.8372009221
 C    2.2391088049   -0.1683237663    0.3183427947
 C    0.9629170491   -0.7338812739    1.0240450433
 C    0.2320807361   -1.5861565614    2.0782968295
 C   -0.2303830022   -2.4511567824    0.8271564733
 O   -1.1059283126   -3.2390726167    0.6566070870
 C    0.9734285220   -1.8756521390   -0.0066726733
 H    0.8408829852    2.1220122856    0.3005676017
 H   -0.5342889896    1.9867044027   -0.7980759022
 H   -0.7767210934    1.8222094671    0.9412984553
 H   -0.8893070917   -0.3870413752   -0.1889573511
 H    1.4011118874   -0.4679387380   -1.9108433033
 H    3.1400097884   -0.7819555083    0.3944515308
 H    2.4796866904    0.8898580544    0.4296749281
 H    0.8954304580   -2.1866144372    2.7104221948
 H   -0.5467019980   -1.1319209368    2.6959983317
 H    1.8200789505   -2.5697664828    0.0554763171