18

 O   -0.0785768264    1.3005771191   -0.4968403034
 C    0.0101470482    0.0420341331    0.1727025720
 C   -1.3781164227   -0.5455704118    0.1195436270
 O   -2.3477443945    0.2884408561    0.6787798755
 C   -1.7774285749   -1.4280349608   -1.0534598388
 C   -1.5974791004   -1.9991842648    0.3386748654
 O   -0.4616929454   -2.7765274000    0.6350562215
 C   -0.5135837123   -4.0700032322    0.2429728287
 N    0.4579839717   -4.8359684834    0.4869773400
 H    0.6805379040    1.8326364389   -0.2432766036
 H    0.7376321200   -0.6244309711   -0.3051078390
 H    0.3024727867    0.1760564755    1.2234467903
 H   -2.1870792628    1.1583432284    0.2893574102
 H   -2.7911648809   -1.3399289166   -1.4263543611
 H   -1.0175265052   -1.6586938825   -1.7920719504
 H   -2.4883794577   -2.2730276785    0.8986001344
 H   -1.4460758745   -4.3296733448   -0.2743807730
 H    0.2609336872   -5.7692529747    0.1315254842