17

 C    0.0062871263    1.4599260561   -0.1130620630
 C   -0.0235877242   -0.0353980663    0.0723964173
 O   -0.0473950132   -0.6238632188    1.1201964408
 O   -0.0334716422   -0.6640511699   -1.1375798885
 C   -0.0111735499   -2.0596607765   -1.0834086916
 C    1.2435719358   -2.8691701732   -1.2776949307
 C    0.0687234692   -3.0408145156   -2.2120954068
 O   -0.9222435191   -3.8906947053   -1.6292980528
 C   -1.1314609891   -2.9362233193   -0.5457330218
 H    0.9188630244    1.7513406840   -0.6411889981
 H   -0.8400155339    1.7797190742   -0.7271475818
 H   -0.0311231586    1.9470388780    0.8602832760
 H    2.0670030032   -2.2995375564   -1.6981568109
 H    1.5186871241   -3.6608490170   -0.5863012482
 H    0.0991322434   -2.9429331192   -3.2903108609
 H   -0.9977152167   -3.3773618064    0.4452051843
 H   -2.1193550995   -2.4708251782   -0.6295293632