23

 C   -0.1056237204    1.4776650105    0.1066953833
 C    0.0068627195   -0.0515675530    0.0639503930
 C    1.2432785288   -0.4373999074   -0.8284027022
 C    2.1081569328   -0.4623974398    0.4918401329
 C    0.7771314912   -0.7116253314    1.2291013406
 C   -0.1405194825   -0.4572611771    2.4533573432
 C   -1.0902219448   -1.4199381949    1.6267917051
 C    0.2079992181   -2.1613937975    1.2408242194
 C   -1.3881329481   -0.7207288114    0.2632331030
 H    0.8661033984    1.9653546174    0.2352270919
 H   -0.5286063426    1.8370866998   -0.8392827226
 H   -0.7638432863    1.8275826550    0.9072812214
 H    1.1725469561   -1.4241462803   -1.2894052415
 H    1.5313302512    0.2879366071   -1.5938490525
 H    2.8744942059   -1.2358892775    0.5840796183
 H    2.5656928302    0.5091159170    0.6934766076
 H    0.1754436819   -0.9391823096    3.3822083189
 H   -0.4606805949    0.5667210599    2.6568304790
 H   -1.9199564148   -1.9294069465    2.1190563221
 H    0.2075457320   -2.7465154823    0.3168965208
 H    0.6366891443   -2.7502023084    2.0565049124
 H   -2.1957686393    0.0158994788    0.3083040113
 H   -1.6582783365   -1.4629768884   -0.4949663354