22

 C    0.1417920023    1.3468444049    0.0719203530
 O   -0.0606284190   -0.0485512490    0.0104393420
 C   -1.4085561123   -0.5306355689    0.0138616980
 C   -2.1887993154   -0.0575617912    1.2487089828
 C   -2.1333802460   -0.1260237821   -1.2783487918
 C   -1.1886166801   -2.0810077028    0.0313116171
 C   -0.3926499320   -2.5912067961    1.2491047220
 C   -2.4602906242   -2.7996025774   -0.0803772484
 N   -3.4643578073   -3.3686842177   -0.1508292738
 H    1.2235139802    1.4993272436    0.0425030067
 H   -0.3040448872    1.8778938796   -0.7799583480
 H   -0.2448666868    1.7882279909    0.9999949695
 H   -2.4320685046    1.0058372095    1.1778392889
 H   -3.1322896341   -0.6044050148    1.3315338430
 H   -1.6135251090   -0.2159262064    2.1643398547
 H   -1.5470028636   -0.4236022720   -2.1528986487
 H   -3.1149823681   -0.6028615083   -1.3384016026
 H   -2.2900265619    0.9551012906   -1.3202741881
 H   -0.6083093682   -2.3042877502   -0.8720247419
 H   -0.9636111535   -2.4852378555    2.1745551999
 H   -0.1511456701   -3.6496138894    1.1245151400
 H    0.5326576608   -2.0208702174    1.3336759957