17

 C   -0.1907747387    1.4252331587    0.2478775948
 C   -0.0289135975   -0.0111336211   -0.0817710627
 C    0.1462774809   -0.7266381924   -1.2160246926
 N    0.2306449652   -2.0856517656   -0.9171937946
 C    0.1113944303   -2.1239189449    0.3729275412
 O   -0.0498908177   -0.9146911981    0.9633533507
 N    0.2007328657   -3.2097094944    1.2241032818
 C   -1.0391289690   -3.8278875853    1.7227984430
 C   -0.1999522851   -4.5077302066    0.6975400279
 H    0.6031560593    1.7796441524    0.9151929753
 H   -0.1544921459    2.0168415477   -0.6699024260
 H   -1.1483347542    1.6222046746    0.7437059770
 H    0.2162540060   -0.3660655701   -2.2304063871
 H   -1.0058027400   -4.1398144620    2.7614492652
 H   -1.9796859946   -3.3940752028    1.3948726825
 H   -0.5647553064   -4.5290057482   -0.3245547969
 H    0.4449657118   -5.3323050419    0.9838512204