17

 C   -0.4000076091    1.4928593170   -0.0332836576
 C    0.1068586926    0.0549436940   -0.0274895103
 C    0.9095179654   -0.4075403177   -1.2622791490
 O    1.8807615647    0.6037788428   -1.5009705618
 C    1.5964173643   -1.7115017956   -0.8088843940
 C    1.9822071557   -1.4296090112    0.6383077349
 O    2.8256466441   -1.9616613733    1.3045345291
 C    1.0451858977   -0.2803808688    1.1275523903
 O    1.0837141025    0.2175797834    2.2187145808
 H    0.4216693312    2.1848329159   -0.2259108659
 H   -1.1622167042    1.6383708363   -0.8042708390
 H   -0.8346161779    1.7353018911    0.9396460204
 H   -0.7432897343   -0.6387788648    0.0753171373
 H    0.2656975776   -0.5529553043   -2.1392441353
 H    2.4560410454    0.3162353325   -2.2170470063
 H    0.8888377632   -2.5516993335   -0.8254064179
 H    2.4584890210   -1.9948458839   -1.4183111656