17

 C    0.0670938122   -1.1862209215   -0.0504097031
 C   -0.0113475370    0.0155248576   -0.0048263732
 C   -0.0431531953    1.4292715992    0.0502565211
 C   -1.1382704150    2.2067431862    0.0319430357
 C   -0.8099497106    3.6728665876    0.0809744273
 C    0.7029790107    3.6813949556    0.3283252860
 C    1.5377452964    4.8803002310    0.2267742046
 O    1.1542309574    4.3621457675    1.5040865289
 C    1.2284446857    2.2596017153    0.1153509298
 H    0.1193523341   -2.2459415708   -0.0893897658
 H   -2.1522145923    1.8303007463   -0.0268931292
 H   -1.0772891416    4.1757661472   -0.8590580134
 H   -1.3286549921    4.2082084896    0.8847310028
 H    2.5952225186    4.7853553646   -0.0195606615
 H    1.0859495294    5.8336744628   -0.0472544091
 H    1.8861077967    1.9651051691    0.9392858168
 H    1.8060907926    2.1630015727   -0.8124420175