21

 C   -0.0775336060    1.5441334446   -0.1733746248
 N    0.1043050533    0.1309543235    0.1008646409
 C    0.5692315551   -0.2169067064    1.4302251841
 C    0.1088917365   -0.7465857300   -0.9627590651
 O    0.0821396460   -0.3826527596   -2.1296720676
 N    0.1508415718   -2.0969121726   -0.6263013906
 C   -0.7596969357   -2.7890429002    0.3215072529
 C   -0.8049990870   -3.9962061491   -0.6480880328
 C   -0.0631408239   -3.1083359699   -1.6809161246
 H    0.8650397848    2.0990560747   -0.0641126201
 H   -0.4306346584    1.6560696095   -1.1970906892
 H   -0.8090467395    1.9753545529    0.5208357691
 H   -0.2481431998   -0.2783378383    2.1620159830
 H    1.0956856942   -1.1710420019    1.4061422282
 H    1.2741498724    0.5465602172    1.7822525162
 H   -0.3334615740   -2.9755221252    1.3118027353
 H   -1.7202425408   -2.2740399952    0.4450981667
 H   -0.2226968274   -4.8511757013   -0.3012523841
 H   -1.7991479443   -4.3364248122   -0.9386203365
 H   -0.6877078331   -2.7271956802   -2.4939557212
 H    0.8615420960   -3.5105330304   -2.1044146095