20

 C    0.1037190604    1.4409739896   -0.0374793915
 N   -0.0983170148    0.0009831682   -0.0737227625
 C    0.5650998710   -0.7222494629   -1.0569810275
 N    1.1636066787   -0.1247454980   -2.0819791774
 N    1.6177738478   -1.1618067362   -2.8364322136
 C    1.3327934434   -2.3796397180   -2.3105830373
 C    1.7631096596   -3.6496766445   -2.9691708709
 C    0.6385659258   -2.1434004620   -1.1377173640
 C    0.0657928803   -3.1247965836   -0.1649411635
 H    1.1568274713    1.7328526085    0.0909982300
 H   -0.2422951719    1.8774074829   -0.9776855575
 H   -0.4867459059    1.8607731195    0.7809632660
 H   -0.0409754452   -0.4364195207    0.8346361079
 H    2.1018720184   -0.9617390265   -3.6934569070
 H    2.8014820002   -3.9083587665   -2.7283080385
 H    1.1348690310   -4.4835643801   -2.6464062603
 H    1.6850023710   -3.5800176682   -4.0595394088
 H    0.6082642826   -3.1356085100    0.7906852201
 H   -0.9811985981   -2.8926436381    0.0650170257
 H    0.0972205244   -4.1455239136   -0.5574062392