17

 O   -0.3284107966    0.0153717676    0.2073940408
 C   -0.1605046404    1.1656405947   -0.0934629534
 C    1.1835694956    1.8820837705   -0.0042877976
 C    1.4224511935    2.8034233948   -1.2238327333
 C    1.5254808084    2.0701500429   -2.4837246968
 N    1.6043838442    1.4742564606   -3.4703659206
 C    1.2101835622    2.6979718671    1.2812971157
 C    1.5595117530    2.0495460565    2.5672975862
 N    2.4868845732    3.0103703698    1.9412431853
 H   -1.0082249313    1.8091300072   -0.4271824775
 H    1.9560195124    1.1077894960    0.0433393540
 H    0.6059070945    3.5312436553   -1.3070028964
 H    2.3399794043    3.3814308127   -1.0721832885
 H    0.5068046274    3.5295211077    1.2983606542
 H    1.0999029567    2.3909343186    3.4895870494
 H    1.8062004614    0.9915033143    2.5454663810
 H    3.2483537815    2.5070149638    1.4904140273