19

 C   -0.0213870465    1.4517685366   -0.3441762797
 C    0.0458179822   -0.0228765930   -0.0483132972
 O    1.3314179164   -0.6421344221   -0.1092566367
 C    0.6842669086   -0.6078711186    1.1516116252
 C    1.2498054951   -0.0215473810    2.4708473501
 C    0.8520148469    1.3790781462    2.9208632108
 C    0.5977095134   -1.2176174359    3.2437829694
 C    0.2214651514   -1.8538177680    1.8922825498
 O   -0.2248887976   -2.9097393986    1.5494806507
 H    0.8290285844    1.9803538406    0.0891534119
 H   -0.0081486154    1.6115176500   -1.4274585888
 H   -0.9474640550    1.8851481682    0.0470736213
 H   -0.7441758029   -0.6274449319   -0.4990210811
 H    2.3400341713   -0.1207683850    2.4633758325
 H   -0.2336447315    1.5184356662    2.8779923380
 H    1.1681287257    1.5481189108    3.9555248655
 H    1.3171423320    2.1541787804    2.3053784407
 H    1.2581602015   -1.8204845011    3.8712641858
 H   -0.2835510401   -0.9383023138    3.8312861816