18

 C    0.0520796505    1.4833421409    0.0944303942
 C    0.0212987484   -0.0028540009   -0.0583656450
 C    0.6938612170   -0.9279136101   -1.1067570044
 C    0.0953901658   -1.8002151476    0.0141851266
 O    0.6298249557   -0.8470658806    1.0032463105
 C   -1.2360981506   -0.9710318982   -0.0195662616
 C   -2.1041692502   -0.9614720753    1.2350963005
 C   -2.0462457369   -1.0486399422   -1.2299621605
 N   -2.7057167010   -1.1018980090   -2.1789244792
 H    1.0861067533    1.8362759677    0.1478762032
 H   -0.4347339937    1.9575839009   -0.7630527758
 H   -0.4682352569    1.7902619147    1.0063971835
 H    0.2639195656   -0.9861280923   -2.1075153318
 H    1.7827190589   -0.8843788726   -1.1043903806
 H    0.2122053837   -2.8636218291    0.2199137326
 H   -1.4638357248   -0.8988205408    2.1152513115
 H   -2.7906905359   -0.1097040314    1.2249727820
 H   -2.7075921188   -1.8720789938    1.2927212745