15

 O   -0.0366735742    0.0051033124   -0.2888983340
 C    0.0055923702    1.1643209956    0.0319878451
 C    1.2652728810    1.9977861553    0.0138652078
 N    2.4643171677    1.3074706884   -0.4569275263
 C    2.5913810661    2.0357000380   -1.6362175882
 O    3.3182120895    1.9410295927   -2.5815226787
 C    1.4166605627    2.9283473779   -1.2286314697
 C    0.3728958270    3.5565674687   -2.0738794871
 N    1.3525819939    4.3702919645   -1.3380972419
 H   -0.9030535737    1.7106038606    0.3723589966
 H    1.3843537961    2.5130707376    0.9769024665
 H    2.6731500068    0.3284981932   -0.3178172465
 H    0.4990388945    3.5545405077   -3.1522311577
 H   -0.6566631077    3.5217738366   -1.7263986721
 H    0.9402212803    4.7834227609   -0.5050544638