18

 C   -0.0888684452    1.5478372039    0.0871793115
 C    0.0079335795    0.0233106462   -0.0226669872
 C    0.7772620832   -0.4782947194   -1.2581203114
 C    2.2504789116   -0.0529100342   -1.2604083018
 C    0.6452192010   -2.0196229636   -1.3425021954
 C    1.2245847109   -2.5845254053   -2.5592386503
 N    1.6838120716   -3.0133483719   -3.5294316973
 H    0.8926293720    2.0122010470    0.2191704405
 H   -0.5452763608    1.9805416053   -0.8100133046
 H   -0.7053505099    1.8351222150    0.9442128905
 H    0.4824242810   -0.3815996486    0.8821772378
 H   -1.0066564131   -0.3952423573   -0.0470654698
 H    0.2947963466   -0.0619098107   -2.1525230922
 H    2.7753770550   -0.4556076734   -2.1314061655
 H    2.3505820638    1.0349282716   -1.2873961346
 H    2.7629936703   -0.4148349351   -0.3606544177
 H    1.1347881977   -2.4842524295   -0.4773075232
 H   -0.4106733852   -2.3102437100   -1.2998040593