23

 C   -0.0674835625    1.5308192310    0.0780244479
 C   -0.0315257335   -0.0075411138   -0.0551949430
 C   -1.4039820893   -0.5140720181   -0.1159054389
 C   -2.5528523444   -0.8680482023   -0.1531681424
 C    0.8283956292   -0.5022736807   -1.2571760045
 C    2.2514426098    0.0769549360   -1.2110109906
 C    0.8881748434   -2.0203806313   -1.3119574998
 C   -0.1488416849   -2.8302219162   -2.0432874660
 C    1.2473438739   -2.7189481320   -2.6017082648
 H    0.9237635209    1.9341411088    0.2968695808
 H   -0.4338133053    1.9893878267   -0.8461204663
 H   -0.7408479447    1.8243342835    0.8871322900
 H    0.4329726719   -0.4115200912    0.8569491967
 H   -3.5596154168   -1.2036096368   -0.1857344092
 H    0.3392949499   -0.1493557066   -2.1760480976
 H    2.2641153792    1.1644175055   -1.3188394723
 H    2.7472597893   -0.1732289857   -0.2649538489
 H    2.8540071536   -0.3457430724   -2.0199385555
 H    1.2917466423   -2.4729202185   -0.4076540685
 H   -0.4628586086   -3.7744382320   -1.6125077084
 H   -0.9420407274   -2.2892321927   -2.5459379031
 H    1.3896770320   -2.1041138984   -3.4852097141
 H    1.8970018520   -3.5862599026   -2.5588320414