16

 C   -0.1926422045    1.6381032311    0.3628206997
 N   -0.0423007500    0.1967217167    0.2668792274
 C   -1.0503125590   -0.5347391674    0.0694104881
 O   -2.3540811207   -0.1036724314   -0.0746351119
 C   -3.2096550581   -1.2295877148   -0.2829831901
 C   -2.3027429551   -2.4194282237   -0.2547859805
 C   -1.0468028647   -2.0038455511   -0.0488938080
 C    0.1712328319   -2.8370740279    0.0508338149
 O    0.1616705869   -4.0426173945   -0.0478967817
 H    0.4300542254    2.1131617690   -0.4039921421
 H   -1.2225551079    1.9936383751    0.2511366208
 H    0.1933535065    1.9728536607    1.3325449790
 H   -3.9720144834   -1.2595688652    0.5077372091
 H   -3.7319021259   -1.1179883106   -1.2432546684
 H   -2.6285672214   -3.4429227461   -0.3822212816
 H    1.1022090299   -2.2652600800    0.2247329153