16

 C    0.0428092764    1.3711913172    0.1486838935
 N    0.1016171644   -0.0756542988    0.0951282375
 C    0.5555766178   -0.6205456153   -0.9668657046
 N    1.0797900426    0.0260066958   -2.0815781059
 C    0.6287562015   -2.0822407061   -1.0571933749
 C    1.2917701941   -2.9484614288   -1.8735960243
 N    1.0033816630   -4.2514509061   -1.5003375967
 C    0.1986441686   -4.1104536554   -0.4957877483
 O   -0.0797292392   -2.8349620013   -0.1628955345
 H    1.0453601597    1.8246492077    0.1813040116
 H   -0.4904013866    1.8159180565   -0.7097050685
 H   -0.4861745431    1.6779641798    1.0541690248
 H    0.8917023458    1.0143499979   -2.1447377228
 H    0.9804843726   -0.4534865024   -2.9635274352
 H    1.9732319598   -2.7307054945   -2.6807307739
 H   -0.2716875373   -4.8786746362    0.0977315422