18

 C    0.0658674605    1.5387734976   -0.0554603238
 C    0.0455967426    0.0840106322    0.0003070595
 C    0.0281520613   -1.1204464697    0.0470329837
 C    0.0365455536   -2.5690420910    0.0783093813
 C   -0.0971474437   -3.3335844274    1.4451958115
 C   -1.5944861108   -2.9111640122    1.4709556979
 C   -1.3133563391   -3.3715830234    0.0114666765
 C   -0.5349718855   -4.5737312996    0.6162500795
 H    0.8484780204    1.9002117548   -0.7319521350
 H   -0.8897494452    1.9384623639   -0.4131986757
 H    0.2566202268    1.9740525357    0.9319999957
 H    0.8196244639   -2.9686532483   -0.5753726022
 H    0.6169118006   -3.3019744877    2.2691765689
 H   -2.2654636420   -3.5447540194    2.0569270078
 H   -1.8035456732   -1.8508374362    1.6201975620
 H   -2.0101153035   -3.3840519429   -0.8276969765
 H    0.2253113318   -5.0410091751   -0.0163013751
 H   -1.1332213586   -5.3205685414    1.1435288042