16

 C   -0.1266598209    1.5476479199    0.0149397167
 C   -0.0507254125    0.0595647823   -0.0676167613
 C    0.1271574334   -0.8155003632   -1.1254186127
 C    0.2383635489   -1.4104399385   -2.5370072779
 O    1.3395766464   -1.0876420138   -3.3303749601
 C    0.2315718505   -2.8244859481   -1.8013459400
 N    0.1170979487   -2.0330237344   -0.5578165162
 N   -0.0706535771   -2.0114153140    0.7611508229
 N   -0.1559449146   -0.7267635342    1.0526385789
 H    0.8113442909    2.0209357012   -0.2942908299
 H   -0.9205911889    1.9478478031   -0.6241595540
 H   -0.3332993132    1.8397981152    1.0464395459
 H   -0.6449234112   -1.2607048142   -3.1615879207
 H    2.1201026386   -1.0396261935   -2.7665773962
 H   -0.6268047078   -3.4718572030   -1.9910014860
 H    1.1657239490   -3.3838041346   -1.8846753995