15

 C    0.0503596777    1.3717256286   -0.0228548167
 N   -0.0272215911   -0.0771260192   -0.0689528310
 C   -1.1646439367   -0.6593871613    0.0211869615
 N   -2.3990337863   -0.0179409011    0.1662001613
 N   -3.4719364446   -0.7178157723    0.2454710549
 N   -3.3916456011   -2.0288697850    0.1887929776
 N   -2.2922360808   -2.8165716643    0.0516634109
 C   -1.1811100364   -2.1336696874   -0.0318894595
 N    0.0043950542   -2.7426084732   -0.1705658219
 H    0.7046076052    1.6656709920    0.8070243316
 H    0.5317960080    1.7305781281   -0.9407841628
 H   -0.9175434232    1.8680531012    0.0912596718
 H   -4.2716408978   -2.5145598961    0.2571123343
 H    0.0757474830   -3.7436515780   -0.2154362537
 H    0.8081579799   -2.1355343120   -0.2274202784