18

 O   -0.0431150893    1.3970709500   -0.2549280045
 C    0.0407451474   -0.0152171557   -0.1190945673
 C   -1.3747403443   -0.5364092459    0.0323811591
 C   -2.3064492318   -0.5170050865   -1.2231720365
 C   -2.5608278370   -2.0301402377   -1.0424379531
 O   -1.6562020019   -2.8475965839   -1.8164351116
 C   -0.7634855468   -3.0060949473   -0.6901955408
 C   -1.6103065762   -2.0688542547    0.1899066973
 H    0.8346224008    1.7331304755   -0.4579198145
 H    0.5210466051   -0.4648721937   -1.0017196593
 H    0.6400038426   -0.2985919730    0.7630186827
 H   -1.8368405211    0.0015028576    0.8654066143
 H   -3.1905560237    0.1153204629   -1.1129707541
 H   -1.8153713386   -0.2785404075   -2.1696071145
 H   -3.5869565271   -2.4065049537   -1.0681642762
 H   -0.7490485737   -4.0464810339   -0.3393882216
 H    0.2643003179   -2.7035206154   -0.9241315829
 H   -1.8866255021   -2.4332360170    1.1787453038