12

 O    0.0777080219    1.2312413428   -0.1389914546
 C    0.0648631785   -0.1021346909   -0.0547064095
 N    0.0056057607   -0.8447564744   -1.1599988027
 N    0.0158202129   -2.0827932549   -0.5931603003
 N   -0.0215001968   -3.3542562587   -1.0666727763
 C    0.0192122154   -4.0681026008    0.0304600299
 N    0.0807773512   -3.2949453348    1.1781550784
 C    0.0775790632   -1.9970421700    0.7487713474
 N    0.1119067110   -0.7397979796    1.1608912038
 H    0.1227815370    1.5634228990    0.7658545971
 H    0.0067761314   -5.1447084472    0.0526774782
 H    0.1197224437   -3.6201320806    2.1279418787