16

 O   -0.1226726596    1.4661706733   -0.1442441953
 C    0.0782871536    0.0785872583   -0.0467027723
 C   -1.2100360624   -0.7517969769    0.0648559082
 N   -2.0453815513   -0.2686003061   -1.0268356367
 C   -1.0234389261   -1.2920301989   -1.3454819638
 C   -1.4643841059   -2.6281844661   -1.7769405435
 O   -2.6131611803   -3.0041281944   -1.6946256958
 C    0.3514475062   -0.6117560150   -1.4431293342
 O    0.6201800632    0.2428827260   -2.5060279619
 H   -1.0115795657    1.5672117167   -0.5211872751
 H    0.8380004829   -0.1100269213    0.7118207263
 H   -1.6252925841   -1.2705185944    0.9200474279
 H   -2.9386214021   -0.7633827161   -1.0035627190
 H   -0.6623769083   -3.2868024318   -2.1701150616
 H    1.1393125040   -1.3711619899   -1.3609865085
 H    0.4752733660    1.1380545467   -2.1652426049