19

 C    0.0642751757    1.5124556068    0.0574359588
 C   -0.0132660478    0.0149875032   -0.0896664856
 C    0.7940850096   -0.6527514088   -1.2032990461
 C    0.3583508389   -2.1434384123   -1.1281395015
 C   -0.9425791363   -2.1033641622   -0.3250108431
 C   -0.8609098199   -1.4592763744    1.0663206956
 O    0.3291247546   -0.6805042430    1.1704686997
 C   -1.4041918754   -0.6936452642   -0.0977446533
 O   -2.6266652701   -0.1859033377   -0.4749468821
 H    1.0929155012    1.8228859250    0.2657251237
 H   -0.2649458577    2.0064056827   -0.8622981879
 H   -0.5636358697    1.8574048819    0.8848285293
 H    0.5216450777   -0.2081536800   -2.1680856584
 H    1.8698722501   -0.5164197655   -1.0587681372
 H    0.1989535197   -2.5722608454   -2.1212952546
 H    1.1156121116   -2.7517189350   -0.6253175629
 H   -1.6981482240   -2.8737398219   -0.4361323633
 H   -1.2843037661   -1.8818825858    1.9700361134
 H   -2.8824108222    0.4946286366    0.1581460854