14

 N   -0.0981582441   -1.1544370856    0.0465978584
 C   -0.0620384357    0.0009419171    0.0616884289
 C    0.0010039132    1.4419034726    0.0336553837
 N    0.6117665765    2.1027904398    1.2142069891
 C    1.3082979163    2.1513987400   -0.0486656711
 C    2.7081304936    1.6163501059   -0.3194779574
 O    2.9730292028    2.7431051417   -1.1906969063
 C    1.6920905943    3.3438565809   -0.9214260015
 H   -0.8523198008    1.9164272801   -0.4444134949
 H    0.1245947915    2.9751348745    1.4099032371
 H    3.3649852006    1.6017704514    0.5577992368
 H    2.7694835502    0.6582890433   -0.8470628881
 H    1.1007100664    3.4981413865   -1.8322232013
 H    1.7838299454    4.2968117718   -0.3815678333