27

 C   -0.0326014734    1.5705173880    0.0109195738
 C    0.0159621159    0.0393956758    0.0019570931
 C    0.6931948816   -0.4993288881   -1.2682736834
 C    0.7714345131   -2.0343470828   -1.2967178759
 C    1.4636642782   -2.5425252870   -2.5652369730
 C    1.4615327504   -2.5549451043   -0.0256472665
 C    0.7954949179   -2.0482804411    1.2635626113
 C    1.5128919797   -2.5691618381    2.5129517037
 C    0.7161021864   -0.5132850655    1.2539027275
 H    0.9785762067    1.9949623287    0.0043811749
 H   -0.5598909803    1.9578906022   -0.8676448802
 H   -0.5443714551    1.9484211657    0.9026789328
 H   -1.0203218054   -0.3324249472    0.0092523409
 H    0.1607813287   -0.1367664868   -2.1570535147
 H    1.7125249349   -0.0878472126   -1.3320566877
 H   -0.2598692160   -2.4198610890   -1.2966113202
 H    2.4992301039   -2.1853535019   -2.6169303908
 H    1.4889301731   -3.6372724830   -2.5940500023
 H    0.9481206284   -2.1952380582   -3.4671962532
 H    1.4754837705   -3.6524836263   -0.0314204971
 H    2.5149093930   -2.2343995233   -0.0335614693
 H   -0.2353750219   -2.4345453492    1.2793346884
 H    2.5488247500   -2.2108852001    2.5482994032
 H    1.0148714616   -2.2323984733    3.4286560474
 H    1.5405754344   -3.6640924699    2.5296423346
 H    1.7363149942   -0.1020204096    1.3040069341
 H    0.1997087894   -0.1607271730    2.1560691187