18

 C    0.0017441217    1.5120147440   -0.0032977042
 C   -0.2064089663   -0.0048388079    0.1641983821
 O    0.1381075835   -0.4128974882    1.4609122652
 C   -1.6571992996   -0.3935417706   -0.1260122389
 O   -2.3750380747   -0.7667614547    0.7740408443
 C   -2.1478367039   -0.3379231809   -1.5699748837
 O   -3.5489019027   -0.3520344864   -1.6865179743
 C   -4.1746424778   -1.5306342663   -1.4420695768
 N   -5.4314888944   -1.5807445790   -1.4832638811
 H    1.0221318132    1.7552159051    0.3014462120
 H   -0.1352904449    1.8383678939   -1.0388019234
 H   -0.6892884385    2.0659890702    0.6388985269
 H    0.4365575927   -0.5280081883   -0.5626313377
 H   -0.6963930660   -0.6625665452    1.8881196516
 H   -1.8034034528    0.5781504140   -2.0561524882
 H   -1.6806375286   -1.1795116105   -2.1075221404
 H   -3.4855693448   -2.3611573115   -1.2451686083
 H   -5.7495233461   -2.5299146277   -1.3004388550