24

 C   -1.6458116999   -0.9507518076   -0.5957614371
 C   -0.2616602212   -0.4385858116   -0.1799422027
 C    0.8226995724   -0.6504235475   -1.2285822150
 C    0.6270929942    0.0813000030   -2.5458325973
 N    0.4705347433    1.5197667441   -2.3477701428
 C    1.6793938158    2.3317422833   -2.4071762442
 C    0.6829832484    2.3658915415   -3.5138227335
 C    2.2408790127   -0.8389628407   -0.7415924801
 C    1.4728255805   -2.0118034743   -1.3025016670
 H   -2.0374824643   -0.3978387408   -1.4550085313
 H   -1.6135811091   -2.0123456662   -0.8644902721
 H   -2.3642722127   -0.8337073800    0.2216537405
 H   -0.3246677261    0.6305444621    0.0503688660
 H    0.0465026320   -0.9437534270    0.7437786125
 H    1.4709084378   -0.1523631419   -3.2215241271
 H   -0.2827712503   -0.2774630506   -3.0427406917
 H    1.7430165468    3.1468393769   -1.6919022631
 H    2.6240379265    1.8290782512   -2.6086036052
 H    0.9664963982    1.8856540755   -4.4498219025
 H    0.0021513066    3.2055913857   -3.6229835435
 H    3.0514596748   -0.4333865959   -1.3378921359
 H    2.4215914734   -0.8086162421    0.3277842717
 H    1.1283549452   -2.7748513133   -0.6121190013
 H    1.7660309549   -2.3964340940   -2.2742819473