20

 C    0.0268324290    1.5376709214   -0.1936284167
 C   -0.0243724136    0.0384256943    0.0225014194
 C   -1.2117061077   -0.6423778568   -0.6318000387
 N    1.2811491446   -0.6541529616   -0.0180267086
 C    0.5330875853   -0.5988815219    1.2479186535
 C    1.1702143117    0.1793291725    2.3913065842
 O    0.1825342922    0.8024441371    3.2118054275
 C    2.0555789750   -0.6858619374    3.1769109083
 C    2.7296500963   -1.4285155104    3.8401238859
 H    0.9563331436    1.9674713056    0.1823180295
 H   -0.0333958661    1.7664534047   -1.2635645818
 H   -0.8121620569    2.0306973134    0.3078638772
 H   -1.1820667730   -0.5104426815   -1.7198798826
 H   -1.2252353378   -1.7166246602   -0.4198423796
 H   -2.1559218647   -0.2170807051   -0.2742502401
 H    1.1928749929   -1.5744034614   -0.4419709521
 H    0.0374884685   -1.5114610935    1.5802311170
 H    1.7586748178    0.9983414004    1.9683414138
 H   -0.2040243414    0.1191510803    3.7702713287
 H    3.3475766240   -2.0667589699    4.4222381152