16

 N    0.0392662793   -1.1452973973    0.1256276571
 C    0.0467750924    0.0094901735    0.0625822400
 C    0.0335537623    1.4340461152   -0.0681142312
 C   -0.6919319350    2.2165617736   -1.1861143402
 C    0.4843165022    3.2191040516   -1.1584797194
 C    1.0791755707    3.9292774316   -2.3058022985
 N    0.4481848531    4.6767959040   -1.1937071470
 C    1.1774537068    2.4317005662   -0.0626927815
 N    0.3139415063    2.2719435761    1.0945256614
 H   -0.7588077460    1.6635352177   -2.1254275769
 H   -1.6845068318    2.5902364252   -0.9131126605
 H    2.1570124822    4.0477126923   -2.3764769350
 H    0.5645396972    3.8741740019   -3.2617062385
 H   -0.4753051018    5.0004805295   -1.4725730003
 H    2.2397896213    2.2566123227    0.0563476496
 H   -0.3589597693    3.0304782461    1.1961621411