16

 O   -0.1142766093    1.4019243413   -0.0366661042
 C    0.0227441838    0.0324074640   -0.0232818892
 C   -1.0374631652   -1.0369299594    0.0789949629
 C   -0.4579147287   -1.7887428357   -1.1212105166
 C    0.8185716362   -0.8893692335   -0.9940411501
 O    1.8416927145   -1.5104811801   -0.2296746232
 C    1.2838217249   -1.7733044146    1.0680979979
 C    0.0493131226   -0.8854991326    1.1601975188
 H    0.6646562320    1.7908571281    0.3773685712
 H   -2.0834434341   -0.9319523365    0.3409813666
 H   -0.2893304002   -2.8667653192   -1.0364324569
 H   -1.0161430393   -1.5779908449   -2.0374821132
 H    1.2534426307   -0.4780611726   -1.9037913725
 H    1.0499104415   -2.8423555455    1.1684047614
 H    2.0329952682   -1.5192209991    1.8272503865
 H   -0.2872173775   -0.5097259399    2.1191167908