14

 N   -0.0331250580    0.7983729681    1.3591446996
 C   -0.0030638466    0.0941327061    0.2918564637
 N    1.2181130924   -0.2507051682   -0.3306116648
 N    1.6438138169   -1.0230053992   -1.3673987439
 N    0.9344414242   -1.6067517747   -2.2104446268
 C   -0.4934669997   -1.6210355491   -2.3308370293
 N   -0.9668088557   -2.1984494906   -3.3704182130
 C   -1.4681917171   -1.0703394621   -1.3844501333
 C   -1.2683974144   -0.3504993854   -0.2779564443
 H    0.9000286612    1.0645697234    1.6805143261
 H    2.0349026194    0.0868051286    0.1595113233
 H   -0.1827951391   -2.5429328335   -3.9327241208
 H   -2.4868343520   -1.3030862327   -1.6770598242
 H   -2.1180363515   -0.0167932406    0.3058727577