19

 O   -0.0128571318    1.4012007150   -0.0499018379
 C    0.0320103138   -0.0148416495    0.0574803910
 C    0.6749994017   -0.4892129564    1.3675796677
 O    0.7736559361   -1.9005596145    1.3560527282
 C   -0.4705107672   -2.5886181136    1.3528298244
 C   -1.6579175891   -1.8054283720    0.8030773045
 O   -2.3257034823   -1.0244857530    1.8239225876
 C   -2.3746003292    0.1323361963    0.9582664211
 C   -1.4050391069   -0.5256961265   -0.0426762333
 H    0.8916375581    1.7303090081   -0.0642070638
 H    0.6223139410   -0.4514268626   -0.7627791610
 H    1.7020346304   -0.1146451863    1.4442310164
 H    0.1091947615   -0.1205915848    2.2352490497
 H   -0.3120061641   -3.4955656694    0.7585108591
 H   -0.7396260145   -2.8964023116    2.3755721906
 H   -2.3665720026   -2.5039417498    0.3365559961
 H   -3.3837167267    0.2983617382    0.5603043488
 H   -2.0250344239    1.0414460227    1.4543673774
 H   -1.7407121742   -0.5535374603   -1.0801393068