9

 N   -0.0774345284    1.1938116056   -0.2524265251
 C   -0.0194261143   -0.0059084911    0.1386048894
 N    1.1842596639   -0.6934661344    0.4576122418
 N    1.2175848487   -1.9178004147    0.1814075006
 N    0.0616063410   -2.4548078324   -0.3211993120
 N   -1.1613340406   -1.9699082718    0.0933678798
 N   -1.2124867100   -0.7462658445    0.3538142272
 H    0.8699763674    1.5742653062   -0.3232272072
 H    0.0849840223   -3.4664938030   -0.3535307846