13

 N   -0.0719297971    1.2571504331   -0.4089676473
 C   -0.0095984696    0.0435397368   -0.0377205274
 N    1.1613403205   -0.6842602726    0.1770319693
 C    1.2738912874   -2.0066831304    0.5815517059
 O    2.3577290800   -2.5301562990    0.7348547467
 C   -0.0066273858   -2.7160003777    0.8070140473
 C   -1.1941487690   -2.1256357306    0.6340010629
 C   -1.3140202744   -0.7163809752    0.2036281068
 O   -2.3872491540   -0.1840753326    0.0481965913
 H    0.8564910248    1.6659028605   -0.5404572417
 H    2.0483411105   -0.2186293193    0.0289021716
 H    0.0994051963   -3.7477707633    1.1221931967
 H   -2.1328614195   -2.6440634997    0.7987822278