19

 C   -0.0826663324    1.6280516790   -0.0307940712
 C    0.1427574967    0.1199802722    0.0579054236
 C    1.3919440923   -0.7028118234   -0.1981276219
 C    2.6835152617   -0.1748911049    0.4773345201
 N    2.4004403843    1.1208561036    1.1470643727
 C    2.0256746472   -0.1641556244    1.7955614791
 C    0.7059657930   -0.7250852572    1.1758495273
 C   -0.0372940000   -1.8377588854    1.8578678972
 H    0.6136456586    2.1000463243   -0.7271405658
 H   -1.1011303570    1.8242317659   -0.3850855628
 H    0.0466595226    2.1201625267    0.9326615549
 H   -0.6934370609   -0.4301396500   -0.3763448363
 H    1.4142300657   -1.4899470782   -0.9430684676
 H    3.6919141987   -0.4545318430    0.2015134985
 H    3.2727042270    1.4209053190    1.5840913134
 H    2.4064542428   -0.4321872944    2.7732473655
 H   -0.5919249965   -1.4725629193    2.7318794224
 H   -0.7589760060   -2.3026071117    1.1784687274
 H    0.6451154023   -2.6230052987    2.2064656436