17

 O   -0.7912598772    0.7739357843    0.4399381814
 C    0.2259465597    0.8430805268   -0.2008960369
 C    1.3434530929    1.8341266269    0.0706956434
 C    1.2512766687    2.5321142105    1.4762317521
 C    2.7405112014    2.7737058415    1.7681479146
 C    3.6561521764    2.1412522695    2.8777258280
 N    4.4004053589    1.4299022501    1.7752000870
 C    3.3296481049    1.6838940531    0.9277478426
 N    2.6441901311    1.1004558183    0.0311300732
 H    0.4254096807    0.1688399853   -1.0611484053
 H    1.2957112003    2.5727046997   -0.7486711831
 H    0.6441525688    3.4390672198    1.4637859261
 H    0.7921604223    1.8323964541    2.1809048693
 H    3.0723576876    3.7816884451    1.5094929964
 H    4.2811409993    2.8233813844    3.4569397968
 H    3.1195483049    1.4540608664    3.5398917431
 H    4.7534526593    0.4866130341    1.8883642013