18

 C   -0.2260155765    1.5470893442   -0.0307823623
 C    0.0577572577    0.0582930759   -0.0271287888
 N    0.9990854267   -0.4746406159   -1.0771462386
 C    2.3498066414    0.0300163076   -0.7691215944
 C    1.8305873738   -1.0960491143    0.0265141939
 C    0.9091649836   -0.5797451143    1.1430377778
 N    1.5351556661    0.3557251723    2.0726124612
 C    0.1875079410   -1.6607016799    1.8280461143
 N   -0.3769476823   -2.4849847612    2.4115208540
 H    0.6594212053    2.1437344714    0.1950189228
 H   -0.6059324514    1.8383118019   -1.0152401175
 H   -0.9938853916    1.7904899502    0.7111302584
 H   -0.8749258732   -0.4984602866   -0.1401291539
 H    3.0634803820   -0.2116589605   -1.5503649598
 H    2.4851329728    0.9986810697   -0.3013574776
 H    2.2011044530   -2.1131316364   -0.0347084699
 H    0.8530919156    0.6784084204    2.7542417812
 H    2.2665932959   -0.1178989544    2.5972274293