21

 C    0.0041311559    1.3649383827   -0.0695815539
 O   -0.0778475429   -0.0335698846    0.0662888177
 C    0.6630407925   -0.5645328297    1.1624013898
 C    0.0290129374   -1.9076559450    1.5255703988
 C    0.9223302296   -2.6945896294    2.4782781879
 O    0.2143434389   -3.8681698591    2.8539264980
 C    2.2643742900   -3.0156688946    1.8066605098
 C    2.8366354781   -1.8131680340    1.1016401496
 C    2.1276027172   -0.7206898353    0.8214799678
 H    1.0233050873    1.7144592954   -0.2936872116
 H   -0.6453267331    1.6459716478   -0.9026261054
 H   -0.3413888647    1.8825784503    0.8396549344
 H    0.5642376622    0.1299831745    2.0165206294
 H   -0.9555744851   -1.7538142027    1.9751811202
 H   -0.1152692867   -2.4832477818    0.6043486740
 H    1.1201084160   -2.0721118446    3.3682148397
 H    0.7739964151   -4.3746705873    3.4514553587
 H    2.9812570309   -3.3952705830    2.5482869086
 H    2.1058703755   -3.8354589206    1.0912305226
 H    3.8847895938   -1.8629477078    0.8155665838
 H    2.6005730520    0.1163602187    0.3147486199