21

 C   -0.0600725513    1.6554472835   -0.0460743581
 C    0.0290474687    0.1407996710   -0.0035486554
 C    0.7351108878   -0.6882677582   -1.1094681044
 C    1.8929598634   -0.0127435570   -1.8657890844
 C    3.2425417055   -0.0370778829   -1.1110240469
 C    3.2384921465    0.4098532652    0.3343566563
 C    2.2921977346    0.1475004186    1.2384305471
 C    1.0289917668   -0.6061241629    0.9319251166
 O    1.2300771782   -1.6078082981   -0.1013595916
 H    0.9242029102    2.1244727327   -0.1177593419
 H   -0.6594287895    1.9849155882   -0.9023024132
 H   -0.5453319085    2.0391598556    0.8582948288
 H   -0.9668970143   -0.2849921561    0.1531902924
 H    0.0648762858   -1.1979789121   -1.8101648516
 H    2.0413219232   -0.5180736607   -2.8268180839
 H    1.6111936201    1.0192844939   -2.1063483531
 H    3.6329089352   -1.0614508103   -1.1464701650
 H    3.9571639558    0.5761042509   -1.6711433747
 H    4.1190026856    0.9604720096    0.6589383406
 H    2.4064702642    0.5136242692    2.2561242725
 H    0.6053675520   -1.0516129302    1.8384286601