17

 C    0.0454683787    1.3425483367    0.1663730563
 O   -0.0394082575   -0.0189649924   -0.2128784540
 C   -1.3058547652   -0.5509864269   -0.1321251903
 C   -2.3959148511   -0.1402447419   -1.1165708128
 C   -3.4367876551   -0.9109845159   -0.7937132578
 C   -2.9420874619   -1.7483496527    0.3687832149
 C   -1.4350383284   -2.0948037922    0.1024666794
 O   -1.1068985728   -1.9673840548    1.5252905542
 C   -2.0173299874   -0.8513435853    1.2582841465
 H    1.0834977074    1.6484569969    0.0223658534
 H   -0.6039136322    1.9812776174   -0.4491510923
 H   -0.2260595342    1.4829795782    1.2217272729
 H   -2.2944069482    0.5953139523   -1.9021716750
 H   -4.4175817973   -0.9620406366   -1.2455396513
 H   -3.5674969630   -2.4918321948    0.8564789274
 H   -0.9900256257   -2.9193874160   -0.4592176235
 H   -2.2777426062   -0.1893566920    2.0878559320