20

 C   -1.2011729092    0.8968110667    0.1181654066
 C   -0.2795485705   -0.3047820244    0.0004697367
 C    0.9590859185   -0.2320673821   -0.9579098858
 O    1.4611487823    1.0536863544   -1.1945668596
 C    1.7567520984   -1.0599634864    0.0923171922
 C    0.6934672775   -0.7024269751    1.1765314939
 C    1.1122736947    0.4744838058    2.0342875043
 N    0.7913826652    0.3952076813    3.3510623970
 O    1.6929309465    1.4567686534    1.5820247290
 H   -0.6390388680    1.8123340709    0.3140207025
 H   -1.7552425684    1.0416652892   -0.8149539793
 H   -1.9319918432    0.7601748050    0.9233890545
 H   -0.8605047111   -1.2001456246   -0.2472902657
 H    0.8202969823   -0.6961867166   -1.9383609935
 H    1.6898962947    1.4306845659   -0.3258701629
 H    1.7603150588   -2.1312337338   -0.1232216772
 H    2.7778562926   -0.7207706077    0.2769767128
 H    0.3476920454   -1.5302432658    1.8017684947
 H    0.3250126675   -0.4021800127    3.7443762246
 H    1.0332683560    1.1665488867    3.9520930552