15

 C   -0.0837554050    1.6183794563   -0.0267240152
 C    0.0684451416    0.1028430716   -0.0444058981
 C    0.7173540661   -0.6237783035   -1.2406321918
 C    2.1564197029   -0.2686600540   -1.3529403446
 C    1.7519228440   -1.3104535705   -0.3133403005
 C    1.1274231284   -0.6052243965    0.8539460315
 O    1.2672222051   -0.6709236094    2.0426313463
 H    0.8401112863    2.1263147855   -0.3185031610
 H   -0.8757183174    1.9445435033   -0.7087715117
 H   -0.3453350801    1.9563801843    0.9807629985
 H   -0.8910618066   -0.3695557596    0.2036406223
 H    0.1706113559   -1.0974526266   -2.0454946880
 H    2.6917613521   -0.6852640803   -2.1999671569
 H    2.5232969394    0.7035102261   -1.0381109294
 H    2.1638258676   -2.3115963869   -0.3305399814