16

 C   -0.1091829190    1.5573807505    0.2937212286
 N    0.0151373544    0.1158751433    0.1240585731
 C    1.3015271567   -0.4085880545   -0.3161416880
 C    0.8093895328   -0.6707376168    1.0667970124
 C    1.5113743074   -0.0702016510    2.2749090887
 C    0.5647000658    0.1235051730    3.4430533528
 O    0.4637184273    1.1359227286    4.0856240537
 H    0.8211840665    2.0689764203    0.5845553258
 H   -0.4436558378    1.9882357130   -0.6550568059
 H   -0.8689398784    1.7724966725    1.0513274414
 H    1.2735160301   -1.1845822455   -1.0770161162
 H    2.1296639332    0.2936958924   -0.4147104501
 H    0.3678440439   -1.6466041789    1.2707857593
 H    2.2858575776   -0.7804247066    2.6014029968
 H    2.0045631514    0.8795778265    2.0594254586
 H   -0.0571698320   -0.7717456368    3.6809317791