19

 C    0.2375084123    1.4467226512    0.2547287602
 C   -0.0305105784   -0.0575906565    0.1034545855
 O    0.5526809845   -0.6818381481    1.2354095893
 C   -1.5530516630   -0.2573356575    0.1604232646
 O   -2.2838341694   -0.3054190061   -0.7939596833
 C    0.5108233923   -0.5800804666   -1.2253528996
 C    1.9530739495   -1.0230491930   -1.3426931360
 C    0.8333747946   -2.0297025043   -1.4299118325
 O    0.5901074063   -2.9087887252   -0.3520710165
 H    1.3172616300    1.6179214179    0.2675216305
 H   -0.2079939018    2.0092734339   -0.5698334674
 H   -0.1779958595    1.8114134358    1.1989066596
 H    0.5298339543   -1.6363772005    1.0649445337
 H   -1.9307684550   -0.3422591984    1.2053835088
 H    0.0613605141   -0.0870818291   -2.0802167672
 H    2.5170708936   -0.7833943135   -2.2372924202
 H    2.5207514008   -1.0177082492   -0.4180288500
 H    0.6023815297   -2.4641115724   -2.4002471599
 H    1.2985753151   -3.5612155285   -0.3294752595