21

 C    0.1619083302    1.6732918587    0.1298921510
 C    0.0311992293    0.1448617172    0.1102960866
 C   -1.4085723201   -0.4325199264    0.0541125168
 C   -1.4107743974   -1.9844412178    0.0100992925
 C   -2.5833582244   -2.4403180361    0.9141770540
 C   -2.8793405281   -1.2138419866    1.7415434940
 C   -2.2456305846   -0.1320932158    1.2909936452
 C   -2.1544799132    0.1551723590   -1.1459085038
 O   -2.4732290799   -0.4545890947   -2.1353147592
 H    1.2124008321    1.9577142629    0.2432217546
 H   -0.2002655044    2.1336567330   -0.7942694823
 H   -0.3886489103    2.1202933952    0.9639930740
 H    0.5900008720   -0.2544946214   -0.7454873714
 H    0.5046006983   -0.2680172766    1.0090750598
 H   -1.5017487135   -2.3426208314   -1.0164325210
 H   -0.4641362885   -2.3535327833    0.4157202282
 H   -3.4658409722   -2.7312226231    0.3287075050
 H   -2.3237426387   -3.3098091746    1.5283545804
 H   -3.5533946527   -1.2272396109    2.5916586025
 H   -2.3354427587    0.8650232904    1.7073365737
 H   -2.4199173451    1.2309986822   -1.0398747006