17

 O   -0.0215558550    1.3331767132    0.0293027548
 C    0.0486029462   -0.0663376927   -0.0159465190
 C    1.1332657977   -0.6634571891   -0.8337609578
 C    1.0356513920   -1.8769082751   -1.3777789377
 C   -0.1736931844   -2.7588350488   -1.1821586591
 C   -1.0798339342   -2.2168382156   -0.0866778579
 O   -0.3554910800   -2.1589550334    1.1895805915
 C   -0.5300769135   -0.7529962867    1.2294514056
 C   -1.3198628174   -0.6983844325   -0.0464516258
 H    0.6999661607    1.6486635731    0.5848393575
 H    2.0187698615   -0.0516490208   -0.9849552686
 H    1.8456692502   -2.2694223397   -1.9859102553
 H   -0.7367540532   -2.8728546283   -2.1209147672
 H    0.1417206533   -3.7703904572   -0.8957942911
 H   -1.9930175254   -2.8085482052    0.0308398398
 H   -0.6407338892   -0.2563375159    2.1872518543
 H   -2.2150924793   -0.1605298551   -0.3253905640