19

 O    0.0439457680    0.0019630355   -0.3582863278
 C   -0.0037160590    1.1541866480   -0.0395776279
 C   -1.1439301591    2.1135516109    0.3322824456
 C   -0.0653729896    3.1387304122    0.8021015141
 C   -0.0921494482    4.6553916217    0.4315160115
 C    0.0304794794    5.0068717088    1.9190103144
 C   -1.1097321972    4.3996578155    2.6848786583
 C    0.0429954885    3.5210958435    2.2826265661
 C    1.0614311289    2.2318242564    0.2204091099
 H   -1.7117287974    2.4345409267   -0.5485507445
 H   -1.8493790399    1.7475378049    1.0841581497
 H    0.7831502164    4.9435221748   -0.1565085463
 H   -0.9917104766    5.0229139311   -0.0753975131
 H    0.6306686629    5.8108173543    2.3262430142
 H   -1.1521299971    4.6511008237    3.7398406118
 H   -2.0852516301    4.2793372003    2.2175383759
 H    0.6481830447    2.9971550312    3.0142156999
 H    1.8751192919    1.9457604195    0.8937448288
 H    1.5002854335    2.6073544108   -0.7111001506