19

 C   -0.1874607300    1.4491480427    0.2350562326
 C   -0.0242706184   -0.0307238309    0.0837285288
 C    0.0484675817   -0.7218253420   -1.0582813188
 C    0.1205653534   -2.2121957912   -0.8408647752
 C    0.4933846723   -2.3284782250    0.6540711648
 O    1.8932381147   -2.4854794287    0.8431080636
 C   -0.0091792705   -0.9794941647    1.2720333509
 C    0.8568992662   -0.6061702888    2.4588798090
 O    1.6148584926    0.3299758928    2.5030850669
 H    0.6356866250    1.8732303404    0.8165336840
 H   -0.2316833201    1.9435456813   -0.7391960723
 H   -1.1122720603    1.6872414598    0.7770863065
 H    0.0083136944   -0.2739293687   -2.0457890713
 H   -0.8456609667   -2.6911315741   -1.0531790925
 H    0.8694336693   -2.7252947527   -1.4543097925
 H    0.0453427253   -3.1983514549    1.1388187985
 H    2.3324521298   -1.7360492646    0.4220975188
 H   -1.0304360498   -1.1193596504    1.6644603530
 H    0.7482748010   -1.2928383302    3.3278813054