16

 C   -0.0901766096    1.4989779218    0.0626347472
 C   -0.0249159111   -0.0104365867   -0.0892285203
 C    0.9113269644   -0.4735711034   -1.1952143093
 N    0.9641741325   -1.9238821126   -1.1766913008
 C    0.9253115753   -2.6619633961   -0.0310515213
 O    1.0064458828   -3.8672725418    0.0048444690
 C    0.7973609842   -1.8371455603    1.2779228683
 O    1.0504353020   -2.3164883392    2.3414301454
 O    0.4255765917   -0.5362220271    1.1783787198
 H    0.9042513895    1.9123883507    0.2537500003
 H   -0.4941828641    1.9558581124   -0.8455027016
 H   -0.7378981657    1.7622332793    0.9016884452
 H   -1.0264072629   -0.4160771552   -0.2853526526
 H    0.5261749151   -0.1414992389   -2.1636870612
 H    1.9048497590   -0.0228644843   -1.0557751322
 H    1.1596619668   -2.4401407287   -2.0223235359