17

 C    0.1225131144    1.7006647436   -0.1396145892
 C    0.0240523903    0.1805667759    0.0450995204
 C    0.6059753520   -0.5766915356   -1.1511529092
 O   -0.1307359012   -0.2095182613   -2.3081826492
 C    0.7190107664   -0.2564004655    1.3155512056
 C   -0.0012168277   -0.4544778150    2.5785280870
 O    0.4277098106   -1.5720199838    1.7978227865
 H    1.1697392199    2.0247195240   -0.1738811290
 H   -0.3501867533    1.9976361411   -1.0776860228
 H   -0.3656413952    2.2321383850    0.6831263607
 H   -1.0321990646   -0.1056702643    0.1230369946
 H    1.6744599832   -0.3230853834   -1.2623883582
 H    0.5377284112   -1.6569811765   -0.9578222067
 H    0.2184749869   -0.7018181253   -3.0562876632
 H    1.7781930363    0.0068064559    1.3780972500
 H    0.5147358176   -0.3214266031    3.5284597750
 H   -1.0783430369   -0.2937095917    2.6094463175