23

 C    0.2360901341    1.1553004509    0.3124028060
 O   -0.1795959226   -0.1008549477   -0.1851853395
 C    0.5898572743   -0.6019396498   -1.2511451778
 C    0.4189346473    0.1734311129   -2.5433326021
 C    1.9576991737   -1.1885671261   -0.9900322507
 C    2.0331284416   -1.7999165030    0.4117587599
 C    0.7891800035   -2.6806573513    0.0875462545
 C    0.7352920124   -2.0920300174   -1.3339118147
 C    0.4007753279   -2.9327120382   -2.5357477888
 H    1.3171752886    1.1775674669    0.5093361479
 H   -0.0082791837    1.9794754049   -0.3727426487
 H   -0.2996657092    1.3186138444    1.2511841541
 H    0.7146556070    1.2193416997   -2.4134408330
 H    1.0395173792   -0.2377278978   -3.3425643573
 H   -0.6256204909    0.1554944931   -2.8711261769
 H    2.8093529184   -0.9199393710   -1.6074189928
 H    2.9357809062   -2.3974824260    0.5578081798
 H    1.9368084041   -1.1044963125    1.2503614425
 H    1.0268516767   -3.7475627549    0.0773281631
 H   -0.0997146119   -2.5168070644    0.7002688194
 H   -0.6473356377   -3.2560677041   -2.5006341311
 H    0.5478499087   -2.4016163866   -3.4796822711
 H    1.0198792224   -3.8367718220   -2.5631015828