18

 C    0.0132531704    1.4626934148    0.0651121763
 C    0.0328337792   -0.0418527353   -0.0254118077
 C    0.7878826997   -0.7443215527   -1.1810812885
 C    0.3840907922   -2.1335239141   -0.7111901440
 C    0.3661163964   -1.9874696456    0.8661855924
 O    0.6994550005   -0.6315873566    1.1162885310
 C   -1.1652409858   -2.0254669892    0.7431978685
 C   -1.3315706130   -0.7986442444   -0.0655046224
 N   -1.1353350152   -2.1192116500   -0.7511711044
 H    1.0318021536    1.8538911998    0.1376968319
 H   -0.4590737933    1.8920259424   -0.8232316289
 H   -0.5427295361    1.7914791806    0.9478167797
 H    0.3830276599   -0.5204741563   -2.1716970832
 H    1.8606345154   -0.5412127954   -1.1445520697
 H    0.8210439490   -3.0176072143   -1.1691478829
 H    0.9113921278   -2.6653362068    1.5178334497
 H   -1.9132774297   -2.5078732506    1.3615943428
 H   -2.2817258511   -0.3039540863   -0.2202262106