25

 C   -0.3319034307    1.2606549690    0.3822539659
 O    0.0013595416   -0.0875125559    0.1658309606
 C    0.1976532722   -0.3911994268   -1.1960054584
 C    0.4641399309   -1.8774512474   -1.3399700334
 O   -0.7505825470   -2.5634444141   -1.1348452827
 C   -0.7059895566   -3.9829156521   -0.9216992682
 C   -0.0227845400   -4.3106858085    0.4165370781
 C   -2.1845145173   -4.3807605871   -0.8667318231
 C   -0.0058692357   -4.7003221324   -2.0866195867
 H    0.4599944250    1.9423993613    0.0303482669
 H   -1.2695020901    1.5378611299   -0.1257563654
 H   -0.4606843248    1.3983997939    1.4587611131
 H   -0.6912958178   -0.1225743458   -1.7900558668
 H    1.0551582939    0.1743345219   -1.6012228936
 H    0.8695423348   -2.0678465427   -2.3463208287
 H    1.2313484296   -2.1641330886   -0.6076350546
 H   -0.4762619485   -3.7261801976    1.2218734915
 H   -0.1357798858   -5.3738442987    0.6509621299
 H    1.0492560287   -4.0941775924    0.3967129640
 H   -2.6802933078   -4.1259854884   -1.8076875334
 H   -2.2940254921   -5.4551653782   -0.6925623365
 H   -2.6889956324   -3.8418399148   -0.0599993176
 H    1.0594630656   -4.4554529362   -2.1357900705
 H   -0.0879177324   -5.7851943703   -1.9683199497
 H   -0.4682345731   -4.4236551081   -3.0392152009