21

 C   -0.0464003244    1.6257338586   -0.0695703862
 C    0.0071392674    0.0959650288   -0.0217564363
 C    0.9810908730   -0.4866431686   -1.1192342559
 C    2.3169241183   -0.6763069145   -0.3954264048
 C    2.0870780579   -0.6816432442    0.9126611447
 C    2.5393243262   -0.3602407233    2.3106913342
 C    2.1783753097    1.0899391735    2.5532497225
 C    1.0800563388    0.0691064279    2.6339470408
 C    0.6358875853   -0.5089375978    1.2578361554
 H    0.9553759939    2.0658973224   -0.0556821753
 H   -0.5383700381    1.9628252791   -0.9882996917
 H   -0.6046712119    2.0326479281    0.7796518806
 H   -1.0066750724   -0.2877042040   -0.1787709599
 H    0.5973383904   -1.4350031499   -1.5222025028
 H    1.0741658571    0.1934254838   -1.9749983216
 H    3.2661609595   -0.7400837824   -0.9146154743
 H    3.2582795039   -0.8846101926    2.9270793150
 H    2.4961577761    1.4811240202    3.5158151515
 H    2.2402550660    1.8075879153    1.7427739066
 H    0.5383469675   -0.0869611087    3.5592069939
 H    0.1838713959   -1.4896481919    1.4634390937