19

 C   -0.1728013302    1.6207103253    0.0899011635
 C   -0.1243210181    0.1208189062    0.0202740368
 C   -0.0624192404   -0.5707898448   -1.1183692197
 C    0.0317437163   -2.0716074208   -1.1939501554
 C    0.3692620085   -2.6751632809    0.1761658707
 N   -0.3888268586   -2.0667404503    1.2731805795
 C   -0.1668326850   -0.6223152157    1.3584986637
 C    1.0778634658   -0.3553977764    2.1152933919
 N    2.0572451292   -0.1218868282    2.6825888846
 H    0.6696660733    2.0169284696    0.6696015806
 H   -0.1375274512    2.0645211480   -0.9081400096
 H   -1.0880593195    1.9688955907    0.5866875843
 H   -0.0800888066   -0.0286756757   -2.0618642274
 H   -0.9163505819   -2.4841587908   -1.5717106660
 H    0.7916602056   -2.3603758985   -1.9312762415
 H    0.1875233093   -3.7536597835    0.1888458035
 H    1.4335582396   -2.5268942456    0.3938502195
 H   -1.3814442953   -2.2239362762    1.1300244831
 H   -0.9826913409   -0.2012039624    1.9616420079