20

 C   -0.0254217814    1.5632778694   -0.0806888127
 C   -0.0033527641    0.0411699985    0.0037337985
 C   -1.3871887273   -0.5784349732   -0.1894294231
 C    1.0631176621   -0.6578214795   -0.8827353095
 O    2.3529655467   -0.1938196307   -0.4795848186
 C    1.7399078075   -1.2500419951    0.2815189186
 C    0.7614527485   -0.5817956285    1.2260412572
 C    0.9728139168   -0.0510293002    2.5856861917
 N    0.1702000493   -1.2760551067    2.3624893102
 H    0.9885670930    1.9627508803   -0.0065113535
 H   -0.4628459210    1.8983042735   -1.0283309447
 H   -0.6264381696    1.9944383436    0.7282707407
 H   -1.8052851486   -0.2913315879   -1.1605161774
 H   -1.3506585373   -1.6716946044   -0.1450701590
 H   -2.0873682440   -0.2315772660    0.5793178360
 H    0.9533082504   -1.0221971061   -1.8986030953
 H    2.2871687173   -2.1773678981    0.4013246356
 H    1.9172430626   -0.2075662572    3.0996213430
 H    0.4549675844    0.8656244877    2.8580539934
 H   -0.8226151353   -1.0647612994    2.4342688486