16

 N    0.2025849980    1.4163104854   -0.1458056572
 C    0.0080951837   -0.0220537859   -0.0960177765
 C   -1.4189023824   -0.5113362233    0.0071856896
 N   -2.3967602265    0.3350603318    0.0468250681
 C   -3.6787732459   -0.1644353703    0.1410641504
 N   -4.0154463962   -1.4130830103    0.1951955690
 N   -2.9888595113   -2.2865474090    0.1532050222
 C   -1.6382337445   -1.9713707564    0.0594243870
 N   -0.6559960452   -2.7939848699    0.0188616146
 H   -0.3254440128    1.7961876875   -0.9272694110
 H   -0.2233732217    1.8378704784    0.6755665734
 H    0.4579241015   -0.4944512868   -0.9786729082
 H    0.5673139511   -0.4495618084    0.7460486750
 H   -4.4862838479    0.5567849583    0.1732094440
 H   -3.2682770103   -3.2563063821    0.1963608101
 H   -0.9641948595   -3.7670871589    0.0639301195