17

 C    0.3713045276    1.2659744347    0.1556092766
 N    0.1125720444   -0.1385913830   -0.1119475367
 C    0.1962051091   -1.0306028294    1.0301658540
 C   -1.0126966364   -0.9114496736    1.9452028268
 O   -0.9720959412   -1.0212609745    3.1416492811
 C   -0.0594438060   -0.6919174813   -1.3642200408
 C   -0.0738004409    0.2541901680   -2.5551891926
 O   -0.2018886599   -1.8935098989   -1.5133067434
 H    1.4177323047    1.4320458957    0.4469748286
 H    0.1558197847    1.8763595321   -0.7187906073
 H   -0.2626858164    1.6208799088    0.9763951820
 H    0.2150275264   -2.0527418369    0.6347140588
 H    1.1073877808   -0.8558082532    1.6137745808
 H   -1.9678889206   -0.7243697259    1.4012629075
 H    0.8655973033    0.8077485096   -2.6485812879
 H   -0.2189015345   -0.3538518352   -3.4470585969
 H   -0.8870677750    0.9834141231   -2.4861226706