17

 C   -0.0912331332    1.5841376999   -0.0125207622
 C    0.0062326684    0.0470858579    0.0023220892
 C    0.8468352354   -0.5203385812   -1.1384187833
 C    1.8590321170   -1.2535974332   -0.6628550497
 N    1.8057499132   -1.2668565861    0.7436115561
 C    2.4600733638   -1.7614280095    1.8332926696
 N    1.8728538508   -1.3746728562    2.9464006564
 C    0.7950932037   -0.5980768919    2.5624165632
 C    0.7336295040   -0.5180987052    1.1968797585
 H    0.9034556032    2.0353513420    0.0365593151
 H   -0.5856243246    1.9323780838   -0.9248897197
 H   -0.6705187605    1.9392987529    0.8446683433
 H   -1.0133114228   -0.3599870952   -0.0596490020
 H    0.6420245515   -0.3352835026   -2.1834320772
 H    2.6390843361   -1.7893275001   -1.1830919109
 H    3.3372599365   -2.3856156604    1.7591736169
 H    0.1404829776   -0.1554397649    3.2972893666