14

 N    0.0785997274   -3.6646479068    0.1732407608
 C    0.0497904712   -2.5059332876    0.0954681080
 C    0.0192644500   -1.1442505185    0.0011503583
 C   -0.0040084471    0.0609250585   -0.0798987668
 C   -0.0293347429    1.5263052882   -0.1902730662
 O   -0.7332436869    2.1120547211    0.9024151046
 C    0.1594640102    2.8991892696    1.6968374442
 C    1.4567801066    2.9007511036    0.9419756193
 C    1.3608232427    2.1300080637   -0.1326607559
 H   -0.5530010634    1.7839342085   -1.1241612329
 H   -0.2674551751    3.9044804900    1.8158095478
 H    0.2629657292    2.4624500814    2.7018591300
 H    2.3277942293    3.4575090776    1.2626119265
 H    2.1203617189    1.9108804106   -0.8700149977