19

 O    0.0966205975    1.4024324149   -0.1448924933
 C    0.0509569717   -0.0127283745   -0.0050981934
 C   -1.3633295925   -0.5400910603    0.0139880269
 C   -2.2347088163   -0.3707196366    1.2998026970
 C   -2.5356901541   -1.9026921346    1.2985518887
 C   -1.6803368964   -2.0765935695    0.0097159000
 C   -2.4052893507   -1.8757578729   -1.3428483106
 O   -3.4556264509   -0.9203123094   -1.1499699408
 C   -2.1239369837   -0.4280180141   -1.3339076614
 H   -0.3675037532    1.7840572575    0.6076681467
 H    0.5924410156   -0.4109396793   -0.8715891857
 H    0.5901637557   -0.3452863692    0.8966080387
 H   -1.6577954523   -0.0385513488    2.1688575411
 H   -3.1092325456    0.2715596715    1.1853635811
 H   -2.1220773315   -2.4315358179    2.1600239166
 H   -3.5885776847   -2.1670162247    1.1906879341
 H   -0.8784246720   -2.8161111982    0.0019239377
 H   -2.5313833946   -2.5776068442   -2.1599308554
 H   -1.9663706620    0.2885738402   -2.1323043978