18

 C   -0.0625868540    1.5694984201    0.0108752215
 C    0.0975849146    0.0500773798    0.0069426317
 C    0.7379819640   -0.4924897750   -1.2957343710
 O    1.9081727932    0.2346168669   -1.6827158383
 C    1.0260204886   -1.9643130793   -1.1758579037
 C    1.2868326508   -2.4983224911    0.0214409414
 N    1.2320682100   -1.7575254286    1.2008530010
 C    0.7936876506   -0.4463733048    1.2745147543
 O    0.9152358475    0.1981996611    2.2949409057
 H    0.9069366552    2.0543126963   -0.1188355577
 H   -0.7111758465    1.8849553946   -0.8119010591
 H   -0.4943373567    1.9062037158    0.9543726170
 H   -0.8976886967   -0.4212499134    0.0523531227
 H    0.0262436339   -0.3058585153   -2.1071703114
 H    2.6523744182   -0.1306458005   -1.1917377976
 H    1.1045304893   -2.5699173899   -2.0696559450
 H    1.5606704987   -3.5388862655    0.1559302652
 H    1.6191797493   -2.1333674311    2.0534962135