21

 O   -0.0353216481    1.4236658263   -0.1583916899
 C    0.0413722899    0.0194428970    0.0401945120
 C   -1.3695678143   -0.5467426373   -0.0463299794
 C   -1.4145048186   -2.0653162401    0.1512872062
 C   -2.8222650424   -2.6417907199    0.0538372672
 C   -3.5522258273   -2.6479619676   -1.3466318772
 C   -3.6499090967   -4.1740087042   -1.2343502399
 O   -2.3118864231   -4.6743419855   -1.1141587104
 C   -2.9588262667   -4.1764231005    0.0638094795
 H    0.8557027848    1.7822433011   -0.1146285923
 H    0.6792628710   -0.4572293939   -0.7222426656
 H    0.4787207174   -0.2202488436    1.0237532578
 H   -1.9907100845   -0.0465771685    0.7073978572
 H   -1.7895607501   -0.2778775362   -1.0231404745
 H   -0.7852341366   -2.5627277540   -0.5963006521
 H   -0.9923402572   -2.3197610910    1.1338054863
 H   -3.4762853884   -2.1952144470    0.8109643228
 H   -4.5193790503   -2.1409785163   -1.3212879128
 H   -2.9744404120   -2.2897794192   -2.2027221044
 H   -4.3936337782   -4.8489528701   -1.6417759246
 H   -3.0295533186   -4.8525353094    0.9089256039