12

 C    0.0782139139    1.5198418711    0.1513503988
 N    0.2320627726    0.0794592133    0.1642989930
 C    0.5534763068   -0.5572515614   -0.8719945981
 O    0.7059668432   -1.9160449778   -0.8973420988
 C    0.0339268259   -2.6772332399    0.0463914923
 O    0.2593739868   -3.8367475590    0.1525576102
 C    0.8413343632    0.0114528198   -2.1754420178
 N    1.0612088919    0.5191982170   -3.1901996287
 H    0.7440361933    1.9435787434    0.9097031168
 H    0.2881624441    1.9893178490   -0.8171057341
 H   -0.9456616625    1.7633925870    0.4530828446
 H   -0.6933922993   -2.0857669825    0.6159306719