17

 O    0.0829354485    1.3817568848   -0.1784544885
 C    0.0955505160   -0.0298466305   -0.0378636881
 C   -1.3446431016   -0.5625258239   -0.0267662837
 O   -2.0642999982   -0.0120103829   -1.1281089074
 C   -1.4024975022   -2.0924202965   -0.1339675268
 C   -2.8131830656   -2.6383673203   -0.2762275868
 O   -3.3044174513   -3.4343947372    0.4827482579
 C   -2.0954787987   -0.0566530579    1.2148966313
 O   -1.6549362023    0.7633036984    1.9847451948
 H   -0.2274213996    1.7262214593    0.6703505910
 H    0.6191967051   -0.4293031154   -0.9117488584
 H    0.6293437008   -0.3488902666    0.8662102255
 H   -1.7027793725    0.8824528965   -1.2353032138
 H   -0.8493585700   -2.3736670881   -1.0402379623
 H   -0.9285083793   -2.5639465038    0.7320803384
 H   -3.3689202794   -2.2544136853   -1.1558640770
 H   -3.1295499297   -0.4464979405    1.3208042938