17

 C    0.0278190691    1.5689600558    0.1289158182
 C   -0.0848798534    0.0535493976    0.2914345681
 C   -1.4649902855   -0.5093628462    0.0629406674
 N   -2.4184484613    0.3043894840   -0.1904112885
 O   -3.6436748033   -0.3569204353   -0.3903655594
 C   -1.6618245820   -1.9835307054    0.1757702513
 C   -0.9000014971   -2.9360513838   -0.6546708819
 O   -0.5679141924   -2.7360879156    0.7136390080
 H    1.0574330456    1.8900075640    0.3112240658
 H   -0.2599893440    1.8825735848   -0.8779349854
 H   -0.6268978468    2.0909111517    0.8311537265
 H    0.6116137090   -0.4529777662   -0.3906273440
 H    0.2407713818   -0.2540415663    1.2928921490
 H   -4.2521970613    0.3796343025   -0.5075650491
 H   -2.6439365891   -2.2921657903    0.5228737437
 H   -1.3469025944   -3.8985641221   -0.8984485175
 H   -0.1734955846   -2.5617031190   -1.3742470021