19

 C   -0.0199815705    1.4209300900   -0.1772632961
 O   -0.0376230746    0.0075364726   -0.0951229304
 C    0.7227749670   -0.6262653277   -1.0687447108
 O    2.0996554316   -0.3054420704   -0.8643319725
 C    2.8927847543   -0.3199126584   -2.0274147962
 C    2.9650127372   -1.6207744858   -2.7751696025
 C    2.2734524079   -2.7529291597   -2.5735442122
 C    1.1921239492   -3.0135688943   -1.6258420845
 C    0.4809340264   -2.1044150679   -0.9502938154
 H    0.9857630179    1.8203959114   -0.0096296401
 H   -0.3810238031    1.7660499624   -1.1585509902
 H   -0.6929995264    1.7908786848    0.5988236672
 H    0.4401733883   -0.2635739064   -2.0786722492
 H    2.5917978594    0.4801784815   -2.7300501380
 H    3.9014321799   -0.0551917041   -1.6835657089
 H    3.7109694814   -1.6157739961   -3.5688107399
 H    2.5320029730   -3.5990422558   -3.2067168850
 H    0.9321317154   -4.0613428722   -1.4971319380
 H   -0.3133462343   -2.3993782740   -0.2731557174