23

 C    0.0868711061    1.5987698303    0.0457512656
 C   -0.0269069265    0.0617820700   -0.0034032401
 C    0.5614279111   -0.4637592168   -1.3222190807
 C    0.3555689772   -1.9614114834   -1.6254899649
 C    0.5730333594   -2.2380989913   -3.1235639653
 C    1.2364421134   -2.8684693746   -0.8015870910
 C    1.6209813578   -2.7080165177    0.4720826443
 C    1.2673872129   -1.6582439281    1.4235375459
 C    0.5690299880   -0.5262238069    1.2504764585
 H    1.1363748686    1.9132152734    0.0321079059
 H   -0.4149788625    2.0578315721   -0.8117115536
 H   -0.3690880289    1.9992935503    0.9568711681
 H   -1.1034937715   -0.1740041994    0.0024063553
 H    0.1028266089    0.1116385353   -2.1357381093
 H    1.6351750038   -0.2390099173   -1.3537608004
 H   -0.6933064479   -2.2095478675   -1.3981617847
 H    1.5955121343   -1.9817446004   -3.4239450435
 H    0.4133551485   -3.2960132296   -3.3562213097
 H   -0.1153282885   -1.6500311107   -3.7382484288
 H    1.5987830228   -3.7550867502   -1.3191146503
 H    2.2614897582   -3.4832564749    0.8878152936
 H    1.6151282736   -1.8528085156    2.4364742408
 H    0.4069599212    0.0812812731    2.1401596645