17

 C   -0.0052771562    1.4820758810    0.0881958216
 C   -0.0077020744   -0.0058124283   -0.0336285299
 C   -0.0801839862   -0.8024682199   -1.1700592604
 C   -0.0466980015   -2.1558136588   -0.7560611906
 N   -0.1645774482   -3.2630298994   -1.5854271692
 C    0.0473963691   -2.1552878375    0.6436628518
 N    0.0670264193   -0.8229135141    1.0413821735
 C    0.1198298505   -3.1945480336    1.6202070726
 O    0.2024568659   -2.9998687587    2.8262553023
 H    0.9094756564    1.8474144147    0.5694461242
 H   -0.0714774655    1.9417964027   -0.8998278155
 H   -0.8533909605    1.8398505144    0.6835460170
 H   -0.1548293365   -0.4412166052   -2.1850250421
 H    0.1572728485   -3.1083181907   -2.5298035797
 H    0.2083591170   -4.1229526328   -1.2108272396
 H    0.1328085367   -0.5672005875    2.0130586729
 H    0.0960555555   -4.2292280266    1.2111150711