17

 C    0.0586009681    1.4308690503    0.0858654009
 C    0.0087951433   -0.0520617780   -0.0297380552
 C    0.0279792133   -0.8698015311   -1.0856210633
 C   -0.0340300159   -2.2283250802   -0.4237159003
 O    0.9707544975   -2.0842763633    0.6975080797
 C   -0.0499212571   -1.0529612029    1.1442058845
 C   -1.0613269425   -0.6519086275    2.2494164915
 O   -2.1182796423   -1.1208238341    1.3128955761
 C   -1.0793459886   -2.0356294738    0.7683866781
 H    0.8981652078    1.7565766115    0.7122665701
 H    0.1695808846    1.8954227769   -0.8974694434
 H   -0.8553925929    1.8301616973    0.5415660062
 H    0.0830416668   -0.6604936814   -2.1435674131
 H    0.0889757931   -3.1543879760   -0.9845764893
 H   -1.0395460188   -1.2626092804    3.1570891838
 H   -1.1780588762    0.4091681462    2.4835990946
 H   -1.1059804002   -2.9511104134    1.3654772192