14

 C    0.0176166304    1.4457590949    0.0526276354
 C   -0.0474383321   -0.0412817196    0.0140338991
 C   -0.0596696237   -0.9175466084   -1.0126502597
 C   -0.0151461505   -2.2584051082   -0.3187834049
 O   -0.8860548963   -2.0598507761    0.8322075686
 C   -0.0031303420   -0.9709449455    1.2142457886
 C    1.1571177756   -1.9454651028    0.7130735288
 O    2.2355445436   -2.3158517981    1.0194316473
 H    0.9150990430    1.7873399017    0.5829102062
 H    0.0401430771    1.8693006982   -0.9547780311
 H   -0.8431117743    1.8688469112    0.5842311399
 H   -0.0129931908   -0.7353014044   -2.0763749942
 H   -0.1559093400   -3.1949667107   -0.8516078843
 H   -0.1269152298   -0.6057734722    2.2311386803