20

 C    0.0185552008    1.4868700420   -0.1507898996
 C   -0.0237141703   -0.0328262626    0.0648109613
 C    0.7283638106   -0.4297648326    1.3433124012
 C   -1.4662111229   -0.5515022792    0.0847175399
 O   -2.1224214474    0.0547996111    1.1743222283
 C   -2.1985724601   -0.5218006525   -1.2856590681
 O   -2.1066830199   -1.9534142916   -1.4095923043
 C   -1.6173982074   -2.0911875580   -0.0624152637
 H    1.0530980964    1.8397200063   -0.2042876327
 H   -0.4795983615    1.7798160590   -1.0808977533
 H   -0.4782597534    2.0053452888    0.6735881055
 H    0.4625326024   -0.5199695770   -0.7911183980
 H    0.2569057782    0.0200949085    2.2211478587
 H    0.7407189681   -1.5151613053    1.4876601283
 H    1.7677400741   -0.0899584492    1.3000471491
 H   -3.0311945455   -0.2615884687    1.2013946653
 H   -3.2402818692   -0.1740656875   -1.2156569981
 H   -1.7053155016   -0.0030598312   -2.1154605842
 H   -0.7069061458   -2.6991563209   -0.0139977939
 H   -2.3708820754   -2.5217781094    0.6142341082