18

 C   -0.0742706166    1.5690859276    0.0489886483
 C    0.0252804139    0.0390206687    0.0378343486
 C    1.1167361999   -0.6200978406   -0.9023460446
 C    1.7421837244   -1.2887488815    0.3291191695
 O    2.1815223940   -2.5964428320    0.3480349906
 C    2.1661171542   -0.2653247623    1.3389160936
 C    0.7058124945   -0.6579749859    1.2437538345
 C   -1.2947705513   -0.5381167797   -0.2124747917
 N   -2.3450299952   -0.9820856274   -0.4048207569
 H    0.9057734537    2.0172102575    0.2293492586
 H   -0.4480359758    1.9391363533   -0.9100338618
 H   -0.7567759303    1.9079129626    0.8335068721
 H    0.6801933404   -1.3452243220   -1.5896659125
 H    1.7429630610    0.0841049566   -1.4594876137
 H    3.1265321348   -2.6066497363    0.1602226076
 H    2.6604345987   -0.6828971758    2.2104295630
 H    2.5197403065    0.7209148944    1.0492612389
 H    0.1716426532   -1.0803203274    2.0849919858