16

 C    0.5238824662    0.2161993498   -1.0487614229
 C   -0.0670204847    0.0493270881    0.3263699254
 O    0.4573918301    0.4186024633    1.3454441874
 C   -1.4136797550   -0.7328845232    0.4333502291
 C   -2.3077956024   -0.5136172306   -0.6986174156
 N   -3.0169335393   -0.3259620494   -1.5917594887
 C   -1.0624416788   -2.2121022544    0.6313389377
 C   -1.8287507945   -3.3147311123    0.0424342721
 O   -0.5666538940   -2.9064088760   -0.5045648523
 H    1.5195339517    0.6531002100   -0.9725420961
 H    0.5628554022   -0.7573666407   -1.5497541982
 H   -0.1212105114    0.8575594804   -1.6589075098
 H   -1.8988050689   -0.3759450222    1.3478761510
 H   -0.5059011342   -2.3799224814    1.5530289548
 H   -1.8271428134   -4.2845355826    0.5358154648
 H   -2.6931556835   -3.0957188888   -0.5796534687