20

 C   -0.7168536621    1.3911837178    0.1282164302
 C   -0.0696434304    0.0150016057    0.0390341492
 N    0.5845004578   -0.4550517037   -1.2364550284
 C    0.8672795567    0.5359648196   -2.2855794265
 C    2.1990839219    1.2268645687   -1.9170624455
 C    2.9887548759    0.1087933982   -1.2098734768
 C    1.8891185572   -0.7406798018   -0.5437448362
 C    1.2787126791   -0.1840565051    0.7514879221
 O    1.7095844749    0.0965379648    1.8317309500
 H   -0.0237653752    2.1995533183   -0.1207203129
 H   -1.5858277960    1.4619725025   -0.5332276368
 H   -1.0609156942    1.5517842584    1.1541502820
 H   -0.8005436185   -0.7386073246    0.3629097119
 H    0.9750135809    0.0047713186   -3.2398656447
 H    0.0335052338    1.2328661004   -2.4012958838
 H    2.7225476317    1.6296338041   -2.7880652276
 H    2.0217097147    2.0596548756   -1.2272752677
 H    3.5380052014   -0.4985744874   -1.9363152066
 H    3.7077047425    0.4810690395   -0.4755591153
 H    2.1459419779   -1.8041266797   -0.4936137967