16

 O   -0.7932572348    0.9541485164    0.6961312529
 C   -0.0344835025    1.0396793639   -0.2375886611
 C    1.2667181319    1.7901960455   -0.2376541298
 C    1.3136001526    3.3076516522   -0.6696449358
 C    0.6275908069    3.6713769252    0.6811571833
 C    1.7318117274    2.6159217174    0.9962695265
 N    2.6454219861    3.3413928345    0.0293825215
 C    3.3543537433    4.4917124071    0.2848263997
 O    3.3986807964    5.4535566506   -0.4484845220
 H   -0.2557709189    0.5272460496   -1.2012304954
 H    2.0516461291    1.1995272639   -0.7190009149
 H    1.1756590263    3.7320044476   -1.6614426526
 H    0.8202445379    4.6836154458    1.0379840404
 H   -0.4061612227    3.3636942912    0.8312923941
 H    2.0823310112    2.2432618634    1.9575982904
 H    3.9665230198    4.3984886358    1.2053127728