22

 C   -0.5582693975    1.4625970652    0.1261051974
 C   -0.0157825644    0.0386634199    0.0243259371
 C   -1.1082049217   -0.8980111685   -0.5059178571
 C    1.3213087897   -0.1517513740   -0.7591371767
 C    1.8086316783   -1.1341719012    0.3374688152
 C    0.7077438952   -0.5707260771    1.2850283928
 C    1.2567484734    0.4482926802    2.2807502285
 O   -0.1075403091   -1.5163543511    1.9568982163
 H    0.2011031908    2.1750222156    0.4613496467
 H   -0.9169613926    1.8019918383   -0.8525154366
 H   -1.4039926696    1.5177119702    0.8212876332
 H   -1.4495318440   -0.5497256692   -1.4874193244
 H   -0.7528612717   -1.9256860647   -0.6145753344
 H   -1.9677728485   -0.9209614654    0.1696796254
 H    1.2352106096   -0.5443849740   -1.7753826583
 H    1.9173580178    0.7651114590   -0.7923204437
 H    1.6048622629   -2.1769707733    0.0840972540
 H    2.8464806338   -1.0466771929    0.6712640480
 H    1.8940314349    1.1949532084    1.7980068038
 H    0.4459422077    0.9666287721    2.8008253202
 H    1.8733450773   -0.0635132718    3.0313231106
 H    0.3752135377   -1.8348870658    2.7269134619