15

 O   -0.0631147505    1.3564008960   -0.0544405920
 C    0.0284012209   -0.0331554643   -0.0230880340
 C   -0.3996402258   -0.7368561302    1.2525512554
 C   -1.2980244347   -0.7345392082    0.0106225443
 C   -1.3149768908   -2.2385455418   -0.2803126638
 O   -1.4529536519   -2.8392990754    1.0594044784
 C   -0.1371161234   -2.2411025754    1.3586069934
 C    0.1591859751   -2.6787134895   -0.0983910519
 O    0.9824979246   -3.3006997583   -0.6906503606
 H    0.7230698804    1.7187311522    0.3681529983
 H    0.8413311273   -0.4535577918   -0.6162879071
 H   -0.6322179479   -0.1473055919    2.1304195884
 H   -2.2035816382   -0.1447125606   -0.0487611266
 H   -1.9969076896   -2.6481221968   -1.0215127429
 H    0.3470575646   -2.6563863339    2.2392520305