20

 C   -0.0546029746    1.4668170548    0.0287406461
 C   -0.0209452107    0.0127406165    0.0007593904
 C   -0.0062343836   -1.1928908383   -0.0263538448
 C    0.0634370630   -2.6161432992   -0.0330608425
 C   -0.4552399848   -3.4553852152   -1.1432049590
 N   -1.1597801669   -3.5505909684    0.1395079413
 C   -0.2933007790   -4.4386332624    0.9934352018
 C    0.9055889962   -3.4532928751    0.9463656302
 C    2.2885187241   -3.9236952187    0.5182323029
 H    0.4495431871    1.8597825785    0.9186140090
 H    0.4372304031    1.8978958903   -0.8505580256
 H   -1.0865425221    1.8350577487    0.0446980126
 H   -1.0291697536   -2.9411175078   -1.9074794215
 H    0.1167161109   -4.3100789264   -1.5016273030
 H   -0.7358107383   -4.5595626502    1.9835266713
 H   -0.1286646522   -5.4287910776    0.5525622969
 H    0.9779757326   -2.9179162969    1.8967888732
 H    2.2594590124   -4.4642892129   -0.4330398893
 H    2.9690784363   -3.0736382362    0.4006711114
 H    2.7200986201   -4.5953056134    1.2684745186