21

 C   -0.0026223204    1.5120851242    0.0921359591
 C   -0.0288102353    0.0162250169   -0.0229503849
 C    0.8546115265   -0.7011907254   -1.0608982790
 C    0.5926442830   -2.1659370658   -0.5947763709
 C   -0.3630295793   -1.8528611396    0.5718905430
 C   -0.7988034681   -2.9405297349    1.5092349392
 O    0.3170141353   -0.7094620201    1.2189091360
 C   -1.3457869832   -0.8122124489   -0.0382049831
 O   -2.3327353179   -0.3545479049    0.8454389806
 H    0.9779863515    1.8533314868    0.4388688762
 H   -0.1996298592    1.9704321379   -0.8824457412
 H   -0.7642618262    1.8643896457    0.7934183799
 H    0.5358756398   -0.5051398767   -2.0889064821
 H    1.9015859658   -0.4053824419   -0.9608423992
 H    0.1267074136   -2.7926094597   -1.3609492007
 H    1.4972043267   -2.6664738425   -0.2413658970
 H    0.0535362190   -3.3158269578    2.0845049197
 H   -1.5585706323   -2.5758573207    2.2062150181
 H   -1.2267380008   -3.7765538469    0.9465294850
 H   -1.8312046296   -1.0294717442   -0.9936186143
 H   -1.8744774888   -0.1718313216    1.6770897858