17

 C    1.0457178765    1.6302212808   -0.3454709059
 C    0.0098102863    0.8004620611    0.3633071888
 O    0.1229054399   -0.6123863958    0.2795683939
 C    0.2818477798   -0.0305972287    1.5688937742
 C    1.6502828432   -0.0961468335    2.1854421318
 O    2.6538657684   -0.3121173147    1.5522898883
 C    1.7072989506    0.1031293558    3.7131085818
 C    0.8537877848    1.1735485979    4.2079397206
 C    0.1477120671    2.0655566110    4.5955493416
 H    2.0445545817    1.2216249422   -0.1902623218
 H    0.8339233436    1.6411950283   -1.4197091698
 H    1.0128886755    2.6641419362    0.0136374679
 H   -1.0172001213    1.1639427056    0.2835657071
 H   -0.5446928473   -0.1968093176    2.2592118371
 H    1.4112188787   -0.8514810422    4.1725077319
 H    2.7560118768    0.2702124307    3.9750660250
 H   -0.4711612846    2.8536392229    4.9474200974