17

 C    0.0342130150    1.4904320580    0.0697091921
 C   -0.0054770650   -0.0067640380    0.0483232717
 C    0.0169385320   -0.8051720191   -1.0683629408
 N   -0.0374695182   -2.1226269121   -0.6671135518
 C   -0.0907169796   -2.1873172849    0.6913975396
 C   -0.0680016679   -0.8916487277    1.1792809575
 C   -0.1283325511   -0.4693125836    2.5907784670
 N    0.0992853738   -1.4664574391    3.5243993040
 O   -0.3948160880    0.6703058734    2.9353305118
 H    0.8923717857    1.8613247308    0.6390795639
 H    0.0978726107    1.8894489347   -0.9473206013
 H   -0.8533115136    1.9024173214    0.5566541566
 H    0.0679819812   -0.5452472179   -2.1138141657
 H   -0.0630163467   -2.9149229554   -1.2848149078
 H   -0.1842769044   -3.1330566775    1.2010264998
 H    0.6949363668   -2.2374400870    3.2685372897
 H    0.2060824092   -1.1292455359    4.4696125335