19

 C    0.0202972889    1.5804230127    0.0682223743
 C    1.5374755650    1.7971515930   -0.0217030667
 O    2.0496743711    0.8253012789    0.9438359019
 C    1.5661912382   -0.1627952951   -0.0011609222
 C    1.9644648358    0.8078012987   -1.1403371379
 O    1.2362173322    0.7938034112   -2.3411576252
 C    0.4350796946   -0.3785830515   -2.4825626267
 C   -0.5689870978   -0.5408834442   -1.3253686806
 C    0.0268004866    0.0138215722   -0.0146579759
 H   -0.3743169583    1.9503000881    1.0164754228
 H   -0.5218481015    2.0477836126   -0.7569067262
 H    1.9508989788    2.7983971275    0.0912456781
 H    1.9903688589   -1.1574089647    0.1351345916
 H    3.0423562927    0.8290036889   -1.3241660224
 H   -0.0712394655   -0.2820244647   -3.4459028808
 H    1.0886638568   -1.2624735713   -2.5419098801
 H   -1.5057015608   -0.0201751896   -1.5499939918
 H   -0.8156001552   -1.6037210332   -1.2191061894
 H   -0.4477608405   -0.4398653394    0.8570999473