14

 O    0.0462979945    1.4053064014   -0.1566139593
 C   -0.0243316635    0.0047338545   -0.0454441739
 C    0.5967791187   -0.4740450157    1.2847673108
 O    1.6581130066   -0.1234223766    1.7434478814
 N   -0.3265266066   -1.3273459421    1.8537385331
 C   -1.5243524580   -1.3129906158    1.1284774656
 C   -1.4403920537   -0.5417570660    0.0261750995
 C   -2.4303257093   -0.3254534960   -0.9485829060
 C   -3.2543956673   -0.1173022904   -1.8033590327
 H    0.9117278425    1.6586112121    0.1928182174
 H    0.5166210664   -0.4902135334   -0.8713380716
 H   -0.2234181911   -1.6968151317    2.7857072619
 H   -2.3633054239   -1.9011861670    1.4702837136
 H   -3.9857076854    0.0685083766   -2.5500858497