20

 C   -0.0543158373    1.3993563415   -0.1705865878
 C   -0.0790766132   -0.0295724263   -0.6845516869
 O    1.2446794622   -0.5481672452   -0.5983965393
 C    1.3717341388   -1.9137800589   -0.9065303888
 C    1.3972975486   -2.2156978184   -2.3947560741
 C    1.5063270413   -3.6992074672   -2.8062564711
 C    0.1431294721   -3.4692040412   -3.4238223070
 N   -0.6650160204   -4.1745808519   -4.0707252779
 O    0.0679901258   -2.1482559840   -3.0271238785
 H    0.2968141097    1.4309987439    0.8647633384
 H    0.6156894333    2.0144743060   -0.7781295382
 H   -1.0571241415    1.8348291327   -0.2130647828
 H   -0.7576125499   -0.6501249013   -0.0767017881
 H   -0.4455462672   -0.0672223759   -1.7184725677
 H    2.3330661727   -2.2371894624   -0.4870170171
 H    0.5761818556   -2.5108401405   -0.4301324853
 H    2.0782578023   -1.5326613394   -2.9101559376
 H    2.2987491938   -3.9506864280   -3.5120150071
 H    1.5127238348   -4.4158433416   -1.9815012291
 H   -1.5006240114   -3.6445674018   -4.3241319039