19

 O    0.0906886665    1.1387117990   -0.6692477789
 C    0.0040255937   -0.1930672339   -0.1729026251
 C   -1.3967077791   -0.5951807526    0.1717129908
 C   -2.3953406262   -1.1224767814   -0.8592827235
 C   -2.0505231220   -1.9489739153    0.3434728666
 C   -1.5408940568   -3.3644726459    0.3599781536
 O   -0.8122769887   -3.6904727757   -0.8113528183
 O   -2.8192139754   -1.5229064961    1.4727499745
 C   -2.1771402998   -0.2145797428    1.4263758830
 H   -0.4839655919    1.1936412820   -1.4401352164
 H    0.4258658683   -0.9217563681   -0.8814721843
 H    0.6358033807   -0.2080775151    0.7222614252
 H   -3.3898246063   -0.6924339854   -0.9462455480
 H   -1.9352953491   -1.4323626943   -1.7932119348
 H   -0.8541181085   -3.5021066613    1.2014256356
 H   -2.3919711366   -4.0442070306    0.5237071130
 H   -1.4423654671   -3.7726413772   -1.5341129467
 H   -1.5398021406   -0.0695240180    2.3063389481
 H   -2.9049924413    0.6013272627    1.3563015957