20

 C   -0.1255070914    1.5821018011   -0.0358287945
 C    0.0223970436    0.0578075619   -0.0215206707
 N    0.7225924774   -0.4597330883   -1.1863025282
 C    0.0943614878   -0.6872009387   -2.4056662742
 N   -1.1490201128   -0.4784873604   -2.5880933522
 C    1.2229273534   -1.1896903106   -3.3030570726
 N    2.4354466889   -1.1844255637   -2.4817587648
 C    2.0795086851   -0.7675586115   -1.3223015918
 C    3.0178538931   -0.6209961669   -0.1692496018
 H    0.8503623742    2.0780029399   -0.0403269026
 H   -0.6809251993    1.8956321699   -0.9226529141
 H   -0.6736749242    1.9155269827    0.8509248082
 H    0.5522494905   -0.2731598538    0.8758980601
 H   -0.9679645959   -0.4067979808   -0.0174970630
 H   -1.4162023263   -0.7178004221   -3.5415680333
 H    1.0122769660   -2.1996862378   -3.6751379690
 H    1.3465475402   -0.5460308036   -4.1822681435
 H    4.0206818345   -0.8873635773   -0.5025152161
 H    3.0255825176    0.4053773404    0.2124457392
 H    2.7327957977   -1.2777427003    0.6599652348