20

 C    0.0657579156    1.4480565677   -0.5188677572
 C    1.3818541689    1.6684653684    0.2800139099
 C    1.3034106451    0.1953821765    0.7315212198
 C   -0.1737809283    0.1414097888    0.2899565100
 C    2.3418015031   -0.8647018177    0.3842786793
 C    3.1893864423   -0.4070678345    1.6099257561
 C    3.2820184529   -1.8106154508    2.2145910981
 C    1.8765243863   -1.6957975900    1.6183113043
 N    1.7307468891   -0.2308612640    2.1275514819
 H   -0.6970415148    2.2256193009   -0.4440979572
 H    0.2542848985    1.2491112495   -1.5770885909
 H    2.2693645257    1.9839300496   -0.2752319383
 H    1.2409369209    2.3432020197    1.1302470914
 H   -0.8402437043    0.3002567276    1.1435481794
 H   -0.5092347746   -0.7436223996   -0.2574731607
 H    2.6956306857   -1.2314715779   -0.5863247588
 H    3.8949259003    0.4233873501    1.6592211638
 H    3.9688674139   -2.5134409586    1.7359521189
 H    3.3399706640   -1.8625579597    3.3050709263
 H    1.0334769798   -2.3854640660    1.6774981640