17

 C   -0.0072226648    1.5271357730   -0.0219022814
 C    1.4404784319    2.0609946362    0.0085293828
 N    2.2050326044    1.6763956206    1.2051594037
 C    1.9217026308    0.3630724329    1.6153177450
 C    0.9564515952   -0.4273984208    1.0692027074
 C   -0.0375069340   -0.0175587573    0.0415913831
 O    1.0008412201   -1.6572471662    1.6143274329
 N    2.0120022636   -1.6871091090    2.5755804336
 C    2.5555784890   -0.4930566029    2.5585549843
 H   -0.5606969078    1.9362902221    0.8316465308
 H   -0.5081303000    1.8769369804   -0.9297406117
 H    1.9779681351    1.6785211677   -0.8695615468
 H    1.4479690660    3.1518137075   -0.0626222494
 H    2.1024251721    2.3489753521    1.9557573496
 H   -1.0387599602   -0.3790491345    0.2991188389
 H    0.2083727347   -0.4503861461   -0.9371599810
 H    3.3794289539   -0.2803562756    3.2253850784