21

 C   -0.0285569964    1.6285149440   -0.0437001859
 C   -0.0000598987    0.0934431193   -0.0753689503
 C    1.0024265827   -0.4503850172    0.9531776077
 C   -1.4243420779   -0.5299181256    0.0900514458
 C   -2.1535434473   -0.1845232453    1.3903199253
 C   -2.2928316120   -0.1519227706   -1.1178500097
 O   -1.8783287830   -0.0298670361   -2.2417491293
 C   -1.2752766372   -2.0555714121   -0.0485083094
 O   -1.7294360019   -2.8610793487    0.7184067195
 H    0.9702588520    2.0228052725   -0.2556510079
 H   -0.7110188569    2.0386441898   -0.7928330808
 H   -0.3261181744    2.0074723536    0.9395196354
 H    0.3334316034   -0.2061749678   -1.0755520868
 H    0.7383736935   -0.1501986846    1.9724233441
 H    1.0683299096   -1.5430828929    0.9366577121
 H    2.0020709874   -0.0564288655    0.7453062424
 H   -2.3378760436    0.8901585866    1.4691677733
 H   -3.1149196069   -0.7031075379    1.4364499935
 H   -1.5788720413   -0.5034785213    2.2619625887
 H   -3.3750721189   -0.0353422891   -0.8869422708
 H   -0.7021459821   -2.3629321614   -0.9504865470