18

 O    0.0301395235   -0.0453093093    0.1661092809
 C   -0.0011080190    1.1618114159    0.0371464084
 C   -1.2801675747    2.0382193253    0.0704410324
 C   -0.7924400831    3.4811044856    0.3552146962
 C    0.5953581325    3.5195834725   -0.3197465035
 C    1.7637105949    4.3621721511    0.2394688814
 N    2.9100310851    3.4207246808    0.1368166145
 C    2.4162215439    2.1325431887    0.1418882105
 C    1.0954199437    2.1037453755   -0.1271323557
 H   -1.7522207098    1.9786668639   -0.9198240882
 H   -2.0009301419    1.6495999553    0.7933550960
 H   -1.4824334364    4.2456391683   -0.0131367899
 H   -0.6786487696    3.6265384162    1.4360449233
 H    0.4717065291    3.7399522645   -1.3909812702
 H    1.9607783682    5.2720985092   -0.3312655902
 H    1.5940439211    4.6398824137    1.2913774030
 H    3.7371530365    3.6161246293    0.6812058981
 H    3.0770121061    1.3020054034    0.3568294830