25

 C   -1.9009941777   -0.0422428865   -0.9734017422
 C   -0.5683572425    0.0868732597   -0.2281860642
 C    0.5980401035   -0.5128770695   -0.9950319799
 C    1.7841785062   -1.0662194838   -0.2400605226
 C    0.8176204304   -1.9964821767   -0.9479627677
 O    0.8449079772    0.0563148944   -2.2530537064
 C    1.5283682445    1.3189009549   -2.2649048056
 C    2.7467546329    1.1812317007   -3.1770984013
 C    0.5785403796    2.4164373219   -2.7465605453
 H   -1.8394113389    0.4236190450   -1.9604645682
 H   -2.1656726521   -1.0943864480   -1.1215228075
 H   -2.7134411699    0.4354562063   -0.4173226215
 H   -0.3580556273    1.1434431477   -0.0159361958
 H   -0.6350682701   -0.4085979342    0.7475707162
 H    2.7649077595   -0.9426311818   -0.6847857384
 H    1.7734861686   -1.0315180979    0.8443115478
 H    0.1442552822   -2.6004907383   -0.3491767988
 H    1.1615081141   -2.4651257259   -1.8623863059
 H    1.8671902842    1.5507177710   -1.2462798422
 H    3.2932866932    2.1272438766   -3.2480313244
 H    3.4299764224    0.4145157556   -2.8013912389
 H    2.4302693606    0.8892864962   -4.1836761770
 H   -0.2807936965    2.5193194124   -2.0789032321
 H    1.0932312375    3.3819629284   -2.7931283565
 H    0.2054697284    2.1780051517   -3.7478656114