19

 N    0.0059984820    1.3650040685    0.1167085483
 C    0.0461255953   -0.0122632850    0.0753161621
 O    1.1347068307   -0.5993874335    0.0883120765
 C   -1.2342021853   -0.7016299208    0.0646498509
 C   -1.3192834595   -2.0641202620    0.0202105929
 N   -0.2875864813   -2.9315351737   -0.0724308127
 C   -2.7555308286   -2.5290955956   -0.0088960124
 C   -3.5414974607   -1.2673113171    0.4114671624
 C   -2.6132988101   -0.0743128279    0.0656636792
 H    0.8848266537    1.8300191380   -0.0476109062
 H   -0.8271419039    1.8531048453   -0.1656778481
 H    0.6316241702   -2.5148206265    0.0405781012
 H   -0.4297594358   -3.9021334206    0.1459104765
 H   -3.0135222821   -2.8567270102   -1.0254421223
 H   -2.9330273317   -3.3866489132    0.6507941720
 H   -4.5205819937   -1.2000375197   -0.0692063879
 H   -3.7091061794   -1.2912062588    1.4925798065
 H   -2.7199622300    0.7369961274    0.7964012090
 H   -2.8756794497    0.3536840554   -0.9150274379