10

 N   -0.0919845623    1.3027386988    0.3093957390
 C    0.0103546734    0.0996254568   -0.0522960644
 N   -1.1357436247   -0.6896220212   -0.1526425485
 C   -1.1934648038   -1.9939431523   -0.5258941460
 O   -2.1774522586   -2.6688113663   -0.6115206574
 N    0.1165003742   -2.5795678915   -0.8443940707
 N    1.1651395588   -1.9891446640   -0.7908235715
 O    1.1660628096   -0.5269627203   -0.3651332128
 H    0.8176325810    1.7581202527    0.3392492190
 H   -2.0044840074   -0.2259483028    0.0803281033