16

 C    0.7704312091    1.0018878425   -0.0533124530
 O    0.1334775875   -0.0128430151   -0.8262733199
 C   -0.5721337262    0.5089744493    0.3039268734
 C   -0.7653609176   -0.4209005523    1.4459955117
 N   -1.4837390937   -0.1380636117    2.4673262809
 C   -1.3955496518   -1.3144942190    3.3550639076
 C   -0.2511927778   -2.2001050982    2.7808865320
 N   -0.1633870126   -1.6624314714    1.4225066635
 H    1.6328420523    0.6795377615    0.5279746999
 H    0.8674023235    1.9722615186   -0.5367798527
 H   -1.4295668624    1.1378959360    0.0774865642
 H   -1.2121773608   -1.0082087742    4.3885837659
 H   -2.3551874312   -1.8480633231    3.3398811112
 H    0.6889027378   -2.0607436671    3.3346365067
 H   -0.4915494540   -3.2666852196    2.7781757849
 H    0.6275002778   -1.8297748962    0.8215421439