14

 N    0.0401695655    1.3393009868    0.1254263140
 C    0.0634471238    0.0816534339    0.0063730651
 N    1.1293819946   -0.7987101570   -0.1604265410
 C    0.7343875171   -2.1849395827   -0.0157942629
 C   -0.7869420636   -2.0990635373   -0.0103707311
 O   -1.5703830461   -3.0109522387   -0.0138427769
 N   -1.1063142135   -0.7319756358    0.0029417801
 C   -2.4555236037   -0.3112217262   -0.0101169582
 O   -2.8298180402    0.8241415107   -0.0297979128
 H    0.9829177226    1.7255833222    0.0948741651
 H    2.0315596983   -0.4943760188    0.1670880511
 H    1.0669209326   -2.8180254197   -0.8452856071
 H    1.0699403069   -2.6484498173    0.9216888374
 H   -3.1115063942   -1.1960032402   -0.0026700729