13

 N   -0.1045778013    1.3178202884    0.5030657903
 C   -0.0550001004    0.1318821749    0.0396815729
 C    1.2397627633   -0.5152886132   -0.2819368335
 N    1.6686964899   -1.3681281382   -1.1330872478
 O    0.8321561956   -1.9880746605   -2.0578090445
 C   -0.5016342152   -2.1512127361   -1.9550645675
 C   -1.4384856110   -1.6668559093   -1.1223951083
 C   -1.3621336677   -0.6288382588   -0.1011622368
 O   -2.3105884685   -0.3382441436    0.5944053033
 H    0.8320164267    1.7250036547    0.5854657695
 H    2.0706538502   -0.1409433899    0.3188306614
 H   -0.7871930644   -2.8566068164   -2.7304200370
 H   -2.4394538271   -2.0570320220   -1.2729422321