19

 C   -0.6449788405    1.1677023297   -0.4543075318
 O   -0.3539315216   -0.2088455572   -0.1618030134
 C   -1.4115777447   -0.9799857733    0.1234626940
 O   -2.5517160005   -0.5852400578    0.1401806629
 C   -0.9594270887   -2.4052813544    0.4406281254
 O   -2.0284468132   -3.2485942351    0.7321879754
 C   -2.6849320336   -3.8528793179   -0.3857427398
 C   -4.1869127047   -3.7875767104   -0.1531312760
 O   -4.7053336339   -2.4887397806   -0.2989307603
 H    0.3169014519    1.6343615769   -0.6641504367
 H   -1.3065002202    1.2422109545   -1.3204511265
 H   -1.1262946734    1.6468437669    0.4014698566
 H   -0.3316909388   -2.7656593292   -0.3873191446
 H   -0.3153269485   -2.3553761462    1.3266777823
 H   -2.4399463312   -3.3230588188   -1.3155903073
 H   -2.3482920551   -4.8959544960   -0.4776414781
 H   -4.6887647017   -4.4256746846   -0.8910115464
 H   -4.3960011582   -4.2102719498    0.8442757359
 H   -4.0925176732   -1.8721477668    0.1295845484