20

 C   -0.0435211540    1.5706823891   -0.0539573995
 C    0.0888050731    0.0666820581    0.0761182970
 C    1.3325796323   -0.7389276691   -0.1739939092
 C    2.5843222480   -0.0206328451    0.3429095979
 C    1.9716672037   -0.0599259617    1.7920266162
 C    2.7234699686   -1.0119196429    2.7186340068
 O    1.7404552359    1.1819198310    2.4418215627
 C    0.6967116362   -0.6906953429    1.2290739356
 H    0.8094804892    2.1002774144    0.3696361974
 H   -0.1501840604    1.8563939606   -1.1069448592
 H   -0.9344807356    1.9207338848    0.4785279042
 H   -0.7920996880   -0.4608879651   -0.2892785733
 H    1.3473318773   -1.5707186045   -0.8680550925
 H    3.4998464986   -0.6113959598    0.2572094575
 H    2.7689558976    0.9773785075   -0.0646003596
 H    3.7153116224   -0.6108683265    2.9637766108
 H    2.1669648691   -1.1481346256    3.6515626959
 H    2.8664613524   -1.9910642805    2.2524855533
 H    2.5749248806    1.4794151561    2.8206617968
 H    0.1396339730   -1.4612698879    1.7517794111