14

 O   -0.1487312590    1.4153242262   -0.0628024360
 C   -0.0659625200    0.0081067999   -0.0023529914
 C    0.7165394330   -0.4524859217    1.1571668449
 C    1.3924230306   -0.8228532478    2.0773146790
 C   -1.4455122924   -0.5208164126    0.0850084982
 N   -2.5077966541   -0.9710686062    0.1208837223
 C    0.5793923572   -0.5364515788   -1.3012506521
 C    0.3108707197    0.1206771090   -2.5798405942
 O    1.5389617084    0.3511251679   -1.8559860283
 H    0.6946667149    1.6985979180   -0.4510196608
 H    1.9783127948   -1.1449317832    2.9035094089
 H    0.8646482884   -1.5850193443   -1.2641787866
 H    0.4231243527   -0.4442627124   -3.5014079537
 H   -0.3679661942    0.9681019458   -2.6089393902