19

 O   -0.1485706872    1.4874397682    0.1602973411
 C    0.0090729018    0.0784275424    0.0270332605
 C    0.8182300318   -0.5223288651    1.2011500832
 C    0.5628813982   -2.0426566509    1.3266689489
 O   -0.8420938996   -2.2085112243    1.5300862941
 C   -1.3821194934   -2.0373901297    0.2162848520
 C   -1.4060578707   -0.5192644382   -0.0712228021
 C   -0.3619042939   -2.7590204786   -0.6562144005
 C    0.7934067003   -2.7611975412    0.0022341168
 H    0.7269649014    1.8871044625    0.1353150309
 H    0.5416954397   -0.1445546679   -0.9076300033
 H    1.8870823139   -0.3060616407    1.0742175456
 H    0.4880345731   -0.0479015703    2.1310369476
 H    1.0921400287   -2.4723748505    2.1815833718
 H   -2.3879081812   -2.4654131537    0.1958291297
 H   -2.0393493738   -0.0416881124    0.6832096123
 H   -1.8357137295   -0.2980223246   -1.0541866380
 H   -0.5577312203   -3.1150402273   -1.6592333512
 H    1.7550577208   -3.1206557777   -0.3401563591