14

 N    0.0973093579    1.2708257282    0.3034673296
 C    0.0776029751   -0.1050790588   -0.1015599228
 C   -1.3403766335   -0.7929687040   -0.2824575411
 N   -0.8422716189   -1.3129337864   -1.5634037693
 C    0.2853345044   -0.4905652981   -1.5779660573
 N    1.1338687659   -0.0976489292   -2.4243311127
 C   -1.7458368166   -1.8027882774    0.6904640427
 N   -2.0612264731   -2.5948252424    1.4708662804
 H    0.9890338259    1.5100980369    0.7195065559
 H   -0.0299704575    1.8842861764   -0.4950821894
 H    0.6997315993   -0.7051576997    0.5651955137
 H   -2.1245832037   -0.0332989720   -0.3732186731
 H   -1.4173684984   -1.5724309103   -2.3525754468
 H    0.9641163330   -0.4778533232   -3.3567892099