17

 N    0.0510619378    1.5183451560   -0.0776936759
 C   -0.0058520757    0.0614205831   -0.0750886713
 C   -0.0966481929   -0.5454473529    1.3518422852
 O   -1.4201253814   -1.0523965841    1.1176066672
 C   -1.4388011138   -0.5489552144   -0.2404560992
 C   -2.6223768900    0.3846208375   -0.4380164983
 O   -3.8195666878   -0.3256478225   -0.1857447058
 C    1.0088006102   -0.5573473348   -0.9379933614
 N    1.8190416235   -1.0021478105   -1.6333965397
 H    0.9415875102    1.8261172918    0.3046270886
 H    0.0129910093    1.8725419707   -1.0299754517
 H    0.6199852222   -1.3433272146    1.5703650661
 H   -0.0712162382    0.2153977702    2.1394428926
 H   -1.4847840598   -1.3768959787   -0.9566462191
 H   -2.5150798731    1.2617260009    0.2119439638
 H   -2.6674991107    0.7286830988   -1.4773856596
 H   -3.7427451699   -0.6756126466    0.7102136785