17

 C    0.0503665676    1.5382384557    0.0118918088
 C    0.0422514248    0.0387950128    0.0363455287
 C   -1.2797591065   -0.7963661201   -0.0036093774
 O   -0.9756816542   -2.1598407424   -0.3379509938
 C   -0.7724709126   -1.7115410259    1.0127407345
 C    0.5801847867   -0.9451676776    1.0883774258
 C    1.2265103263   -0.8428105340   -0.2687850110
 C    1.2742862966   -1.9277147673   -1.3197271832
 O    1.3136295046   -1.6862208368   -2.4994621593
 H    1.0292338707    1.9293415213    0.3051262204
 H   -0.1735579543    1.9164334211   -0.9924218999
 H   -0.6948493162    1.9539730981    0.7000239204
 H   -2.2743020658   -0.4333822579   -0.2333537787
 H   -1.2638726933   -2.2645952520    1.8033184607
 H    1.0946495426   -0.7245606410    2.0146482520
 H    2.1574391483   -0.2771084240   -0.2456265720
 H    1.3600986147   -2.9625288302   -0.9293016459