16

 O    0.7709027757   -0.1309941272   -0.6624114295
 C   -0.1777272601    0.2896349406    0.3181980157
 C   -1.5517859097   -0.3756957004    0.1741722955
 C   -2.0261674795   -0.8360972677   -1.2121202341
 C   -1.6050978958   -1.8592769955   -0.1973958003
 O   -0.4495114247   -2.6128154694   -0.3284152146
 C   -2.5259360198    0.1358963200    1.0938859300
 C   -3.3216603215    0.5798424063    1.8805779110
 H    0.5822741593    0.3322840164   -1.4843172697
 H    0.2533468104    0.0138043210    1.2851483633
 H   -0.2928369714    1.3804298961    0.3037217212
 H   -3.0773796320   -0.7169245501   -1.4472459021
 H   -1.3518091544   -0.6673938904   -2.0457055950
 H   -2.3883561894   -2.4424154270    0.2746904342
 H    0.2548185704   -2.0181448181   -0.6276057179
 H   -4.0300562774    0.9612836152    2.5733928523