19

 C    0.1749600506    1.4901556436    0.3851496184
 C   -0.1156339489    0.0626756540   -0.0196525531
 C    0.4725277506   -0.5977765062   -1.2402110365
 C    1.4390780125    0.0796134188   -2.1956351180
 O    2.3558123270   -0.8425103300   -2.7359240319
 N    0.8885358262   -0.9954792687    0.0973007298
 C    2.1813647461   -0.8789845184    0.5916496752
 N    2.2324442712   -0.5463233738    1.9245274373
 O    3.1905196068   -1.0955560460   -0.0655851443
 H    1.1735255678    1.8169097774    0.0908165534
 H   -0.5577550465    2.1602804725   -0.0762080494
 H    0.0954888350    1.6073185085    1.4707390071
 H   -1.1110570922   -0.2736746351    0.2708995889
 H   -0.1359926500   -1.3577777618   -1.7290007729
 H    0.8641294201    0.4927169575   -3.0329993570
 H    1.9504105937    0.9184885865   -1.7036461406
 H    2.8827579496   -1.1411963471   -1.9748488664
 H    1.4187877848   -0.7258255995    2.4902625209
 H    3.1251505657   -0.7054667323    2.3644721090