22

 C    0.1478255590    1.5807712402   -0.4252325313
 C    0.0269111630    0.0704535821   -0.1616544444
 C    0.9373152802   -0.7211896207   -1.1492948764
 C    2.1471315038   -1.1560882931   -0.2888315334
 O    2.0694482545   -0.4024636784    0.9169214241
 C    0.6885436740   -0.2735057171    1.1955462375
 N   -1.3260269680   -0.5041093571   -0.1820445500
 C   -2.4417082925    0.1824930398    0.4565858064
 C   -2.3747490006    0.0500136494   -1.0264398232
 H    1.1894357478    1.8771597229   -0.2708328044
 H   -0.1215993229    1.8428094749   -1.4528230425
 H   -0.4670544751    2.1755008019    0.2578418444
 H    0.3930569436   -1.5815484659   -1.5428551100
 H    1.2440561996   -0.0972836981   -1.9926658922
 H    2.0966857654   -2.2329795693   -0.0653149698
 H    3.1163736257   -0.9484371960   -0.7494053213
 H    0.5681580392    0.5047168976    1.9541953738
 H    0.2624422285   -1.2160001257    1.5741426041
 H   -3.1036440145   -0.4505076041    1.0415426991
 H   -2.2920657060    1.1782029140    0.8684877177
 H   -2.1788212982    0.9586238014   -1.5906763196
 H   -2.9899406867   -0.6796980186   -1.5462310883