19

 C   -0.0927908289    1.5275407657    0.0237100624
 C    0.0454117346    0.0218383071    0.0548455553
 C    1.0501663322   -0.7151644074   -0.8933795794
 C    1.0501065286   -1.8238557703    0.2032016307
 C    0.7837051177   -0.6898221625    1.2299964281
 N   -0.1628146476   -2.6301964188    0.1011034552
 C   -1.3558802500   -1.9983964183   -0.2166998350
 O   -2.3649764886   -2.5818278607   -0.5631290719
 N   -1.2692802917   -0.6228730772   -0.0617957730
 H    0.8837510889    2.0046791058    0.1413509526
 H   -0.5195533459    1.8639606479   -0.9286289530
 H   -0.7460710164    1.8751463858    0.8311700871
 H    0.7069451112   -0.9830254142   -1.8955092222
 H    2.0097760808   -0.1951183008   -0.9422003744
 H    1.9173993633   -2.4725090491    0.3248603692
 H    1.7025204308   -0.1654562985    1.5010359681
 H    0.1987280917   -0.9382317598    2.1169790467
 H   -0.1018708775   -3.5809747611   -0.2254214580
 H   -2.0239620931   -0.1141329035   -0.4954055386