15

 N    0.0462595373    1.3350270474    0.1576321056
 C   -0.0525802148   -0.0276312089    0.0491356249
 C   -1.2240213140   -0.7207529220   -0.0090305075
 O   -2.4164011152   -0.0120420709   -0.0840089253
 C   -1.1596655862   -2.1399675145   -0.0780429675
 C    0.0317554209   -2.7893323663   -0.0639455579
 C    1.2715498073   -2.0573596260    0.0035224620
 N    2.4334522287   -2.5713440204    0.0238890343
 O    1.1414595022   -0.6476807201    0.0393373774
 H    0.9058680193    1.7303142937   -0.1942369661
 H   -0.7925017524    1.8207952630   -0.1252301663
 H   -2.8656723996   -0.0616666220    0.7674797410
 H   -2.0927100562   -2.6908330731   -0.1474086065
 H    0.1133504727   -3.8661796050   -0.1113377848
 H    3.1516629001   -1.8496647551    0.0716410768