19

 O    0.2392377009    1.3665620788    0.0489661661
 C    0.0968676663   -0.0141708244   -0.0891526049
 C   -1.3628807790   -0.4383864846    0.0221966243
 O   -2.2154036209    0.4154132669    0.1493383616
 C   -1.6803517365   -1.9202534098   -0.0252029828
 C   -3.1762325215   -2.2213475691   -0.1317012549
 C   -3.4763761537   -3.7284609973   -0.1044327073
 C   -4.9639332131   -4.0054505760   -0.1217041372
 O   -5.5231676777   -4.7219943159   -0.9099490661
 H   -0.6667683923    1.7065907948    0.1266299741
 H    0.4749255062   -0.3653276898   -1.0652382904
 H    0.6796373352   -0.5535080286    0.6754837723
 H   -1.1214665238   -2.3728223338   -0.8549981231
 H   -1.2579676813   -2.3724069662    0.8843552387
 H   -3.7000372260   -1.7166734107    0.6870644465
 H   -3.5681919602   -1.7814573233   -1.0552292694
 H   -3.0157168231   -4.2544578417   -0.9462156080
 H   -3.0748507832   -4.1609959560    0.8244940310
 H   -5.5348243663   -3.4766863333    0.6780485493