19

 C   -0.0351208562    1.6496569718    0.0001650263
 C   -0.0104491843    0.1224111519   -0.0159145933
 N   -1.3531726046   -0.4704864080   -0.0811168970
 C   -2.0496326425   -0.2019369373   -1.3400223127
 C   -1.3710581956   -1.8789652564    0.2724124599
 C   -2.7996874690   -2.3035961637    0.6621666677
 O   -3.2992115954   -3.3614863706    0.4089676213
 C   -0.7786758069   -2.7837184540   -0.7371322280
 N   -0.2826711740   -3.4185822021   -1.5652860471
 H    0.9740527521    2.0303720863    0.1825377234
 H   -0.3733201884    2.0701218485   -0.9507576200
 H   -0.6930427324    2.0168363745    0.7932633976
 H    0.6257974656   -0.2342089836   -0.8449593227
 H    0.4524764416   -0.2328579312    0.9116646223
 H   -1.5125364717   -0.5920820162   -2.2199503659
 H   -3.0430215977   -0.6605353809   -1.3200225504
 H   -2.1869845820    0.8735281392   -1.4625109344
 H   -0.7886020696   -1.9957860364    1.1989783501
 H   -3.3144654890   -1.5053409019    1.2379941629