21

 C   -0.1969686030    1.6343357422   -0.0603584903
 C    0.0414002051    0.1304413412   -0.0275537114
 C    1.1139993046   -0.5732117312   -0.9161529468
 C    2.4235033028    0.1202433295   -0.4990003195
 C    2.3404978954   -0.3997714043    0.9495304578
 O    2.4814190574   -1.8348823428    0.7236844040
 C    1.1478959702   -1.7462305305    0.1983835908
 C    0.4321507084   -3.0463844729   -0.0037359404
 C    0.7776817215   -0.5658185939    1.1309041781
 H    0.7047867401    2.2126441272    0.1585441610
 H   -0.5686927022    1.9540132664   -1.0404296808
 H   -0.9501169588    1.9157902699    0.6839657889
 H   -0.9187211292   -0.3826324222   -0.1637623241
 H    0.9362270483   -0.7752855521   -1.9720455950
 H    3.3135045904   -0.2816137279   -0.9871394866
 H    2.4049246615    1.2054565463   -0.6142972373
 H    3.0025820781   -0.0088448346    1.7205372400
 H    0.4031594069   -3.6224384657    0.9259647296
 H   -0.5947436514   -2.8775381112   -0.3418884986
 H    0.9437333138   -3.6473819679   -0.7633633101
 H    0.3856720800   -0.6916312655    2.1398938009