14

 O   -0.0650309844    1.3738122018    0.0202416287
 C   -0.0060003228    0.0051466000    0.0272306921
 C   -0.4904875234   -0.7150356719    1.2564184673
 C   -1.3651101139   -0.7659776416    0.0201063815
 O   -2.4725690640    0.0597765972   -0.0688644983
 C   -1.4664005911   -2.0193620533   -0.6960041316
 N   -1.5572142159   -3.0285506464   -1.2551892252
 C    1.1064200194   -0.5538397175   -0.7929679064
 O    1.8209136701    0.1829242369   -1.4307792876
 H    0.5417966451    1.6502855223   -0.6866345273
 H    0.0145840794   -1.6214663753    1.5721786637
 H   -0.8469375825   -0.0636951546    2.0466161542
 H   -3.1720467334   -0.3028146231    0.4881426263
 H    1.2293287074   -1.6523760246   -0.7969545476