15

 C   -0.0756845951   -1.2419944071   -0.0946715925
 C   -0.0499748966   -0.0414347753   -0.0488175581
 C   -0.0181397060    1.4089120362    0.0079700854
 C   -0.9935779145    1.9919368746   -0.9126199960
 N   -1.7596401260    2.4692147029   -1.6352611572
 C    0.1114670168    2.1558319937    1.4075351832
 C    1.5581591423    1.6181109978    1.5165804064
 C    1.3721430791    2.1798515352    0.0869656636
 N    0.7001832924    3.3691141106    0.7293648160
 H   -0.1013827776   -2.3033000237   -0.1376489910
 H   -0.6678931169    2.2209540069    2.1664370480
 H    2.2110110636    2.2149080754    2.1506779823
 H    1.6948011097    0.5445465819    1.6274972179
 H    2.0926356406    2.2735480412   -0.7252452452
 H    0.0208854982    3.7902588997    0.0885357671