23

 C   -0.1428634317    1.6365194412   -0.1307799888
 C   -0.1080086683    0.1091096931   -0.0300258169
 C   -1.4751256684   -0.5847218072    0.1213560294
 C   -1.2810043490   -2.1046586872    0.1479919428
 C   -2.2382277865   -0.0934340355    1.3563193598
 O   -2.1837799940   -0.1971508853   -1.1064674069
 C   -3.4350422291   -0.6172028554   -1.3662163812
 C   -3.9014954243   -0.0596255532   -2.6938318284
 O   -4.0985490273   -1.3314097149   -0.6545816068
 H    0.8620491088    2.0267063902   -0.3183328498
 H   -0.7887948939    1.9580572169   -0.9518826928
 H   -0.5073176819    2.1008793659    0.7902523651
 H    0.3727077416   -0.3013729686   -0.9256470901
 H    0.5106308505   -0.1950304343    0.8226619404
 H   -0.6568088253   -2.3795048214    1.0041584516
 H   -2.2366862321   -2.6218162710    0.2318866322
 H   -0.7740949098   -2.4407567466   -0.7618839639
 H   -2.4750045959    0.9704516955    1.2752178166
 H   -3.1682843491   -0.6465859496    1.4831567380
 H   -1.6176634667   -0.2359575064    2.2470346756
 H   -4.9009363808   -0.4339659745   -2.9122846986
 H   -3.9141461998    1.0335567549   -2.6568560347
 H   -3.2092901470   -0.3491817764   -3.4891917028