21

 C   -0.0773387671    1.4083656712    0.3393816144
 C    1.4596327515    1.5328712177    0.0719632951
 C    2.3660366569    1.5659386216    1.3207755796
 C    3.5184863322    0.5606633877    1.2113329687
 C    2.9947554496   -0.8831959582    1.1441706351
 C    1.7996552354   -1.0274166768    0.1986487652
 O    0.5028132901   -0.9445831211    0.8672093001
 C   -0.0166821760   -0.0447927646   -0.1470772496
 C    1.4166611577    0.1577501701   -0.6945370778
 H   -0.4197302754    1.5574784872    1.3670647840
 H   -0.6735543860    2.0350965603   -0.3316160303
 H    1.7120002886    2.3602050481   -0.5952663546
 H    2.7569153533    2.5778764621    1.4717372730
 H    1.7749220048    1.3252524146    2.2117766661
 H    4.1041474836    0.7790079745    0.3078336667
 H    4.2051675310    0.6701335982    2.0575572610
 H    3.7983858593   -1.5598053442    0.8337828270
 H    2.6658630798   -1.2167931271    2.1357388380
 H    1.8521825484   -1.9733709668   -0.3583437201
 H   -0.8561705270   -0.4818081620   -0.6962120724
 H    1.6938745693    0.1584168574   -1.7476137090