17

 C    0.0658248275    1.4249413626    0.0977441695
 C    0.0414547472   -0.0534665539   -0.0522420071
 N   -0.0156783249   -0.7530585911   -1.1387309065
 C   -0.0124407106   -2.0840198112   -0.7122109929
 C   -0.0698456900   -3.2084629402   -1.6909002747
 C    0.0481078955   -2.1093573516    0.6436251107
 C    0.0820934114   -3.1699842983    1.6815094757
 O    0.0833062196   -0.8026156914    1.0796074628
 H    0.9762555434    1.7556717420    0.6087083013
 H    0.0271683975    1.8813020096   -0.8915519900
 H   -0.7873743660    1.7767750272    0.6873372687
 H    0.7815082693   -3.1717137161   -2.3792226625
 H   -0.0590585682   -4.1785474207   -1.1874078785
 H   -0.9781384502   -3.1503920790   -2.3004651586
 H    0.9942397100   -3.1137195333    2.2868598333
 H   -0.7703888349   -3.0925864244    2.3662801469
 H    0.0491121736   -4.1550092104    1.2107606220