23

 C    0.9558099284   -2.8558879802    3.1815255989
 C    0.3934380816   -2.3442961091    1.8529987939
 C   -1.0356111765   -2.8110761010    1.6111201901
 O   -1.4688803511   -2.2877519114    0.3586121944
 C   -2.7379949153   -2.7187465245   -0.0709871867
 C   -3.8691112238   -2.0182667623    0.6498574113
 O   -3.7383424036   -0.6115633276    0.5576437860
 C   -2.8344406061   -2.9781506786   -1.5419510008
 C   -2.8866949406   -4.1345616636   -0.5610229480
 H    1.9802228835   -2.5049997057    3.3348806146
 H    0.3557971893   -2.5086584939    4.0298871257
 H    0.9718107914   -3.9508754862    3.2136027911
 H    0.4130829441   -1.2484266122    1.8299578593
 H    1.0167424465   -2.6838640233    1.0179147992
 H   -1.0864216781   -3.9099749450    1.5953840184
 H   -1.6894516465   -2.4665032585    2.4266629154
 H   -4.8275458842   -2.2935235956    0.1971653597
 H   -3.9044332650   -2.3424689632    1.7037203544
 H   -2.7928180978   -0.4318909933    0.6286281187
 H   -3.7429938882   -2.6843470479   -2.0554361105
 H   -1.9226827200   -2.8587224974   -2.1152720500
 H   -2.0126614536   -4.7738009922   -0.5052272908
 H   -3.8302109642   -4.6458502772   -0.4008753743