18

 C   -0.4032096311    1.2084174896    0.1243449672
 C    0.0761337142   -0.2360885402    0.1080963481
 C    0.9689027169   -0.7216282321   -1.1022751579
 C    1.9490675605   -1.3938501100   -0.0789076862
 C    1.2173363044   -0.6508983860    1.0162051144
 N    1.4542354897   -0.3201793536    2.2138144718
 O    2.6727103442   -0.8630368237    2.6588388285
 C    0.2949890193   -1.6418883263   -2.0785164939
 O    0.2152319702   -1.4627882036   -3.2661775587
 H    0.4353466842    1.8994371934   -0.0035417998
 H   -1.1244560273    1.3887055434   -0.6790216654
 H   -0.8861192955    1.4403632968    1.0778954506
 H   -0.7760098694   -0.9184087943    0.2361009087
 H    1.4224721164    0.1144601653   -1.6374989052
 H    1.8254514042   -2.4813850692   -0.0135847873
 H    3.0119293947   -1.1743639691   -0.1959553356
 H    2.7321943934   -0.5204817053    3.5572062900
 H   -0.1565952591   -2.5471012050   -1.6025343892