21

 C   -0.8848160873    1.1371787697   -0.1508945068
 C    0.1161626181    0.0049975590    0.0165579613
 C    1.4263600843    0.0515124865   -0.8330716837
 C    2.2055744386   -0.2959703680    0.4374163582
 C    0.9819432033   -0.0216187387    1.3165669085
 C    3.1646959644   -1.4598802291    0.5390328271
 O    3.5539662799   -2.1336256609   -0.6189436553
 C    3.6545187092   -0.0397220734    0.7242085360
 O    4.3921976415    0.4957811817   -0.3502765071
 H   -0.4013925053    2.1117258452   -0.0151865722
 H   -1.3345800451    1.1254133331   -1.1501583549
 H   -1.6971288894    1.0635339090    0.5811640460
 H   -0.3848428233   -0.9584937623   -0.1205793178
 H    1.5115573609   -0.6667455137   -1.6524893036
 H    1.6503648884    1.0532345033   -1.2136925504
 H    1.0228898950    0.9580948509    1.8067040709
 H    0.7304063069   -0.7767451395    2.0674277718
 H    3.1033822423   -2.1267224543    1.3952107189
 H    3.9958521499   -1.4734965750   -1.1714161186
 H    3.9413799851    0.3224559722    1.7110219064
 H    5.3246534927    0.3146251843   -0.1851897049