19

 C    0.0059059074    1.5685384124   -0.0192676700
 C    0.0823326208    0.0586660091   -0.0376915554
 C    0.6881176479   -0.7402113400   -1.1474907118
 C    0.0352540100   -1.8021464636   -1.9678680125
 O    1.7833887027   -0.0290984960   -1.7359463670
 C    2.5298002266   -0.0799954043   -0.4950105638
 C    1.3639367385   -0.7424330493    0.2404564312
 C    1.4699734395   -1.7437347813    1.2392555024
 C    1.5694038657   -2.5935309167    2.0872458025
 H    0.7924676428    2.0101108050   -0.6350895641
 H   -0.9552253749    1.9035684343   -0.4234287788
 H    0.0952677524    1.9598414272    0.9992520254
 H   -0.7707363222   -0.4484592230    0.4082983233
 H   -0.4937691512   -1.3561358870   -2.8179203542
 H    0.7768646949   -2.5052410569   -2.3580542536
 H   -0.6916919263   -2.3542116142   -1.3660157053
 H    3.3965362434   -0.7411571516   -0.5929293796
 H    2.8503548873    0.9111487907   -0.1549914808
 H    1.6552538847   -3.3414731048    2.8356334521