19

 O    0.0024582520    1.4458299074    0.0902517742
 C    0.0502039804    0.0420328526   -0.0425033144
 C   -1.3481362686   -0.5667152760   -0.0386437928
 C   -1.3645471053   -2.0901471058   -0.1431509200
 C   -2.8046676367   -2.6222331160   -0.0348118130
 C   -3.5908045034   -1.9745274012    1.0957541095
 O   -4.4256468050   -2.5596710845    1.7422668730
 C   -3.3055904628   -0.4870622227    1.3186081214
 O   -1.9323733289   -0.1612094514    1.2017826646
 H   -0.5692394779    1.6164589070    0.8485200556
 H    0.5454686558   -0.1776384943   -0.9938088868
 H    0.6414362737   -0.4234977398    0.7630521306
 H   -1.9264993846   -0.1224529669   -0.8677456866
 H   -0.9127247071   -2.4115489666   -1.0880722640
 H   -0.7528002783   -2.5010409572    0.6684621325
 H   -3.3490401241   -2.3769349125   -0.9592465418
 H   -2.8489912031   -3.7075482334    0.0830878775
 H   -3.9070682826    0.0846250800    0.5878887886
 H   -3.6302138434   -0.2078901488    2.3227844620