19

 C    0.0012296849    1.5070531599    0.1601832325
 C    0.0373194085    0.0194473168   -0.0245049173
 C   -0.8912377049   -0.9563972245    0.7308163502
 O   -1.0175059300   -2.1578279154   -0.0326206554
 C    0.4082042857   -2.0180424979   -0.3069827639
 C    0.5840642251   -1.0535699699    0.9199312497
 C    0.4868593275   -0.7842047838   -1.2546569396
 C   -0.3510671174   -0.7859087923   -2.5247703931
 O    0.1501954594   -1.6985755724   -3.4956877500
 H    0.9769739582    1.9601192554   -0.0488350085
 H   -0.7342092752    1.9751944863   -0.5037887588
 H   -0.2702221977    1.7703027324    1.1886400533
 H   -1.6996888629   -0.6595201052    1.3863445736
 H    0.9087751161   -2.9638455237   -0.5046689018
 H    1.2400946688   -1.0229716734    1.7788390912
 H    1.5356453777   -0.5673429833   -1.4853438892
 H   -1.3980389091   -1.0003280446   -2.2744150976
 H   -0.3154660200    0.2028460245   -2.9961041302
 H   -0.0617192347   -2.5865124988   -3.1917550250