18

 C    0.0496680061    1.3981611328    0.1292660955
 C    1.2974120358    0.6213656611    0.0102110215
 C    1.7216223221    0.0279092289    1.3556700941
 C    0.3151887065   -0.5759572432    1.3843800395
 C   -0.1565466980   -1.9539759194    1.7625574324
 C    0.4068195444   -2.3101646377    3.1315236904
 O   -0.0659497936   -1.0558739810    3.7019291841
 C   -0.6999445021   -0.7173501436    2.4648874819
 N   -0.0583153870   -0.0768334000    0.0336605278
 H   -0.2016415266    1.8816159908    1.0705996470
 H   -0.3180467458    1.9019142657   -0.7592226464
 H    1.9028270511    0.6283045653   -0.8898091229
 H    2.5050240178   -0.7284595314    1.2657126822
 H    1.9922807731    0.7350656436    2.1441301502
 H   -0.6149844607   -2.6190662164    1.0436382516
 H   -0.0957381942   -3.1587075528    3.6086876257
 H    1.4938004258   -2.4244720172    3.2229807507
 H   -1.6759932146   -0.2454009256    2.4920455947