14

 N    0.0005576496    1.3656343690    0.0103761450
 C    0.0395822101    0.1038284364    0.0035039654
 N    1.1508636453   -0.7581366762   -0.0074950966
 C    0.8426085643   -2.1002974783   -0.0132520157
 O    1.6132676781   -3.0244548885   -0.0227607835
 C   -0.6833522611   -2.1576690387   -0.0048794211
 N   -1.0804149837   -0.7520506246    0.0054821292
 C   -2.4182370188   -0.3786184374    0.0180266644
 O   -2.8545134795    0.7383595810    0.0283008158
 H    0.9368463941    1.7662145526    0.0072511731
 H    2.1008658966   -0.4206780329   -0.0113340538
 H   -1.0381239548   -2.6890844891   -0.8941773910
 H   -1.0282140210   -2.6993804582    0.8820773043
 H   -3.0582822991   -1.2849614452    0.0172748845