16

 C    0.0171686149    1.5650015051   -0.0094199563
 C    0.0403771369    0.0620308795    0.1389729575
 N    1.2342537756   -0.7724583256   -0.1998623738
 C    2.3952630945   -0.0632295446    0.3113493203
 O    3.3753945901    0.2701377516   -0.2762474178
 C    1.9378120340   -0.0464262029    1.7740293327
 C    0.6486098772   -0.6984556824    1.2571257133
 C    0.0195003274   -1.8156899660    1.8754245369
 C   -0.5215982939   -2.7351711757    2.4308605106
 H    0.8827851573    2.0581294884    0.4376878530
 H   -0.0070674276    1.8311365236   -1.0707220845
 H   -0.8860005589    1.9669618695    0.4603289510
 H   -0.8454650292   -0.4218680081   -0.2662373019
 H    2.5357319320   -0.7289712229    2.3821766864
 H    1.8636558772    0.9188410560    2.2794497083
 H   -0.9964550274   -3.5551145752    2.9108864645