23

 C    0.0741819448    1.5775204713   -0.1865502130
 C   -0.0097689278    0.0580491818   -0.0198700033
 C   -1.4402828363   -0.4833689250   -0.1524095325
 C   -1.5073956241   -2.0005813120   -0.0427044936
 C   -1.4518657840   -2.7593965010    1.3294422621
 C   -2.9178110031   -2.3141856666    1.6008890176
 C   -2.8550074555   -2.7579902455    0.1029913187
 O   -3.8493124949   -2.7001579334   -0.8567924519
 C   -2.0316236236   -3.9949638361    0.5834176061
 H    1.1041680767    1.9352146605   -0.0897698661
 H   -0.2956041106    1.8880063242   -1.1702384627
 H   -0.5295079619    2.0930882564    0.5688539555
 H    0.6318512367   -0.4283886708   -0.7665389477
 H    0.3969369569   -0.2271723710    0.9591076314
 H   -2.0779098658    0.0049463200    0.5927141342
 H   -1.8462421383   -0.1923550167   -1.1308418955
 H   -0.8518097409   -2.4499242586   -0.7996979543
 H   -0.6331997236   -2.7660357716    2.0452047237
 H   -3.4951867171   -2.9567806883    2.2725411954
 H   -3.1020491721   -1.2609437340    1.8132788310
 H   -4.5963812301   -3.2292572826   -0.5571450271
 H   -1.3861217510   -4.4722180000   -0.1586079929
 H   -2.5590590341   -4.7288603312    1.1997807649