23

 C   -0.1239146292    1.6381353106    0.5982464935
 C   -0.0267948477    0.1223148126    0.4160429422
 O    0.4505643059   -0.4903365452    1.6143621209
 C   -1.3521724941   -0.5260619842   -0.0511415099
 C   -1.8765611671    0.0883338325   -1.3594230744
 C   -1.2425933283   -2.0811710933   -0.1289716449
 C   -2.5948054023   -2.7894338740   -0.0228895800
 C   -0.4750962982   -2.5257008141   -1.3569967236
 O   -0.8661267165   -3.3352985235   -2.1609366602
 H    0.8099280256    2.0143884909    1.0240744247
 H   -0.3025381973    2.1558695791   -0.3474459826
 H   -0.9426199322    1.8972038603    1.2823384776
 H    0.7569070233   -0.0896356028   -0.3219065401
 H   -0.1459069896   -0.2384593794    2.3286898103
 H   -2.0896074921   -0.3180919427    0.7396221332
 H   -2.1733103992    1.1315658657   -1.2262012618
 H   -1.1171573454    0.0570546261   -2.1493722357
 H   -2.7511377146   -0.4556847102   -1.7262504402
 H   -0.6119569462   -2.3701012946    0.7241298418
 H   -3.2603339581   -2.5207629497   -0.8481684074
 H   -2.4655345735   -3.8736205744   -0.0597849261
 H   -3.0911179361   -2.5306505929    0.9174227821
 H    0.5275356229   -2.0555307868   -1.4795236092