19

 C   -0.0358424610    1.3939005020    1.2518102883
 C   -0.1796438801    0.3348398091    0.1401267188
 C    1.0548938440   -0.5863082219    0.0751030869
 C   -1.4084386777   -0.4396383839    0.3161435378
 C   -2.4079325688   -1.0889096987    0.4956370894
 C   -3.6465761086   -1.8530061653    0.6827668682
 O   -4.1318385895   -1.8344818133    1.9982152883
 C   -4.6937222102   -1.2770466267   -0.2768825064
 O   -5.7397367117   -0.8408751140    0.1301640427
 H    0.8635970785    1.9946625790    1.0846512925
 H   -0.9004574319    2.0620182570    1.2741016023
 H    0.0474325622    0.9140657849    2.2315212082
 H   -0.2557653967    0.8645182179   -0.8199366436
 H    1.1783908679   -1.1306893507    1.0161735727
 H    0.9589145599   -1.3188881610   -0.7305345171
 H    1.9584858790    0.0056871308   -0.1011609391
 H   -3.4700341265   -2.8971362905    0.3691756002
 H   -4.9696769006   -1.3456123425    1.9541576677
 H   -4.4192383882   -1.2714863322   -1.3488602077