18

 C    0.0026191297    1.6030817369   -0.0242934397
 C    0.0661327856    0.0930475249    0.0020924611
 C    0.5559414171   -0.6818006051   -1.2589776051
 C    0.5173355778   -1.9935159047   -0.9746526210
 C    0.0011310445   -1.9547110258    0.4591323872
 C   -0.4693854392   -2.4533014349    1.8379639175
 N   -0.6092460842   -0.9289680461    2.0225254629
 C    0.6664091002   -0.7465373057    1.1624875117
 C   -1.0594095234   -0.8299270919    0.5434053989
 H    0.9902214906    2.0379199442   -0.2144243351
 H   -0.6730084469    1.9575347585   -0.8107305175
 H   -0.3590945800    1.9925903745    0.9320910367
 H    0.8643984660   -0.2093986831   -2.1824960035
 H    0.7812421049   -2.8361231919   -1.5968352046
 H   -1.4233570117   -2.9865540032    1.8964134234
 H    0.2720656426   -2.9046319737    2.5045877611
 H    1.6588195859   -0.7041953668    1.6198859856
 H   -2.1156650396   -0.8865679060    0.2659150602