18

 C   -0.0380098761    1.4163110089    0.0887589079
 N   -0.0411441018   -0.0332822053    0.0370619837
 C    0.5024438509   -0.6057769767   -0.9560791016
 N    1.1584623181   -0.0315665025   -2.0614888158
 C    1.6928287761   -0.9597579434   -2.9281343143
 O    2.2893211904   -0.7387604986   -3.9518148882
 C    1.3669283131   -2.3167350805   -2.2990007901
 N    0.5535678333   -1.9713314388   -1.1567443758
 C    0.2037189286   -2.9209697949   -0.1282462539
 H    0.9613736791    1.8577489559   -0.0589798869
 H   -0.7134609401    1.8645854149   -0.6564921826
 H   -0.3877411988    1.7406771725    1.0722749513
 H    1.2126111184    0.9600632835   -2.2241499397
 H    0.8446260222   -2.9548639636   -3.0227730415
 H    2.3036843787   -2.8253310985   -2.0232885424
 H    1.0941223066   -3.3433821744    0.3600549716
 H   -0.3942279965   -2.3999168075    0.6198824110
 H   -0.3820996722   -3.7452021311   -0.5502066426