12

 N   -0.1298918379   -1.1747120699   -0.1028836220
 C   -0.0487045532   -0.0244860237   -0.0321248728
 C    0.0167932860    1.4086816706    0.0321101418
 C    0.5123448261    2.1131318318    1.2913281681
 C    0.9250027716    1.3598248779    2.4422544946
 N    1.2438327635    0.7781874638    3.3881205150
 C    1.3603452920    2.1314123019    0.0232571814
 C    2.5915362730    1.3957451925   -0.0498339102
 N    3.5949440922    0.8285941412   -0.1281380606
 H   -0.7843335837    1.9143439760   -0.4962772180
 H    0.0119852582    3.0462985698    1.5269603828
 H    1.3744632522    3.0756318680   -0.5105151501