19

 O    0.1750709548    1.3631841695    0.3264827624
 C    0.0121401552   -0.0392575872    0.2825266384
 C   -1.4111616909   -0.4950928335    0.1644657102
 C   -2.5151124884    0.2525729614    0.2292102881
 C   -3.7611508661   -0.5642851464   -0.0587865092
 O   -4.2272224934   -0.3458852457   -1.3886010982
 C   -3.2605441421   -2.0068789291    0.1782039107
 C   -1.7660667445   -1.9415769984   -0.1616013878
 O   -1.6389764682   -2.1980045361   -1.5730115686
 H   -0.2493781999    1.7283127433   -0.4574751084
 H    0.6113871817   -0.4876366547   -0.5330466515
 H    0.4514950346   -0.4214411796    1.2138319703
 H   -2.5399700630    1.3250667075    0.3830869431
 H   -4.6057081327   -0.3036777120    0.5854279173
 H   -3.5208469249   -0.6540646322   -1.9712152026
 H   -3.3826798293   -2.2791535419    1.2308606213
 H   -3.7905409758   -2.7361041363   -0.4378487569
 H   -1.1673989866   -2.6722812459    0.4000402590
 H   -0.7193318604   -2.0671063027   -1.8264729176