15

 C    0.0120481947    1.5623739244    0.0523913721
 C    0.0948293155    0.0550268538    0.0680792377
 C    1.3336735740   -0.7291621859   -0.1441236907
 O    2.4842464926   -0.0279886232    0.3729289141
 C    1.9801209359   -0.1129909513    1.6732187974
 N    2.4828229864    0.1995048358    2.7709277077
 C    0.6936005273   -0.7613270249    1.2483162472
 C   -0.0303324598   -1.7731420248    1.9359835192
 N   -0.6348906385   -2.5962981351    2.4794537714
 H    0.9459838097    2.0192997867    0.3838700697
 H   -0.1944069850    1.9114004656   -0.9643681339
 H   -0.7958311020    1.9097788233    0.7019869930
 H   -0.7843990809   -0.4606510409   -0.3138546314
 H    1.5138398284   -1.5314511324   -0.8466340315
 H    3.4185781317    0.5935785490    2.6657018679