12

 O    0.0814572495    1.3398941031    0.0307291706
 C    0.0606534332    0.0115292401   -0.0445213301
 N   -0.0097947070   -0.6039392301   -1.1975834434
 O   -0.0052842140   -1.9733444709   -0.7978871498
 C    0.0666356044   -1.9684590276    0.5236822110
 N    0.0902689041   -3.1443028201    1.2302098823
 C    0.0469749625   -4.4433608727    0.7361614670
 O   -0.0202615696   -4.7491688201   -0.4215709175
 N    0.1113344307   -0.7845238613    1.0714937903
 H    0.1352845555    1.5742074261    0.9652393267
 H    0.1462711713   -3.0179995448    2.2306613950
 H    0.0829061496   -5.1675487616    1.5714082878