19

 C   -0.0168836737    1.5076178853   -0.1572741053
 C    1.3043071668    0.8026956006    0.0056590937
 C    0.0172775195    0.0081639208    0.0324547712
 C   -0.4506100417   -0.6282975871    1.2844226731
 N   -0.2717109835   -2.0749055740    1.5649835541
 C   -1.6317842480   -1.4747123260    1.5796945318
 C   -1.8345071060   -0.7358318892    2.9400251804
 N   -0.6093870718   -0.8957067964    3.7600166703
 C   -0.6492532403    0.1036527664    2.6650952280
 H   -0.3729726713    2.1224224020    0.6619100859
 H   -0.2848602073    1.8854385730   -1.1376700488
 H    1.9513294051    0.7041531770   -0.8587209357
 H    1.8316898643    0.9255680981    0.9455106763
 H   -0.1957462605   -0.5823411422   -0.8558485587
 H   -0.1704089575   -2.5286926574    0.6555706166
 H   -2.4209913215   -1.8281683550    0.9283426487
 H   -2.7886373583   -0.4747806693    3.3784267575
 H   -0.7762654466   -0.3738592455    4.6218133955
 H   -0.4825695077    1.1566267488    2.8514390254