21

 C    0.0008368530    1.5764891253    0.1535784705
 C   -0.0063596945    0.0610180436    0.0318659504
 C    1.0299823004   -0.6523168357   -0.9281428176
 C    1.2052948743   -1.7748590448    0.1593265868
 O    0.3172208443   -2.8658998351   -0.0636587424
 C    2.5377699537   -2.1911758318    0.8192021240
 C    2.3206787171   -1.8418248642    2.3276351062
 C    1.2590387425   -0.7433015995    2.2886552209
 C    0.6220896527   -0.7789448087    1.1236966982
 H    1.0038894254    1.9434707457    0.3961210017
 H   -0.3183067148    2.0486045010   -0.7819001295
 H   -0.6789672491    1.9123572611    0.9440640657
 H   -1.0108657878   -0.3016711669   -0.2125944372
 H    0.6524963651   -0.9763777970   -1.9024458824
 H    1.9326365519   -0.0488056257   -1.0587506344
 H    0.6339541068   -3.3408065745   -0.8397941772
 H    2.7687061652   -3.2475734215    0.6537776073
 H    3.3687783961   -1.5970625229    0.4248307276
 H    1.9913414560   -2.7151523931    2.9059125197
 H    3.2444162061   -1.4896328420    2.7995987871
 H    1.1399746354   -0.0144016932    3.0828552747