16

 O    0.0009635944    1.4558534269    0.1747452686
 C    0.0607916606    0.0609499222    0.0104565406
 C    0.2852423368   -0.7566046420    1.3156335171
 N   -1.1550002315   -1.1372604785    1.3140756778
 C   -1.3820782564   -0.5539080112   -0.0233655483
 C   -2.6110475257    0.2865761824    0.1358693166
 C   -3.0255172093    0.2268603965    1.4055006038
 C   -2.0245844204   -0.5148084380    2.2296996927
 O   -1.9044232350   -0.5332735461    3.4331104095
 H    0.8826033025    1.7733727222    0.3971946905
 H    0.6942949548   -0.2251764938   -0.8389280482
 H    0.9460575516   -1.6215138124    1.2118426226
 H    0.5689323960   -0.1725991080    2.1954061264
 H   -1.4930845580   -1.3068674073   -0.8126156098
 H   -3.0971977680    0.7952788834   -0.6867261949
 H   -3.8948800326    0.6962265938    1.8445477149