21

 C    0.3758867093    1.5022084834    0.1190748514
 O    1.2910776029    0.4297010399   -0.1110051624
 C   -0.0998128355    0.1142824377    0.0237933654
 C   -0.5240533977   -0.6838410275    1.2157557241
 C    0.2766983528   -0.5194528317    2.5355418278
 C    0.4230886488   -2.0671629693    2.6488076669
 C   -0.3567174758   -2.2541718207    1.3219030010
 C   -1.8903400469   -2.4047269770    1.4850182869
 C   -2.0607273930   -0.8576823111    1.4056621203
 H    0.4521056126    1.9758359889    1.0968438031
 H    0.2328850008    2.1842335495   -0.7179358934
 H   -0.5678683095   -0.1859576218   -0.9170342784
 H    1.2338830470   -0.0187582832    2.3754550511
 H   -0.2552153573   -0.0182482468    3.3494735516
 H    1.4605860331   -2.4054510426    2.6009789242
 H   -0.0450302571   -2.5282578814    3.5236728310
 H    0.1245983983   -2.8519073650    0.5461679783
 H   -2.3699500729   -2.9307971094    0.6557265833
 H   -2.2151283407   -2.8773763072    2.4166966131
 H   -2.4711025875   -0.3671817951    2.2929336007
 H   -2.6445505316   -0.5288098596    0.5405802439