23

 C   -0.2759413237    1.5280901151    0.0353362673
 C    0.0143828040    0.0232620351   -0.0326214103
 C    0.7522903763   -0.4498246102   -1.3231869485
 C    2.1407925559   -0.8938991811   -0.8428469985
 C    2.9173717188    0.3028939835   -0.2066161652
 C    2.3709310218   -0.1205798875    1.1564428788
 C    1.9248828409   -1.4648457392    0.5897576610
 C    0.8937383918   -0.5062354552    1.1111964696
 C    0.2385664288   -0.7659316142    2.4487148635
 H    0.6411050862    2.1216524344   -0.0234169106
 H   -0.9304587493    1.8394822767   -0.7858008545
 H   -0.7785190430    1.7900835712    0.9730018003
 H   -0.9508126029   -0.4961239854    0.0327323157
 H    0.2206918625   -1.2933737897   -1.7775864625
 H    0.8155418194    0.3393553064   -2.0807602756
 H    2.6980212158   -1.4951602539   -1.5616253214
 H    3.9988355238    0.1449119403   -0.2537098261
 H    2.6942713809    1.3075647041   -0.5831719688
 H    2.8433878174    0.0799581324    2.1123925199
 H    2.0951740213   -2.4723817415    0.9477950049
 H    0.9466835926   -1.1966061572    3.1642201967
 H   -0.1525311804    0.1580716406    2.8904073646
 H   -0.6001600989   -1.4650055547    2.3483984198