18

 C   -0.0067440180    1.5446455051   -0.0383615441
 C   -0.0017198237    0.0898673927    0.0179188257
 C    0.0096489462   -1.1143188748    0.0630699855
 C    0.0062936047   -2.5648017326    0.1208867224
 C    0.1017442865   -3.3152661135    1.4473698659
 C   -1.2701887011   -3.4853528586    2.0104430225
 C   -2.2722770800   -2.8496283954    1.0637177544
 C   -1.3197154733   -3.3651788286   -0.0283815794
 N   -0.7650790304   -4.4407001754    0.9596585158
 H    0.8792904607    1.9265276648   -0.5574938411
 H   -0.8884364275    1.9184144848   -0.5707906940
 H   -0.0172453887    1.9822812748    0.9660418280
 H    0.7457744488   -2.9858724108   -0.5689968665
 H    0.9967777376   -3.5021892025    2.0296256711
 H   -1.4269840013   -3.8123180464    3.0321684138
 H   -3.2113899409   -3.4082828801    1.0608351235
 H   -2.4672274689   -1.7749384528    1.1187458006
 H   -1.6749782407   -3.6640279007   -1.0121508844