18

 O    0.2445792777    1.5246442132   -0.3374168872
 C    0.0006307058    0.1777277222    0.0141862548
 C    0.8647000293   -0.6608869879   -0.9421487742
 C    2.3309901882   -0.3180595732   -0.7762239973
 O    3.0961624372   -0.9642181539   -0.1038261245
 C    0.1615292528   -0.2354887207    1.5093127623
 C   -1.1238541681   -1.0959420454    1.3708174733
 C   -1.4769791132   -0.3099827001    0.0790364673
 H   -0.2359170197    2.0876235233    0.2780465288
 H    0.7273469078   -1.7247525596   -0.7324065777
 H    0.5475657851   -0.4446757551   -1.9688136887
 H    2.6645616190    0.6019745062   -1.3001158963
 H    1.0934903816   -0.7266730505    1.7956644986
 H    0.0024552728    0.6275622415    2.1647834245
 H   -0.8993314164   -2.1462678031    1.1699001825
 H   -1.8424959457   -1.0502177652    2.1906325809
 H   -2.1447879558    0.5332067016    0.2859652282
 H   -1.8684435983   -0.8605144132   -0.7804787054