20

 O    0.0522406190   -0.3612527086   -0.3853743217
 C    0.0441416922    0.8332866122   -0.2363853105
 C    1.2831718979    1.6966939828   -0.1697103390
 C    1.2964702866    2.9314136623   -1.0726646567
 C    0.4405087172    2.9669632734   -2.2898453683
 N    0.1247874223    3.8190338531   -1.1271194615
 C    2.6257029553    3.6377110908   -1.0638292051
 C    2.7418680526    5.0903680881   -1.4369695422
 C    2.9252327371    4.6682053580   -0.0008500935
 H   -0.9241488210    1.3743958949   -0.1109499103
 H    1.3906359636    2.0340166678    0.8730342252
 H    2.1436082610    1.0578787862   -0.3917081805
 H    0.7780444980    3.5074213454   -3.1694258256
 H   -0.2014902187    2.1148575658   -2.5017736297
 H   -0.6576613220    3.4371615559   -0.6032881418
 H    3.4537100136    2.9965998592   -1.3563886088
 H    3.6143296265    5.3998709139   -2.0014347375
 H    1.8231763120    5.6113225408   -1.6792904667
 H    2.1235533618    4.9176560389    0.6861792462
 H    3.9188761252    4.6932924988    0.4321524680