19

 C   -0.0215780976    1.5294068976    0.0587748846
 C   -0.0085927608    0.0028438524    0.0021788961
 C   -1.3804442187   -0.5976057549    0.3041906777
 C    0.7041929795   -0.5968881138   -1.2502374114
 C    1.7590117710   -1.1585195885   -0.2804238504
 O    2.7578069344   -1.8069536258   -0.3763880265
 N    1.0852919095   -0.6018961916    0.8179027964
 C    1.2897280397   -0.5722465965    2.1841812921
 N    2.2770545789   -1.1349367520    2.7509687422
 H    0.9707229396    1.9379153275   -0.1522969077
 H   -0.7248276545    1.9296919022   -0.6783318966
 H   -0.3359948237    1.8873251370    1.0450375307
 H   -2.1161204558   -0.2480591760   -0.4270533601
 H   -1.3470441861   -1.6900964183    0.2663254767
 H   -1.7337168006   -0.3005380811    1.2974828345
 H    0.1420025477   -1.3630532168   -1.7878972270
 H    1.0974731596    0.1331379235   -1.9605464410
 H    0.4968407726   -0.0076486777    2.6931792980
 H    2.2295520055   -0.9869840573    3.7579270717