17

 C    0.0427012661    1.3870148087   -0.2508039665
 N   -0.1647550446   -0.0475552276   -0.2875162128
 C   -1.2649151368   -0.6389107149    0.2458205128
 O   -2.1675436842   -0.0522811518    0.8167053328
 C   -1.2562057303   -2.1577897984    0.0952789228
 C   -2.6144825444   -2.8494679413   -0.1955401717
 N   -2.0111210222   -3.3375170446   -1.4488058491
 C   -0.8142862804   -2.7004990132   -1.2853705076
 O    0.1693635195   -2.5712232348   -1.9730339685
 H    1.0308082346    1.6279147602    0.1546073806
 H   -0.0425299416    1.8313857681   -1.2492024671
 H   -0.7257664986    1.8166327195    0.3927197710
 H    0.4460643501   -0.6242895088   -0.8519369291
 H   -0.6964294548   -2.6002021541    0.9234596027
 H   -2.9018526550   -3.6437423555    0.4976077016
 H   -3.4406014238   -2.1485260796   -0.3320464095
 H   -2.4014822433   -3.8209764017   -2.2439771423