20

 C   -0.0862427616    1.5408174241    0.0127579409
 C    0.0773908907    0.0391321751   -0.0263289483
 C    0.7156258648   -0.6349884085   -1.2672562767
 C   -0.4014471603   -1.6693421869   -1.0237138444
 C   -0.0093544093   -2.7282449858    0.0073217813
 C    0.9072966782   -2.0874269692    1.0775070326
 C    0.6003835943   -0.5822745015    1.2787236069
 O   -1.1796945085   -0.6524698202   -0.3312494240
 H    0.8858482260    2.0316949007    0.1294140713
 H   -0.5508598104    1.8987748014   -0.9102183929
 H   -0.7211513178    1.8389955582    0.8541136513
 H    0.5397209424   -0.0509480235   -2.1725743028
 H    1.7588151538   -0.9551579487   -1.2222291649
 H   -0.9373971296   -2.0796567320   -1.8842391769
 H   -0.9349867956   -3.1077092577    0.4537420702
 H    0.4946437635   -3.5774141786   -0.4692663222
 H    0.8331769702   -2.6257025065    2.0270278874
 H    1.9490457647   -2.1923221854    0.7557796597
 H    1.4961668243   -0.0582340105    1.6328260768
 H   -0.1804883998   -0.4387504545    2.0339654847