13

 O   -0.0898063251   -0.0566258200   -0.0007541094
 C   -0.0389337653    1.1489451225    0.0080604638
 N    1.1512859676    1.8617013856    0.0001650710
 C    2.4441248559    1.2904031560   -0.0188238027
 C    3.3859096065    2.2340606450   -0.0225326984
 C    2.7389758005    3.5932897759   -0.0051409812
 C    1.2409676583    3.2753985315    0.0102564559
 O    0.3022239717    4.0272065737    0.0258122653
 H   -0.9101404872    1.8210488668    0.0231327957
 H    2.5176804395    0.2140816384   -0.0278394794
 H    4.4507497487    2.0580157146   -0.0361747721
 H    2.9933516689    4.1960368809    0.8745521201
 H    2.9727800099    4.2087354590   -0.8817495087