23

 C    0.0920086006    1.5512294053   -0.0087838569
 C    0.0071356199    0.0223792953   -0.0048840797
 C   -1.4340222363   -0.4969883625    0.0119654194
 C   -1.5081807722   -2.0286856140    0.0331558746
 N   -2.8729508671   -2.5469816336    0.0189316075
 C   -3.5349020075   -2.7275785926   -1.2589555564
 C   -3.4856488637   -2.7738907371    1.2273336743
 N   -4.7647521866   -3.3294746737    1.1581541638
 O   -2.9749314648   -2.4762576528    2.2961544170
 H    1.1313454806    1.8942880192   -0.0184985331
 H   -0.4065077093    1.9730750663   -0.8887213957
 H   -0.3911897239    1.9744217818    0.8784897960
 H    0.5295935018   -0.3757095778   -0.8856244641
 H    0.5424578937   -0.3718875657    0.8687226211
 H   -1.9581300989   -0.1210225995    0.8978634947
 H   -1.9736505664   -0.1108281796   -0.8639543027
 H   -0.9762642778   -2.4483084637   -0.8300658116
 H   -1.0257505424   -2.4026215681    0.9386286919
 H   -3.4118456983   -3.7436769134   -1.6649118140
 H   -4.6026086510   -2.5106149746   -1.1742602577
 H   -3.1155633503   -2.0285558109   -1.9876890383
 H   -4.9438405394   -4.0132858504    0.4381262257
 H   -5.0742997707   -3.6225365580    2.0730767344