20

 C   -0.1381438930    1.5490327493    0.0326978351
 C   -0.0140173885    0.0213866261   -0.0157180836
 C    0.7794704002   -0.5181090219    1.2002160074
 C    2.1494181442   -0.0135167797    1.2625161226
 N    3.2324599082    0.3887627371    1.2936651290
 C   -1.3832262167   -0.6825094788   -0.0758730025
 C   -2.1583105518   -0.3920460996   -1.3393391060
 C   -3.6258615668   -0.3964883089   -1.3745093033
 O   -2.8970773752    0.8319840360   -1.3913130136
 H    0.8484595213    2.0200886666    0.0629207456
 H   -0.6768097655    1.9280194573   -0.8377289269
 H   -0.6928132168    1.8649078067    0.9240876828
 H    0.5488728570   -0.2553643788   -0.9172674811
 H    0.2665251650   -0.2452749418    2.1310526964
 H    0.8206024741   -1.6131986729    1.1720504919
 H   -1.2369903171   -1.7696100324   -0.0102297330
 H   -1.9929731088   -0.3874518810    0.7874955466
 H   -1.6333248634   -0.6247446269   -2.2685710709
 H   -4.1469975485   -0.6456590403   -2.2975540306
 H   -4.1819928577   -0.5965603859   -0.4593400460