20

 C    0.0046176655    1.5775309559    0.1091702440
 C   -0.0866249696    0.0666466797   -0.1034384920
 C    0.6129409739   -0.3803086648   -1.3857418093
 O    0.7640727059    0.3540638997   -2.3444611207
 N    1.0340783262   -1.6864676704   -1.3803795072
 C    1.6558389671   -2.3166348896   -2.5100198505
 C    2.9641528223   -3.1136457495   -2.2915068086
 O    2.4164573124   -4.2614510936   -2.9686274722
 C    1.1018352479   -3.6733743400   -3.0088195762
 H    1.0384520610    1.8887591845    0.2851970990
 H   -0.3506868536    2.1037754798   -0.7788540796
 H   -0.5961851704    1.8846239888    0.9695661939
 H    0.3191296413   -0.4791663957    0.7569626804
 H   -1.1385811931   -0.2376189133   -0.1896822979
 H    0.8796856650   -2.2372676108   -0.5503798103
 H    1.7281620773   -1.5594751698   -3.2893349363
 H    3.8695180153   -2.7348477802   -2.7780031803
 H    3.1849275425   -3.3214671092   -1.2338098116
 H    0.4090028181   -4.1557273125   -2.3030443922
 H    0.6642924150   -3.6979607893   -4.0127181224