20

 C    1.0615661730   -0.5707831443    1.0866034011
 C   -0.1690368825   -0.5480311919    0.2040226150
 O   -1.2768710527   -0.3549738485    0.6631783216
 C   -0.0022218154   -0.8176328944   -1.2756877429
 C    1.3030722072   -0.4755505811   -1.9681670077
 C    1.4947272224    1.0352224855   -2.1539372824
 O    2.7187937184    1.3504886750   -2.7967124260
 C   -0.8324192016   -1.9812775699   -1.7431349246
 N   -1.2171892950   -0.6177297961   -2.0825624227
 H    1.6066022964   -1.5129860748    0.9626880528
 H    1.7529273400    0.2335629792    0.8142601228
 H    0.7590546963   -0.4518406468    2.1272865515
 H    2.1588719815   -0.8856381580   -1.4213261662
 H    1.3024461860   -0.9497249057   -2.9567194976
 H    0.6292928739    1.4428697910   -2.6947195476
 H    1.5352529424    1.5410954406   -1.1823778948
 H    2.6603265603    1.0421537904   -3.7065635890
 H   -0.4580817610   -2.5856679109   -2.5654789854
 H   -1.4155078291   -2.5147040333   -0.9974555004
 H   -1.9524951306   -0.3208224460   -1.4393481475