21

 C   -0.0982412843    1.2765973076   -0.5405853523
 O   -0.0902560926    0.0169383534    0.0871700612
 C   -1.3284838851   -0.6486269155   -0.0019008960
 C   -1.1806710476   -1.9985932349    0.7078931991
 C   -2.4094306737   -2.7803366068    0.6828523858
 C   -3.4359122993   -3.4074412765    0.6415258967
 C   -4.6768811027   -4.1691339570    0.6263653853
 O   -4.8421675416   -4.8142121174   -0.6227248364
 C   -6.0318972777   -5.5655194322   -0.6744173202
 H    0.8976660907    1.7093345445   -0.4188370448
 H   -0.3221897302    1.1960068976   -1.6161123509
 H   -0.8386187807    1.9547659947   -0.0872224611
 H   -2.1287660970   -0.0577375517    0.4728558312
 H   -1.6177749513   -0.8053445977   -1.0536410983
 H   -0.3649488717   -2.5559582522    0.2319347687
 H   -0.8669493783   -1.8160265371    1.7428731385
 H   -4.6688291251   -4.9131607737    1.4426886214
 H   -5.5317386255   -3.4986088292    0.8256110048
 H   -6.0809022809   -6.0260834653   -1.6635842225
 H   -6.0498852713   -6.3595242505    0.0895999015
 H   -6.9234534539   -4.9337249900   -0.5309612815