16

 C   -0.0753936616    1.5662957553   -0.0345012485
 C    0.0693723560    0.0626891233   -0.0669032278
 C    0.6229580881   -0.7462522103   -1.1724213999
 C    1.7721080285   -0.0225468932   -1.8958489317
 C    2.4446649958    0.0683239323   -0.4881734825
 N    1.3267920699   -0.6816886768    0.1760640048
 C    2.4975240027   -0.8343575423   -2.8579624662
 N    3.0758249659   -1.4794485112   -3.6234973521
 H    0.6568498967    2.0940917838   -0.6492577868
 H   -1.0698928577    1.8458126113   -0.3965480093
 H    0.0209108025    1.9356344068    0.9918484048
 H   -0.7365856201   -0.4464674142    0.4590146416
 H    0.1614505207   -1.6560403934   -1.5414978492
 H    1.4992122243    0.9236084446   -2.3735149993
 H    3.3624325431   -0.5159115766   -0.4234676139
 H    2.6264163652    1.0734771905   -0.0990860639