23

 C    0.0774645373    1.4919015648   -0.2625758463
 C   -0.0085410930    0.0152084057    0.1490799587
 C   -1.4205634975   -0.5103873491    0.1594050387
 C   -2.1229952883   -1.0070042609   -1.0857779125
 C   -1.9319691540   -1.9668766642    0.0659642864
 C   -1.1527227662   -3.2481961244   -0.0532473918
 C   -2.9559546593   -1.6692526907    1.1401353061
 C   -2.2920289645   -1.1680033288    2.3968619482
 C   -2.4510768562   -0.2242897782    1.2323604444
 H    1.1123773553    1.8481190947   -0.2479962591
 H   -0.3182949626    1.6418941141   -1.2725085947
 H   -0.5025825077    2.1241668043    0.4180148522
 H    0.6011765841   -0.5888606459   -0.5348636587
 H    0.4342732452   -0.1094933860    1.1461678666
 H   -3.1153213877   -0.6445204255   -1.3433377496
 H   -1.4794434909   -1.1793119194   -1.9453266611
 H   -0.2943211156   -3.1343652080   -0.7236287577
 H   -0.7756703580   -3.5780315169    0.9213454769
 H   -1.7762638931   -4.0554696478   -0.4566690755
 H   -3.9887663775   -2.0019332241    1.1348839146
 H   -2.9556612557   -0.9900467115    3.2383537870
 H   -1.3061714261   -1.5299568281    2.6782078855
 H   -3.0563476981    0.6730856759    1.3049558915