13

 N   -0.0130747796    1.3838379964    0.1602973312
 C   -0.0215361960    0.0081678759    0.0411980543
 N   -1.1358915767   -0.6546049090    0.0117028241
 N   -1.0256352054   -1.9995281491   -0.0127129771
 C    0.1425439460   -2.7610902521   -0.0279725274
 O    0.1019025802   -3.9707430454   -0.0449658506
 N    1.3194894049   -2.0073598961   -0.0288634953
 C    1.2325143091   -0.7249696653    0.0065287257
 O    2.3403674853    0.0306834926   -0.0061351495
 H    0.7912090469    1.8416116954   -0.2411483326
 H   -0.8947006803    1.8229510494   -0.0635533221
 H   -1.9006040725   -2.5019433381   -0.0238190808
 H    3.0927848981   -0.5800225746   -0.0438377499