16

 C    0.0029180505    1.5263723182    0.1105477974
 C   -0.0099555663    0.0316388108    0.0586254563
 C    1.1101638723   -0.8539853126   -0.3748181590
 C    0.5626771652   -0.9821411670    1.0680650707
 C    1.3544863297   -0.7837425836    2.2260395162
 C    2.0189726775   -0.6184658425    3.2155348413
 C   -0.7859074922   -1.7026830845    0.9381503598
 O   -1.2735893392   -2.7043011792    1.3699713299
 N   -1.2783422601   -0.7135944679    0.0680488677
 H    1.0009711942    1.8896133665    0.3706996400
 H   -0.2684526920    1.9562662312   -0.8603087531
 H   -0.7084306188    1.8895476157    0.8572866797
 H    0.9368226324   -1.6640949650   -1.0772855683
 H    2.0990197089   -0.4077138123   -0.4237660524
 H    2.5990835222   -0.4784229788    4.0937002734
 H   -1.8057851544   -0.9363396491   -0.7697881196