20

 C   -0.3766894665    1.3031033692   -0.0308758963
 O   -0.0591568710   -0.0776059122    0.0246592098
 C    0.7081424098   -0.5399430173   -1.0740557808
 C    1.1512302938   -1.9825794341   -0.7910373193
 C    1.6133623883   -2.2757709712    0.6324022889
 C   -0.0943449158   -2.7613431824   -1.2414943383
 O   -0.6396358278   -2.0056810674   -2.3392429507
 C   -0.1831150433   -0.7215855492   -2.2975840783
 N   -0.4807917500    0.1828278141   -3.1292993605
 H    0.5362015373    1.9176888209   -0.0263954521
 H   -0.9586929082    1.5530515717   -0.9249735731
 H   -0.9610183159    1.5252521347    0.8650139584
 H    1.5364497973    0.1471948358   -1.2861634873
 H    1.9589759076   -2.2083988522   -1.4984826939
 H    0.8420087839   -2.0021388068    1.3549177585
 H    1.8457704401   -3.3390099082    0.7527705665
 H    2.5174236469   -1.7086891047    0.8737789158
 H    0.1217624524   -3.7690548968   -1.6037576881
 H   -0.8421852871   -2.8193512851   -0.4419746948
 H   -1.1318925617   -0.1770566988   -3.8311682445