14

 O    0.3103286901    0.2866226231   -0.9965673639
 C    0.2854305640    1.3318636471   -0.4383993231
 C   -0.8158862581    2.3742565215   -0.1063810404
 C    0.3295015154    3.4104397156    0.1690967027
 C    1.4081946874    2.2755550254    0.1264403093
 C    1.9380965206    1.8638303520    1.4121090987
 N    2.3294017292    1.5341821684    2.4493290072
 C   -1.8266427276    2.6600248370   -1.0958885121
 C   -2.6444714897    2.9008620817   -1.9426843256
 H   -1.2737857599    2.0671680340    0.8440218667
 H    0.4550569480    4.1116189370   -0.6555442666
 H    0.2525108061    3.9523971499    1.1096752083
 H    2.2242735344    2.4260113834   -0.5853130483
 H   -3.3743560799    3.1088659540   -2.6858981729