17

 O   -0.0597161265    1.3481135657   -0.4095370215
 C    0.0638953955   -0.0315390342   -0.1250167584
 C   -1.2984541908   -0.6208678011    0.1916896558
 O   -2.2104618223   -0.4764853993   -0.9332513991
 C   -2.5580828907   -1.8753948789   -0.8982752539
 C   -1.7486877485   -2.7194843536   -1.9106305716
 C   -0.6950743523   -2.9436484604   -0.8016857417
 O    0.3291163970   -3.5570491375   -0.7431145960
 C   -1.5198670284   -2.1553793507    0.2347639634
 H   -0.7006858916    1.4224069529   -1.1267185246
 H    0.5271236152   -0.5781684261   -0.9603103213
 H    0.7256161350   -0.1258261458    0.7428181041
 H   -1.7202948369   -0.1189721998    1.0713798074
 H   -3.6325710617   -2.0436952622   -0.8161403802
 H   -2.2340928785   -3.6621514115   -2.1885063113
 H   -1.4188020782   -2.2044175672   -2.8156825988
 H   -1.7116143762   -2.6200101402    1.2004890677