20

 C   -0.0299127870    1.6254800994    0.1497222436
 C   -0.0041978331    0.0882051333    0.0457234379
 C    0.8367680233   -0.5249006248    1.1840565698
 C   -1.3804276541   -0.4987404945   -0.0322793178
 C   -1.9757679233   -1.3325602408   -0.9525631470
 N   -1.4204252099   -1.8479403464   -2.1378823007
 N   -3.2842621360   -1.5894593035   -0.6196567879
 C   -3.4955011884   -0.9262843986    0.4968467680
 N   -2.3832866904   -0.2630512638    0.9030547563
 H    0.9861591450    2.0330264601    0.1337083116
 H   -0.5924771269    2.0665504864   -0.6774889949
 H   -0.4959288607    1.9554840424    1.0863084546
 H    0.4785608622   -0.1685470591   -0.9053009214
 H    0.3975492807   -0.3009786919    2.1634657240
 H    0.8957129000   -1.6131884101    1.0906142322
 H    1.8556700352   -0.1229283682    1.1797085640
 H   -0.5691712701   -2.3727465629   -1.9768046213
 H   -2.0970300843   -2.4575534293   -2.5820293203
 H   -4.4239327048   -0.8940062503    1.0469395214
 H   -2.3000177174    0.3081646029    1.7265345379