14

 O   -0.0674785690    0.1773258950    0.8597651615
 C   -0.0557898779    1.1280518375    0.1351592916
 C   -1.3164668417    1.8009165348   -0.3823354197
 C   -1.1199196260    3.2073157637   -0.8626786678
 C    0.0760174199    3.6433163662   -1.2323666698
 C    1.2772744508    2.7356319413   -1.1569511109
 O    1.1524025482    1.6541251624   -0.2292603705
 C    1.6072349196    2.2009153046   -2.4958064504
 N    1.8546253802    1.8053463726   -3.5525312763
 H   -1.7095636218    1.1719080322   -1.1941728194
 H   -2.0558207644    1.7370503140    0.4206044872
 H   -1.9893957470    3.8552548976   -0.9114433251
 H    0.2507007680    4.6426019787   -1.6137544939
 H    2.1509788810    3.2986016294   -0.8091982565