15

 N   -0.0485640718    0.3196083348   -1.0758906828
 C    0.0696762384    0.0032418879    0.2359783690
 O    0.8168281608    0.5519975568    1.0205255413
 C   -0.8362559105   -1.1362741538    0.7056697687
 O   -1.6000248487   -1.6644212024   -0.3658185607
 C   -2.4873420168   -2.6900696788    0.0146773151
 C   -1.7835698536   -4.0300881021    0.2090836888
 O   -2.2748935888   -4.9678189426    0.7766759244
 H    0.5128358238    1.0666954168   -1.4483409612
 H   -0.6953064827   -0.1784396800   -1.6626667982
 H   -0.1942280233   -1.9002830846    1.1665598297
 H   -1.4909402332   -0.7393067319    1.4952625435
 H   -3.0564542646   -2.4394456779    0.9213445808
 H   -3.2057579764   -2.8120167812   -0.8059493380
 H   -0.7724260125   -4.0742470310   -0.2582336104