19

 O   -0.0214034650    1.4614622514    0.1326887194
 C   -0.0231365943    0.0742593324   -0.0162927955
 C    0.3552233322   -0.7593241957    1.2619524900
 C   -1.1317661637   -1.2310327956    1.4172869521
 C   -1.3660263339   -0.7349899061    0.0044745409
 O   -2.5906774491   -0.3120040927   -0.5638864807
 C   -2.1997788918   -0.8412161941   -1.8598556714
 C   -0.8944699879   -1.4489220250   -1.2923348889
 C    0.3788390854   -0.5594231978   -1.3765424370
 H    0.8929846956    1.7599746648    0.1981216747
 H    1.0667333915   -1.5690049086    1.0825739673
 H    0.7195883833   -0.1336615066    2.0785368056
 H   -1.3194089083   -2.2878724361    1.6247312265
 H   -1.6675116805   -0.6217776869    2.1510380799
 H   -2.9368467175   -1.5639250250   -2.2266048950
 H   -2.0676389872   -0.0460564830   -2.6034898529
 H   -0.7849758301   -2.5303480380   -1.3739127617
 H    0.3577784114    0.1565686792   -2.2037469506
 H    1.3328128398   -1.0949462465   -1.3940955928