20

 C   -0.4203911618    1.5512677898    0.3170025695
 C   -0.1364879381    0.0580212291    0.2312262764
 C    0.2765977219   -0.5097569379   -1.1329164660
 N    1.5704841889    0.1037914827   -1.4815029130
 C    1.5447501912   -1.0805796213   -0.5685874307
 C    2.2350717964   -2.2807585771   -0.8851133042
 C    2.8303927082   -3.2998960564   -1.1246477489
 C    1.2111686915   -0.5283373268    0.8342203869
 C    2.2302891992    0.3975379464    1.4810161307
 H    0.3766968545    2.1278350871   -0.1576626890
 H   -1.3621942145    1.7949206295   -0.1873515332
 H   -0.5107101533    1.8776775786    1.3584356422
 H   -0.9812520152   -0.5104109445    0.6317589622
 H   -0.3644198917   -0.9258085568   -1.9015413071
 H    1.8377550600   -0.2424446871   -2.4025416956
 H    3.3516475977   -4.1995274002   -1.3395121292
 H    0.9737315331   -1.3590380958    1.5044541119
 H    2.5444659394    1.1807171321    0.7874056730
 H    1.8169062408    0.8726402028    2.3770185891
 H    3.1198186118   -0.1649648842    1.7846037048