12

 O   -0.0415769831   -0.0136634008   -0.2295160857
 C    0.0007469428    1.1873997780   -0.0446788760
 C   -1.2248479503    1.9826805053    0.1906339113
 N   -1.3194870751    3.2477221645    0.3980265214
 O   -0.1264734285    3.9651477239    0.4035385069
 C    1.0421660932    3.3488999258    0.2016030511
 C    1.2088222746    2.0188655735   -0.0224857377
 C    2.4952960735    1.4625262964   -0.2255863726
 C    3.5829237309    0.9781642814   -0.3994324680
 H   -2.1748985656    1.4545059585    0.1930622486
 H    1.8604937601    4.0592262086    0.2397239755
 H    4.5387245975    0.5418657849   -0.5537266647