19

 C   -0.0112940625    1.5315928992   -0.0842349403
 C   -0.0269210572    0.0214017524    0.0403551385
 O    0.6394709769   -0.5343612899   -1.1146135384
 C    0.2468875415   -1.9050484629   -1.2133255038
 C   -1.1362308172   -2.0005661472   -0.5695271589
 C   -1.2609541583   -1.8511191289    0.9582616893
 C    0.0032920546   -1.6334281090    1.7267030117
 C    0.6602850523   -0.5637786855    1.2756880707
 C   -1.4155114029   -0.6649822966    0.0465553038
 H    1.0171910675    1.9016057284   -0.1266759388
 H   -0.5244273010    1.8443542003   -0.9983948637
 H   -0.5079571729    1.9904871107    0.7755630154
 H    0.2216033947   -2.1720046171   -2.2742922517
 H    0.9787244623   -2.5525278433   -0.7103704840
 H   -1.9154262864   -2.5519773572   -1.0836548243
 H   -2.1180371950   -2.3175543107    1.4311906550
 H    0.3390318590   -2.3013277268    2.5119205921
 H    1.6383830031   -0.2257899229    1.5976262762
 H   -2.3320290284   -0.1046795229   -0.0874074989