16

 O    0.1397935039    0.0051522559    0.3754453890
 C    0.0666640473    1.1869290850    0.1702006460
 C   -1.2143781455    2.0287078976    0.2432980857
 C   -0.7633396869    3.4791019265    0.4108901588
 O   -0.8770746184    3.8968149555    1.7974975770
 C    0.3898910155    4.1089029595    2.2246458023
 N    1.3658396329    3.9514671650    1.4330562098
 C    0.7870074015    3.5302920988    0.1428503012
 C    1.2201274003    2.1063918632   -0.2393579481
 H   -1.7507771450    1.8948493630   -0.7043862289
 H   -1.8751296040    1.6912818829    1.0437791824
 H   -1.3455726776    4.1854775253   -0.1825523263
 H    0.4653198803    4.4124503190    3.2630585680
 H    1.0622887526    4.2593299014   -0.6229524736
 H    2.1559310576    1.8084190193    0.2354751229
 H    1.3504384855    2.0052116320   -1.3244011961