18

 C   -0.0117166957    1.4891210533    0.0354694848
 C   -0.0529094733   -0.0112622025   -0.0125757584
 C   -1.3508102707   -0.8481922348   -0.0193220180
 C   -0.4419467583   -1.9240391342    0.6004253180
 C    0.7031553214   -2.2265380091   -0.3711944139
 C    1.6403197735   -1.3288481567    0.4016084171
 N    0.4556508105   -0.8245527073    1.2113969279
 C    1.0069159690   -0.7825657978   -0.8322426751
 O    1.6145652595   -0.4472356657   -2.0198364333
 H    1.0084929120    1.8406180516    0.2211924909
 H   -0.3435453581    1.9155718591   -0.9178501457
 H   -0.6586624011    1.8719138303    0.8302574128
 H   -2.0756302472   -0.4684135628    0.7063521213
 H   -1.8416735645   -1.0551132182   -0.9746797346
 H   -0.8220719143   -2.7056148484    1.2593191103
 H    0.9200786904   -3.0894311526   -0.9886435062
 H    2.6597616457   -1.4314913674    0.7503688779
 H    1.0553688711   -0.7367614069   -2.7496723557