20

 C   -0.4710412503    1.5001101358   -0.3766892605
 C    0.0176925903    0.1557848433    0.1647977887
 N    0.7449326367   -0.5680937838   -0.8885893333
 C    1.9663314792   -1.3157648613   -0.8030724371
 C    2.0082189643   -2.3489198913    0.3895914073
 O    0.8185432589   -2.2089578074    1.1735823652
 C    0.7558436528   -2.9488701654   -0.0500424362
 C    0.6766435428   -1.9433250982   -1.2789948586
 C    0.2017818685   -2.3694085242   -2.6357984238
 H    0.3703559088    2.1146836728   -0.7115128164
 H   -1.1403288853    1.3570642067   -1.2308538423
 H   -1.0148747185    2.0525746229    0.3974684306
 H    0.6710067693    0.3090736049    1.0281780881
 H   -0.8283388402   -0.4426148257    0.5151960934
 H    2.8448983565   -1.0051706024   -1.3602433378
 H    2.8828610993   -2.7826152917    0.8587696983
 H    0.3983289585   -3.9713580371   -0.0122661085
 H   -0.8884455257   -2.4906472223   -2.6507096449
 H    0.4701653148   -1.6179490380   -3.3825148856
 H    0.6450788993   -3.3281780679   -2.9276894663