23

 C   -0.1182048342    1.4967170792    0.0764160130
 C   -0.0288106017   -0.0307512411   -0.0168768151
 C   -1.3968685514   -0.6249657940   -0.3369557286
 C    1.1475243374   -0.4787307008   -0.9416573727
 C    2.0328224720   -0.6846613432    0.3133992401
 C    0.7636017623   -0.6399031664    1.1966519355
 C    0.7762853521   -0.0525967728    2.6204483691
 O    0.4293183444   -1.3223254649    3.2072568033
 C    0.3105205027   -1.9357554791    1.9090859925
 H    0.8498711351    1.9492014018    0.3167697802
 H   -0.4517598840    1.9170398573   -0.8789850396
 H   -0.8334730426    1.8113630335    0.8440904814
 H   -1.7850019917   -0.2056559144   -1.2725791944
 H   -1.3519085204   -1.7118110906   -0.4585207618
 H   -2.1274732182   -0.4045314051    0.4504245222
 H    0.9288476154   -1.4203012382   -1.4539143342
 H    1.4910447768    0.2464039367   -1.6844447980
 H    2.6283954995   -1.6003115729    0.3630532842
 H    2.6967673182    0.1638421546    0.5050121262
 H    1.7499177058    0.3135961346    2.9730885284
 H    0.0159228315    0.7128689324    2.8268331503
 H   -0.7182832191   -2.2611673660    1.7097847122
 H    0.9823089403   -2.7974710708    1.7973501156