17

 N    0.1844185786    1.3443484767   -0.3638703462
 C    0.1193254060   -0.0619972267   -0.0447135495
 C    0.1319534322   -0.5513028208    1.4012347258
 N    0.8802201267   -0.3758018747    2.3903119564
 O   -1.0587039393   -1.2450546324    1.2740725368
 C   -1.2665709758   -0.7549600149   -0.0812433417
 C   -2.5737210055   -0.0135161801   -0.3867588640
 O   -2.8945037543   -0.9517948935   -1.4366140061
 C   -1.7355326685   -1.7567057126   -1.1408523862
 H   -0.2134656213    1.9011760946    0.3865339172
 H    1.1505326599    1.6383787393   -0.4564877462
 H    0.8476909841   -0.6012614777   -0.6574042231
 H    0.5233160348   -0.8455199575    3.2244011557
 H   -3.2988145484   -0.0369825978    0.4358379575
 H   -2.4584461260    1.0077701031   -0.7661914049
 H   -1.0817382258   -1.8823734305   -2.0124363404
 H   -1.9975771573   -2.7397924845   -0.7302225311