18

 C    0.2767194555    1.4477868978    0.0077280015
 C    0.1151773091   -0.0368083023   -0.0426111062
 C    0.0194487415   -0.9090333418   -1.1112087754
 C    0.0579873634   -0.5531407841   -2.5802628620
 C    1.2945982073    0.0981772053   -3.0153146539
 C    2.3052902609    0.6427882471   -3.3728399245
 C   -0.1506831059   -2.2205278436   -0.5797051508
 C   -0.1553249649   -2.1186147969    0.7897700233
 N    0.0053080170   -0.7917908236    1.1013121004
 H    0.9515640891    1.7512259347    0.8168331348
 H    0.7058554387    1.8117234896   -0.9283638594
 H   -0.6770001700    1.9688284232    0.1653814017
 H   -0.0827137622   -1.4694847287   -3.1659648924
 H   -0.7888757022    0.0955016104   -2.8449094404
 H    3.2032097072    1.1127516101   -3.6886950097
 H   -0.2512404625   -3.1317723298   -1.1504293597
 H   -0.2515985328   -2.8656584360    1.5607307700
 H    0.0508046709   -0.4186619613    2.0337260627