20

 C   -0.0000474729    1.5274796835   -0.0714854232
 C   -0.0922818342    0.0016910530   -0.1504217092
 C   -1.4749579584   -0.5366278491    0.2434759406
 C   -1.5531038611   -2.0460651941    0.1599100988
 C   -2.8323971569   -2.8689998288    0.1510088686
 C   -3.8808200578   -2.2055907627   -0.7353305693
 O   -2.9349231100   -2.0743899217   -1.8310008720
 C   -1.9500849520   -2.7924789095   -1.0782571174
 H    0.9951067827    1.8833498244   -0.3562065766
 H   -0.7270672888    2.0019923121   -0.7398819144
 H   -0.2035233630    1.8855076528    0.9441217076
 H    0.1418305254   -0.3306298372   -1.1694691058
 H    0.6714141042   -0.4464201850    0.4994882770
 H   -1.7185701307   -0.2100738773    1.2635643109
 H   -2.2288150810   -0.0970194126   -0.4180585804
 H   -0.7675061632   -2.5672299427    0.7072341852
 H   -3.0152682766   -3.6838813265    0.8385797907
 H   -4.6960924936   -2.8810258658   -1.0181622597
 H   -4.2947370389   -1.2407532789   -0.4195003418
 H   -1.3531375633   -3.5267682238   -1.6078383996