17

 C   -0.1678578224    1.6928143916    0.0558384864
 C    0.0370347956    0.1838163543    0.0581735324
 C    0.7696592359   -0.3794289958   -1.2055817618
 C    2.0389979466   -0.4585395631   -0.3099538510
 N    1.1706426087   -0.3269341681    0.8776244428
 C    2.8365441390   -1.6847963531   -0.3669336221
 N    3.4692528767   -2.6496791872   -0.4300446970
 C   -1.2489370068   -0.5683998264    0.3798519334
 O   -2.3515520482   -0.0902966007    0.3338402737
 H    0.7391902622    2.2152502312   -0.2632472948
 H   -0.9863774236    1.9632743004   -0.6158493439
 H   -0.4388441614    2.0447649229    1.0565139932
 H    0.4152014550   -1.3644916021   -1.5128847433
 H    0.8194002913    0.2829938016   -2.0687707898
 H    2.7115921472    0.3918846225   -0.4816936458
 H    1.5093064139    0.2936731270    1.6053812813
 H   -1.0709769595   -1.6310518450    0.6573982963