14

 C   -0.0407195673    1.4857461448    0.0200164971
 C   -0.0006078617   -0.0049814177   -0.0271554973
 N   -0.0321466706   -0.7427234969   -1.1109059959
 C    0.0266241112   -2.0607254026   -0.6782358577
 C    0.0942064703   -2.0992816955    0.6960896038
 N    0.0762527052   -0.7870683569    1.0972002271
 C    0.0150151738   -3.1629264744   -1.5668669732
 C    0.0057401394   -4.1070699988   -2.3139214393
 H    0.8572132175    1.9029948873    0.4900642794
 H   -0.1030761035    1.8636971172   -1.0008678634
 H   -0.9089262989    1.8526318135    0.5794003186
 H    0.1512330459   -2.9191917165    1.3916708741
 H    0.1131675210   -0.4615017271    2.0488872770
 H   -0.0029007422   -4.9343568763   -2.9787219802