17

 C   -0.1934168316    1.6027983318    0.0456351580
 C   -0.0572868360    0.0897094139    0.0260794130
 O   -1.3262063562   -0.4450994165    0.3182908218
 C    0.6543991788   -0.5092923479   -1.2740509081
 N    1.7097919457   -0.9960949436   -0.3598824199
 C    2.8883467490   -1.5835161416   -0.0332508510
 N    3.0720006078   -1.5072554816    1.2762557856
 C    1.9900620061   -0.8377372734    1.8085972348
 C    1.1336155728   -0.5152401411    0.7818626481
 H    0.7480015308    2.0851040473   -0.2278067114
 H   -0.9730047042    1.9158243324   -0.6556888966
 H   -0.4803937283    1.9356056835    1.0464605811
 H   -1.2119506772   -1.3670365339    0.5735188778
 H    0.0907855283   -1.3076880434   -1.7622898610
 H    1.0092246404    0.2149797601   -2.0113358358
 H    3.5594949218   -2.0455010362   -0.7399490186
 H    1.9144063821   -0.6506208199    2.8678178123