14

 N   -0.0482294683    1.3570234661   -0.2990217001
 C   -0.0559920834   -0.0211385379   -0.1313604242
 C   -1.2315257964   -0.7132040306    0.0499686524
 N   -2.4747190902   -0.1154663345    0.1354363865
 C   -1.1605260719   -2.1434364753    0.1973837968
 O   -2.1099224480   -2.8973428490    0.3675687323
 N    0.1523437863   -2.6047168292    0.1066881544
 N    1.2768654866   -1.8991701825   -0.1054183231
 N    1.1697372044   -0.6321237139   -0.2127869609
 H    0.8882714277    1.7381120004   -0.2635570051
 H   -0.6853058636    1.8494678112    0.3148505812
 H   -3.2168235787   -0.8058442425    0.1188133675
 H   -2.6274064277    0.6488812893   -0.5098738925
 H    0.2988168934   -3.6032685317    0.1791514048