19

 C   -0.1095359412    1.6059119653   -0.0777968873
 C    0.2029064397    0.1177821252    0.0994680130
 C    0.7577554378   -0.5178036883   -1.1737769578
 C    0.8688041918   -2.0940494695   -1.1883960717
 N   -0.0887853290   -2.0697251475   -2.3163234324
 C   -0.8602826539   -2.5942604849   -3.3059564226
 N   -1.4643647284   -1.6133849517   -3.9551362173
 C   -1.0686677266   -0.4226936681   -3.3760180200
 C   -0.2056047744   -0.7102194539   -2.3472659641
 H    0.7870467931    2.1698443225   -0.3577044837
 H   -0.8586294168    1.7556905063   -0.8621396438
 H   -0.5015126175    2.0391253204    0.8469479326
 H    0.9310319485   -0.0166766537    0.9098565018
 H   -0.7064108865   -0.4177309118    0.3991321127
 H    1.6998404704   -0.0348785461   -1.4557220332
 H    1.8464818366   -2.5028063348   -1.4544601687
 H    0.4812847159   -2.5960112259   -0.2979595287
 H   -0.9573173436   -3.6478112099   -3.5151400035
 H   -1.4301914959    0.5240814462   -3.7443899353