17

 O    0.0138044360    1.4149212382    0.3118006686
 C    0.0113283567    0.0459552577   -0.0625721032
 C   -1.3602462637   -0.5447097638    0.0149629764
 C   -2.0640252070   -1.0832150597    1.2119187857
 C   -1.9094650939   -1.9786146943   -0.0191574469
 C   -2.8360902067   -1.4348704487   -1.1118141589
 O   -2.3140805353   -0.0897110300   -0.9519730626
 C   -1.2692137563   -3.2446380043   -0.0139271840
 C   -0.7379932259   -4.3250564914   -0.0234972374
 H   -0.5724800310    1.8760273523   -0.2983758279
 H    0.4099776765   -0.0928183982   -1.0784438557
 H    0.6744657059   -0.4744699207    0.6347907934
 H   -1.4298550654   -1.3699250717    2.0438569804
 H   -3.0459945384   -0.7019396962    1.4782331232
 H   -2.6005325513   -1.8262742699   -2.1062261802
 H   -3.9148391042   -1.4904404606   -0.9275515901
 H   -0.2666646560   -5.2763922086   -0.0285873809