16

 C   -0.0049216697    1.5138949159   -0.0895499949
 C    0.0187445064    0.0605478145   -0.0350472218
 C    0.0359696682   -1.1426669331    0.0094529491
 C    0.0538795113   -2.5968993018    0.0308604273
 O    1.0122132402   -3.1598009244   -0.8403484028
 C    0.1101870330   -3.2828302490    1.4204238586
 O   -1.2238203130   -3.8431960583    1.2122383827
 C   -1.3247481997   -3.2779636426   -0.0365511544
 N   -2.2107411455   -3.3451376972   -0.9167445547
 H    0.8674616157    1.9019020145   -0.6262878634
 H   -0.9025390809    1.8756712018   -0.6022521559
 H    0.0038439494    1.9467865347    0.9165464764
 H    0.7812543800   -2.8830542621   -1.7351547183
 H    0.8660567843   -4.0672053640    1.4847612640
 H    0.1317165050   -2.6209156140    2.2864710236
 H   -2.9884504147   -3.9426294450   -0.6312392154