18

 C   -0.1166061752    1.5759304109    0.0677242228
 C    0.0383643434    0.0664819654   -0.0235120395
 C    1.2015238835   -0.6072016870   -0.7967206526
 C    2.1837037155   -0.2072580966    0.3953499278
 C    0.8758868882   -0.7537807822    1.0160390425
 O    0.2692744032   -1.2587075133    2.2028356083
 C   -0.4635895087   -2.2991688341    1.6484599889
 N   -0.2670398945   -2.6794853786    0.4429000718
 C    0.9371138294   -1.9119190115    0.0537317736
 H    0.8135979611    2.1049745112    0.2882478507
 H   -0.5062136330    1.9739795367   -0.8757042573
 H   -0.8370041448    1.8342941947    0.8511682854
 H   -0.9283582633   -0.3933976614   -0.2406361179
 H    1.4373496076   -0.5192331570   -1.8562692699
 H    3.0743471080   -0.8279007961    0.5122857518
 H    2.4149338773    0.8507944052    0.5038388999
 H   -1.1901383681   -2.7278831695    2.3298531261
 H    1.8054864106   -2.5780480469    0.0937569475