13

 O   -0.0571719479   -0.0664232714    0.0039797053
 C    0.0328283558    1.1279227256    0.0089851321
 O   -1.1783783268    1.8700452236    0.0287497962
 C   -1.2092559266    3.2013988017    0.0359060152
 C   -0.0939024132    3.9816576796    0.0250996097
 C    1.1727989260    3.2946769761    0.0048112738
 C    1.2294708955    1.9435843635   -0.0027998934
 C   -0.1827709752    5.3985481804    0.0334648215
 C   -0.2348324498    6.6013019454    0.0402351307
 H   -2.2188242622    3.5953694665    0.0512722594
 H    2.0817349335    3.8866056729   -0.0042546840
 H    2.1668673043    1.4025360762   -0.0180107485
 H   -0.2882373134    7.6618691598    0.0462709318