23

 C   -0.9464601174    1.0035988929   -0.1072867466
 C    0.0429097937   -0.1543146826   -0.0045319137
 C    1.0682206100   -0.2316421083   -1.1729285137
 O    1.4594494822    1.0374690296   -1.7112140113
 C    2.2260250657   -0.9569835643   -0.5389141490
 C    2.1621680491   -0.9500796881    0.7969255414
 C    3.1670044629   -1.5298019721    1.7437744123
 C    0.9068610872   -0.2447350658    1.2914314831
 C    1.2270853004    1.0987316448    1.9721710862
 H   -0.4369230314    1.9688341533   -0.1499785629
 H   -1.5438814020    0.9153228300   -1.0205639339
 H   -1.6371110076    1.0122242824    0.7427502128
 H   -0.5225257467   -1.0934946879   -0.0537414808
 H    0.6385232206   -0.7614910291   -2.0301850920
 H    2.1151434849    1.4098159196   -1.1122152627
 H    3.0425807882   -1.3703287930   -1.1223716583
 H    4.0013363854   -1.9942692909    1.2114277420
 H    3.5770047899   -0.7646760505    2.4143850108
 H    2.7062979199   -2.2903049497    2.3871579356
 H    0.3927968884   -0.8685096855    2.0357221085
 H    1.7385774645    1.7850752358    1.2887717459
 H    0.3146423135    1.5921508256    2.3192057007
 H    1.8751267184    0.9542646538    2.8424744757