23

 C   -0.0875143650    1.6453805955   -0.1982927694
 C   -0.0878205321    0.1131138576   -0.1490318341
 C    0.8425134160   -0.5465746913   -1.1867238929
 C    2.3146945227   -0.1618710245   -0.9732212800
 C    0.6322993685   -2.1003885355   -1.2465862933
 C    1.2260636768   -2.8585642238   -0.0576130618
 O   -0.7531951559   -2.4089581303   -1.4244035764
 C    1.2554774505   -2.5872517898   -2.5551971868
 O    2.4061411548   -2.9104672512   -2.6963712108
 H    0.8863808439    2.0656098517    0.0688059325
 H   -0.3444083362    2.0075288505   -1.2000410562
 H   -0.8239700349    2.0537415264    0.5007006026
 H    0.1938795213   -0.2134170244    0.8609538912
 H   -1.1114020223   -0.2349930327   -0.3245060690
 H    0.5279868764   -0.1715894499   -2.1723815810
 H    2.6304878641   -0.3609927098    0.0567098940
 H    2.9790879304   -0.7176057744   -1.6389710261
 H    2.4666316416    0.9036687190   -1.1634792830
 H    0.8741261822   -2.4480046418    0.8941412555
 H    0.9305678166   -3.9100503878   -0.1116432333
 H    2.3161812109   -2.8115956880   -0.0765430135
 H   -1.1837542475   -2.3621997649   -0.5660200824
 H    0.5304068773   -2.5966433408   -3.3986119258