19

 C   -0.0436458602    1.4010195172    0.1291415048
 N   -0.0850393506   -0.0464962565    0.2866632517
 C   -1.1252072338   -0.6686473698   -0.0178764514
 O   -2.3399436560   -0.2174562995   -0.5139383427
 C   -2.8715962651   -1.5757545713   -0.5455025251
 C   -1.5331410994   -2.1351995785    0.0084794631
 C   -0.7402219937   -3.0177909522   -0.9557287186
 C   -1.6025202176   -2.7353817390    1.4128830075
 H    0.7781240551    1.6650096570   -0.5458471734
 H   -0.9712848422    1.8367414772   -0.2599671183
 H    0.1806523316    1.8609661780    1.0980253075
 H   -3.7419462222   -1.6698668488    0.1099206669
 H   -3.1317616344   -1.8697490771   -1.5662013832
 H   -0.7070236383   -2.5847310607   -1.9600524191
 H    0.2897342814   -3.1294758177   -0.6047538831
 H   -1.1881909290   -4.0150517635   -1.0264501488
 H   -2.0673468198   -3.7271208006    1.3884515579
 H   -0.5962456943   -2.8393167801    1.8289070297
 H   -2.1818790114   -2.1016992240    2.0911886546