17

 O   -1.0330246031    1.7212428555   -0.3397675759
 C   -0.0286785057    1.1792073260    0.0444061040
 C    1.3494200987    1.7608337262   -0.0742956635
 C    1.5486201783    2.9409918510   -0.9982796417
 C    1.4873214885    2.5453058825   -2.4592517990
 C    0.2566572470    2.6668964729   -3.2497441119
 O    1.3196042042    3.6154952704   -3.3865169477
 C    2.2326363185    1.5263131762    1.0927761116
 O    2.3706198333    0.7435114097   -0.0790098275
 H   -0.0392763877    0.1806967998    0.5347803990
 H    0.7739116069    3.6863757073   -0.7945614873
 H    2.5207347603    3.4012050726   -0.7922357026
 H    2.2229957569    1.7995277726   -2.7625218285
 H    0.1003768449    2.0168586714   -4.1092259537
 H   -0.6462523733    3.0358698104   -2.7686130222
 H    3.0229897800    2.2506841689    1.2824906265
 H    1.8576583724    0.9991745165    1.9694913402