18

 C   -0.2229322132    1.7233855466   -1.4041593318
 O   -0.1377933757    0.4279805858   -1.9953684377
 C    0.8933861925   -0.3357137452   -1.5626618219
 N    1.7311754614    0.0479983101   -0.7005429232
 N    0.8103911260   -1.5520550311   -2.2469424737
 C    1.6563303838   -2.6296015801   -2.1222148014
 N    2.6554179935   -2.6469838193   -1.3363832728
 O    1.2109306044   -3.5992791867   -2.9697007109
 C    1.9441916042   -4.8141706124   -3.0059012021
 H   -0.3438306436    1.6479434801   -0.3202780715
 H    0.6799788446    2.3041502463   -1.6106396244
 H   -1.0960028731    2.1956980787   -1.8568154955
 H    2.4155056217   -0.6881400569   -0.5301111472
 H    0.0516086509   -1.6494129660   -2.9020050699
 H    3.1705116036   -3.5192567426   -1.3695376390
 H    2.9783042685   -4.6471534836   -3.3290362842
 H    1.9427728667   -5.3108817929   -2.0286649789
 H    1.4364459738   -5.4477463608   -3.7336204939