16

 O    0.0839050446    1.4617027154    0.1664944147
 C   -0.0389549933    0.0838094827   -0.0279122143
 C   -1.3207465448   -0.6581132002    0.0290853978
 C   -2.4549403310   -0.0960091272   -0.8357077729
 C   -2.1530020668    1.1384689480   -1.5916106885
 N   -1.6511226358   -0.1647361703   -2.0993528284
 C   -0.4665711771   -0.6628104453   -1.2845675390
 C    0.3481748992   -1.6689110119   -1.8676160722
 C    1.0521299495   -2.5160038344   -2.3542631447
 H    0.9172317875    1.7394472812   -0.2309757374
 H    0.7547803696   -0.4897187884    0.4555684482
 H   -1.4795521048   -1.4769056844    0.7191746349
 H   -3.4448037247   -0.5381542038   -0.8007246569
 H   -2.9507914917    1.5104589795   -2.2293741978
 H   -1.4751575626    1.8796984129   -1.1988992231
 H    1.6635879422   -3.2669125838   -2.7894558505