12

 O   -0.0549638820   -0.0530327503    0.0042407887
 C    0.0168991069    1.1422748368    0.0091816053
 O   -1.1912853793    1.8743101492    0.0296560160
 C   -1.2192011299    3.2123306515    0.0366170090
 C   -0.1133585810    3.9823472307    0.0249309958
 C    1.1588485521    3.3141697796    0.0038413101
 C    1.2198774697    1.9536101609   -0.0036954426
 C    2.3603037487    4.0945471704   -0.0091552052
 N    3.3203889278    4.7398429124   -0.0194387626
 H   -2.2318994020    3.5977906541    0.0526756898
 H   -0.1855764549    5.0599000237    0.0312361297
 H    2.1590343439    1.4173970511   -0.0194885540