18

 C    0.3299766655    1.0684024738   -0.7043668728
 C   -0.0870652453    0.1013935744    0.4012135540
 O   -0.0395473376    0.7152276986    1.6930138006
 C   -1.4326405120   -0.5335932579    0.1849753762
 C   -2.2786462369   -0.4585901340   -0.8466193310
 C   -3.4709951728   -1.2650333878   -0.5600496593
 N   -4.4779392790   -1.4293919691   -1.3102321773
 O   -3.3124493156   -1.8232343566    0.6872853240
 C   -2.0554114168   -1.4196151977    1.2346046552
 H    1.3022522207    1.5035418535   -0.4617914040
 H    0.4067896326    0.5573580845   -1.6686080411
 H   -0.3983731827    1.8804716303   -0.8085667539
 H    0.6603676188   -0.7011366393    0.4693559393
 H   -0.6432736444    1.4671678521    1.6778246106
 H   -2.1647602725    0.0820534125   -1.7741563600
 H   -5.1625542261   -2.0392212270   -0.8605644843
 H   -1.4475809601   -2.3101179706    1.4461882010
 H   -2.2182673755   -0.8958360495    2.1834124926