17

 O   -0.3207997732    0.3552064301   -0.7799961166
 C   -0.1559246462    1.3889395079   -0.2014167008
 C   -1.1057322990    2.3709763595    0.5173797420
 C    0.1253077864    3.2646048707    0.8433328906
 C    1.0868381127    2.2200028196    0.1441149941
 C    1.4394803190    3.2844463967   -0.9475919674
 C    0.4829259600    4.2671746020   -0.2586290633
 C   -0.2982940916    5.3796962162   -0.8025352045
 O    0.8581507717    5.6027075503    0.0188676645
 H   -1.9087820006    2.8068198967   -0.0836791248
 H   -1.5513279883    1.9035159594    1.4020525399
 H    0.2503826611    3.6026664631    1.8706271368
 H    1.9175492063    1.7059103594    0.6268177531
 H    2.4764411681    3.6218789652   -0.8788987659
 H    1.2240771405    3.0091078943   -1.9829932436
 H   -0.1868967672    5.6593309233   -1.8494889128
 H   -1.2512668098    5.6489239857   -0.3480390512