16

 C    0.0753294909    1.4286630088   -0.0776901780
 N   -0.0034924631   -0.0185595882   -0.0403323093
 C   -1.1674669166   -0.7111986090    0.0824085913
 C   -1.1980172197   -2.0664049169    0.1137925612
 C    0.0219696686   -2.8326676379    0.0166520731
 N    0.0605748273   -4.1201288312    0.0401864271
 C    1.1969691865   -1.9469267607   -0.1111077575
 O    2.3856468560   -2.5736451959   -0.2082984015
 N    1.1941188322   -0.6543129917   -0.1380812962
 H    0.6862570863    1.8006543563    0.7508222628
 H    0.5226929209    1.7638192876   -1.0187333287
 H   -0.9306556286    1.8418337913    0.0066956239
 H   -2.0609460372   -0.1027217916    0.1525298602
 H   -2.1374642833   -2.5937622062    0.2120981839
 H    1.0266037314   -4.4384022781   -0.0428169601
 H    3.0657451683   -1.8904530565   -0.2858380322