19

 C   -0.2243082126    1.3378915729   -0.1159019382
 C    0.0240589978   -0.1428281835    0.0279120847
 C   -0.7378724595   -0.9931732222    1.0184404959
 C    0.7421633107   -0.7688379257    1.2025501143
 C    1.6559491807   -1.8312922285    0.6276664083
 O    1.1553628577   -2.0991240254   -0.6815526590
 C    0.5341466532   -0.9396089877   -1.1873469698
 C   -0.6001629864   -1.3133142941   -2.1250528838
 O   -1.0748133395   -2.4102375827   -2.2415703506
 H    0.6579391703    1.8536514091   -0.5128525233
 H   -1.0632140736    1.5467936517   -0.7893802640
 H   -0.4660649752    1.7861956395    0.8524302470
 H   -1.4094491013   -0.4773683909    1.6960445721
 H   -1.0735462659   -1.9756548677    0.7009486019
 H    1.0987913228   -0.1574673960    2.0238563502
 H    2.6930891414   -1.4622274408    0.5866919363
 H    1.6486043766   -2.7804886157    1.1732449917
 H    1.2427607187   -0.3036947109   -1.7520967211
 H   -0.9939895461   -0.4414710211   -2.6991824727