16

 C    0.0756915781    1.5465295118    0.0379823893
 C   -0.0009727443    0.0569702153    0.0020651702
 C    0.8414617660   -0.9641088070   -0.7841052833
 C    0.7841879067   -1.0067924409    0.7239634139
 N   -0.3777889264   -2.0031533292    0.7110491977
 C   -0.3511605092   -1.9461238473   -0.7690311556
 C   -1.1941590517   -0.9411819216   -0.0294756513
 C   -2.6586273705   -0.8640263237    0.0678771499
 O   -3.3815647542   -1.8323082962    0.0603171093
 H    1.1203760098    1.8746512592    0.0604454251
 H   -0.3939174297    1.9958015837   -0.8444520011
 H   -0.4189743768    1.9528325633    0.9276145760
 H    1.6616011341   -0.7937862064   -1.4665327293
 H    1.5421155232   -0.9640434893    1.4955652484
 H   -0.6824043875   -2.7670503356   -1.3934758151
 H   -3.0698004077    0.1688241139    0.1278760560