20

 C    0.0596814787    1.6058311155   -0.0503308318
 C    0.0626701504    0.1109285039    0.2574560049
 O    0.4037160029   -0.1479362617    1.6174394348
 C   -1.2807274585   -0.5538600140   -0.0572826098
 O   -1.6532859811   -0.2733932605   -1.4346957070
 C   -2.1352506453   -1.4458136948   -1.9189071708
 N   -2.0820477033   -2.4931257002   -1.2124867809
 C   -1.3802950775   -2.1122249400    0.0360531166
 C   -0.0633295362   -2.8858520997    0.1404039574
 H    1.0283238648    2.0423678551    0.2075863796
 H   -0.1442621483    1.7858873103   -1.1082941714
 H   -0.7162887024    2.1198967806    0.5319605574
 H    0.8464177838   -0.3774540322   -0.3302317608
 H   -0.1681880260    0.3934966231    2.1731945420
 H   -2.0500981661   -0.0885838834    0.5764559462
 H   -2.5398308064   -1.3796374949   -2.9232780978
 H   -2.0107144551   -2.3878870861    0.8867788664
 H    0.5803016296   -2.6908845514   -0.7231801491
 H    0.4746585598   -2.6131026750    1.0505411966
 H   -0.2778339637   -3.9573839747    0.1550730874