18

 O   -0.1597040292   -0.0813561602   -0.3833298858
 C   -0.0939749587    1.0823684932   -0.1664185623
 C   -1.1856859714    2.2224649961    0.1761156518
 C   -0.0361206136    2.8318303927    1.0087040403
 C    1.0566032418    3.9544228279    1.1189769705
 N    2.0856288717    2.8020407149    1.0164661731
 C    1.7973420695    2.0992419837    2.2977690710
 C    0.2380255925    2.0798604255    2.3389251444
 C    0.9836771878    2.2000468527    0.0983875988
 H   -1.4443256298    2.7792803166   -0.7279717268
 H   -2.0948433320    1.8804680022    0.6740497840
 H    1.1332619615    4.6078404034    0.2497070398
 H    1.1342904039    4.5236503328    2.0498019627
 H    2.2363216245    1.0998492125    2.2735696465
 H    2.2490445069    2.6557809651    3.1225811775
 H   -0.1902172250    2.6087080696    3.1951921687
 H   -0.1662723200    1.0629488490    2.3401285013
 H    1.0625657196    2.7354350924   -0.8551284355