21

 C    0.2944261415    1.0382410993   -0.0481410216
 O   -0.1306358054   -0.1754112776   -0.6364693679
 C   -1.3749709659   -0.6061629210   -0.1790354032
 C   -1.7813852101   -1.9883587778   -0.5720137183
 C   -1.4714201383   -1.6900579816    0.8803904014
 C   -0.2142331733   -2.2779699841    1.5153368871
 C    0.0951866216   -1.6253601119    2.8788362845
 C   -0.3268784551   -3.7310998010    1.6585201284
 C   -0.4291487659   -4.9216014668    1.7933743746
 H    1.2578417630    1.2915084088   -0.4963731874
 H   -0.4173426569    1.8523884449   -0.2516905197
 H    0.4171101874    0.9515480234    1.0402394417
 H   -2.1356039533    0.1759961412   -0.1681915330
 H   -2.8063757828   -2.1736197107   -0.8720225982
 H   -1.0394884741   -2.5658881104   -1.1136418349
 H   -2.3222855449   -1.6297903515    1.5544972740
 H    0.6207911798   -2.0659706893    0.8353880070
 H    1.0171239583   -2.0309386655    3.3034362503
 H    0.2086197924   -0.5430821305    2.7694828874
 H   -0.7153002568   -1.8156302609    3.5890802570
 H   -0.5131421313   -5.9743579471    1.9018623505