16

 C    0.2583820890    0.9398195080    0.4538743475
 O   -0.4133074916    0.0438013566   -0.4189777579
 C    0.4262708240   -0.5455469950   -1.3432601159
 C    1.3908557390   -1.6278907231   -0.9889802940
 O    0.8750263870   -2.3761983107    0.1386270713
 C   -0.2300992790   -2.7827418265   -0.6032669653
 O   -1.0527295598   -3.5809826980   -0.3002445269
 C    0.1448083364   -1.9579671393   -1.8280550650
 N   -0.0375524004   -2.2520148752   -3.1967376185
 H    1.0239250417    0.4184285918    1.0424126596
 H    0.7317349726    1.7632578738   -0.1001859593
 H   -0.4980427181    1.3502239987    1.1251456665
 H    0.7668091146    0.1029831289   -2.1551570286
 H    2.4470419821   -1.7068531356   -1.2036009963
 H    0.0371609229   -3.2473053156   -3.3780381931
 H   -0.9476145804   -1.9425690190   -3.5220449741