16

 O    0.0905763732    0.1494630437   -0.8509318084
 C    0.0431663618    1.1956895111   -0.2639497125
 C   -1.2208750694    1.9076998617    0.2628386837
 N   -0.7920582934    3.1239820840    0.9518576187
 C   -0.3232500870    2.9357689640    2.3676999926
 C    1.1348385565    3.1046185470    1.9260415431
 O    1.6848718640    1.8519746212    1.4467445656
 C    1.2337167103    2.1087140018    0.0838043336
 C    0.6145042055    3.4427767728    0.5135710697
 H   -1.8541707499    2.1492535279   -0.6019241787
 H   -1.8059821304    1.2525015417    0.9139977761
 H   -0.7032751940    3.7342254915    3.0137697909
 H   -0.5508490292    1.9627469469    2.8158662536
 H    1.8494589184    3.6682810720    2.5268893390
 H    2.0518532973    2.0574434590   -0.6380136412
 H    0.7519728861    4.3604765336   -0.0564032356