18

 C    0.0886002256    1.3552629743    0.0434703668
 N    0.5944378763    0.0007443333    0.1095748245
 C    0.5750091134   -0.6763828164   -0.9486774336
 O    0.9922547999   -1.9592668811   -0.9555544764
 C    1.1136873184   -2.5872814027   -2.2326785069
 C    1.0187628692   -4.0752672845   -2.0503312069
 C    1.7968663118   -4.9622362382   -2.9523429636
 N    2.1625419459   -4.8369942631   -1.5347740933
 H    0.8669058124    2.0544208144    0.3698601805
 H   -0.2515045602    1.6600153078   -0.9603198390
 H   -0.7512169705    1.4691414911    0.7385435828
 H    0.2155501311   -0.3094615419   -1.9244960172
 H    0.3181231403   -2.2331970283   -2.9036756512
 H    2.0810140361   -2.3204363104   -2.6836401505
 H    0.0593546451   -4.4195127758   -1.6708436215
 H    1.3928651587   -5.9280025420   -3.2407106131
 H    2.4306832658   -4.4968971176   -3.7039262829
 H    2.9693140407   -4.2265123989   -1.4260540485