21

 C    0.0131173013    1.5193276533    0.0014468865
 C    0.0060287037    0.0185887101    0.0009754944
 C   -0.0526232933   -0.7246561810   -1.1077073779
 C   -0.0261609158   -2.2334938781   -1.0104919188
 C    0.1110450202   -2.6215778758    0.4667629518
 C    1.2269908910   -1.8247084095    1.1727426244
 C    0.0884557210   -0.7770999937    1.3129690905
 C   -0.0655152891    0.0038962674    2.5965354222
 O   -0.8826991257   -1.8769928673    1.2241905553
 H    0.9293101836    1.9235232010    0.4510438736
 H   -0.0569195551    1.9076125983   -1.0185026300
 H   -0.8235173068    1.9317100695    0.5781113203
 H   -0.1259012297   -0.2663604758   -2.0909991352
 H   -0.9473764732   -2.6648798231   -1.4245941053
 H    0.8037474858   -2.6520774406   -1.5968807299
 H    0.0396443786   -3.6990460291    0.6384230168
 H    1.4909479060   -2.2695203649    2.1348910273
 H    2.1215215543   -1.5474574035    0.6118410211
 H    0.7246227733    0.7544563464    2.6996114420
 H   -1.0316763536    0.5176315317    2.6292778670
 H   -0.0130032765   -0.6763254254    3.4503115239