20

 C    0.0731877512    1.5125212201   -0.0249293755
 C    0.0092119645   -0.0058767454    0.1663953736
 C   -1.3989475242   -0.5653454069   -0.0057659367
 C   -2.0546593542   -0.5593977647   -1.4388209834
 C   -2.2381691352   -2.0699266286   -1.3291929422
 N   -0.8874097834   -2.6599497366   -1.1234146126
 C   -1.5677217591   -2.0952071727    0.0339544224
 C   -3.3821836662   -2.8944369513   -1.7160050452
 O   -4.3552330825   -2.4939649720   -2.3104644533
 H    1.0954732334    1.8831461812    0.0967115936
 H   -0.2677974912    1.8022546776   -1.0246652756
 H   -0.5587734872    2.0334626361    0.7032300597
 H    0.6736130492   -0.5052380656   -0.5469263364
 H    0.3752313061   -0.2659741284    1.1685928166
 H   -2.0837775442   -0.1034364181    0.7126916174
 H   -3.0034267248   -0.0239984611   -1.4824620639
 H   -1.4109651931   -0.2413987863   -2.2618766623
 H   -0.9836732782   -3.6759780170   -1.0880958439
 H   -1.8167654768   -2.7124100270    0.8902635437
 H   -3.2954511842   -3.9594582932   -1.3875032261