15

 C   -0.0077141863    1.3106500457    0.0097639252
 C    1.2802208626    1.8000103653   -0.0000885608
 N    2.0914403543    0.6893991073   -0.0143842063
 C    3.4552393357    0.5601232398   -0.0285031968
 C    4.0096579020   -0.6844612891   -0.0410405941
 C    3.1810989905   -1.8398563078   -0.0395012314
 C    1.8169127082   -1.7127160224   -0.0253912330
 C    1.2334560158   -0.4283825808   -0.0123400558
 N   -0.0399851165   -0.0503297680    0.0023083361
 H   -0.9188769019    1.8916516934    0.0220219187
 H    1.6825329197    2.7990550757    0.0016562958
 H    4.0259783768    1.4797697294   -0.0288579596
 H    5.0880855319   -0.7793818709   -0.0521627845
 H    3.6383062078   -2.8224513563   -0.0495915557
 H    1.1531356996   -2.5682667815   -0.0237578477