17

 O    0.0640457516    0.1093152468    0.3717722176
 C    0.0095207079    1.2961062814    0.1513979070
 C   -1.1905220391    2.1251276182   -0.1691765947
 C   -1.4012122446    3.3354779320    0.7540716593
 C   -0.6278185428    3.4859414655   -0.5092678559
 O    0.7789680537    3.4787475064   -0.4095240000
 C    1.1873319987    2.2282181151    0.0958320142
 C    2.2690877972    2.1541317337    1.1503500387
 C    2.5517154421    1.7088577499   -0.2594396534
 H   -2.0409171413    1.6611799055   -0.6504161295
 H   -2.4123704997    3.7253671984    0.7826586565
 H   -0.8680740866    3.3686037341    1.6978468332
 H   -0.9834740994    4.0938955460   -1.3320588541
 H    2.6803745776    3.1044134036    1.4711101873
 H    2.1591670574    1.3982411575    1.9203996271
 H    2.6207747694    0.6450128557   -0.4589883675
 H    3.1580685679    2.3553137701   -0.8832136358