16

 C    0.2203929602    1.3574060048    0.4226357499
 C   -0.1024862228   -0.0866681396    0.0293876893
 O   -1.5012259744   -0.2832976978   -0.1524268867
 C    0.6539322265   -0.5402388352   -1.1921782288
 C    0.1683400484   -1.1623804021   -2.2972288646
 O    1.1413676373   -1.4262587653   -3.1831626943
 N    2.3543117320   -0.9741432552   -2.6610123617
 C    2.0482597616   -0.4614174987   -1.4948767749
 O    2.9834351604    0.0706395316   -0.6882752276
 H    1.2875068463    1.4784006799    0.6244172451
 H   -0.0469576882    2.0443434630   -0.3894755743
 H   -0.3469845543    1.6320467578    1.3157039585
 H    0.1579232808   -0.7421413720    0.8701631397
 H   -1.8124841501    0.4041858330   -0.7525247718
 H   -0.8252257061   -1.4789695110   -2.5713780519
 H    3.8367073225   -0.0098107333   -1.1357375561