17

 C    0.0606948217    1.5694369330    0.0394692468
 C   -0.0498376436    0.0360732976   -0.0371316537
 C    0.6872325768   -0.5522965182   -1.2650243891
 O    0.6383198460    0.2139722474   -2.4311302830
 C    2.1173802914   -0.7285807540   -0.7535640548
 O    3.0869288293   -0.4698785235   -1.4235993892
 C    2.0518672162   -1.1269153878    0.7053394303
 C    0.6829004284   -0.5878598447    1.1637013670
 O    0.2663414659   -0.6261831553    2.2897652289
 H    1.1053868252    1.8992080649    0.0668996327
 H   -0.4018174068    2.0167101862   -0.8418804587
 H   -0.4370573056    1.9343429389    0.9406687698
 H   -1.1035411300   -0.2522178866   -0.0068733391
 H    0.2884033271   -1.5669333543   -1.4507896117
 H    1.5567046554    0.2910639886   -2.7336795724
 H    2.0469171799   -2.2201069686    0.8033388959
 H    2.8875775929   -0.7512862036    1.2999054704