20

 C    0.0327346039    1.5933235481   -0.0897264294
 C    0.0781827554    0.0672522978    0.0395064622
 C   -1.3112023221   -0.5595193371    0.2028507946
 C   -1.3880243490   -2.0879823602    0.0461013005
 O   -0.2288560938   -2.6423110109    0.6478029909
 C   -2.6692024598   -2.4623323915    0.8326114010
 N   -2.7346192514   -1.4225032173    1.8375037006
 C   -1.9775823468   -0.3147065188    1.5693779491
 O   -1.8858420910    0.6656710304    2.2774983647
 H    1.0421791895    2.0033278886   -0.1938009479
 H   -0.5414072787    1.8978007909   -0.9731686787
 H   -0.4362475824    2.0375240820    0.7902862555
 H    0.5529692635   -0.3699123122   -0.8471437915
 H    0.7003861702   -0.2212662277    0.8911571964
 H   -1.9909295710   -0.1201283701   -0.5426189321
 H   -1.4651305152   -2.3935982595   -1.0057201004
 H   -0.2565453085   -3.5975362144    0.5373063321
 H   -3.5517212530   -2.4646779866    0.1754590286
 H   -2.5777582773   -3.4582800857    1.2807014978
 H   -3.3165448826   -1.4622562559    2.6582882960