18

 C   -0.1652040971    1.5117291878    0.0158785530
 C   -0.0518901248   -0.0060487270    0.0009354502
 O   -1.2840404401   -0.6337437719   -0.2825905564
 C    1.1368921063   -0.5683122435   -0.7778983309
 N    1.4437099492   -0.5857489157   -1.9927486565
 O    1.7602350469   -1.0904642003    0.3342820618
 C    0.6611858075   -0.6657329419    1.1848713116
 C    0.8721027594   -0.2409720797    2.5922686959
 C    0.1234114751   -1.5297543473    2.2611641587
 H    0.7810603486    1.9794350723    0.3019480177
 H   -0.4358294832    1.8748940925   -0.9806259408
 H   -0.9424474502    1.8190840056    0.7218391109
 H   -1.4692193488   -0.4963100346   -1.2190031642
 H    2.3133706856   -1.0944455783   -2.1609482480
 H    1.8751787668   -0.3364824281    2.9935142254
 H    0.3117113562    0.6102635126    2.9648855065
 H   -0.9532329828   -1.5603515937    2.3862593998
 H    0.6364281955   -2.4661858587    2.4503429453