19

 C   -0.1090207230    1.5095679916    0.0311291336
 C    0.0799425470    0.0063452646    0.0691867791
 C    1.3607951365   -0.7272644092   -0.1606450887
 C    2.5622205516    0.0376686608    0.4223703236
 C    1.8576853122   -0.0770545070    1.7944553294
 O    2.2174025539    0.0948123137    2.9315202606
 C    0.6605600979   -0.7772034038    1.2401510017
 C   -0.0666256156   -1.8234522092    2.0454785049
 O   -0.6355545526   -1.2436713324    3.2085420057
 H    0.7437187186    2.0537188944    0.4440414116
 H   -0.2582532074    1.8525115818   -0.9984499336
 H   -0.9920187283    1.7942682932    0.6115711807
 H   -0.7756411979   -0.5335432919   -0.3358770775
 H    1.4455419476   -1.5504077879   -0.8588994308
 H    3.4888989290   -0.5438163189    0.4348426079
 H    2.7758592863    1.0331475006    0.0250582675
 H   -0.8898598696   -2.2634817968    1.4729435461
 H    0.6261806140   -2.6389143264    2.3085910074
 H    0.0935784796   -0.8335827472    3.6914806907