17

 N   -0.3973138150    1.2504098786    0.1352312518
 C    0.1257156019   -0.0917564700   -0.1409145814
 C    1.0074912596   -0.1334443671   -1.3311912419
 N    1.6926807312   -0.1048495455   -2.2621785191
 C    0.8611593366   -0.6417701472    1.0684483225
 C    0.0801204043   -1.0964870337    2.2617392789
 C    0.7968270356   -2.1286426607    1.4035453024
 C    0.0429955755   -3.0359836546    0.5881149648
 C   -0.5862349935   -3.7984835629   -0.0975754372
 H    0.3735878348    1.8937488557    0.2951220857
 H   -0.8931999207    1.5994505115   -0.6802808262
 H   -0.7276272163   -0.7459855234   -0.3504408997
 H    1.8223470533   -0.1716729780    1.2553101972
 H    0.4787173686   -0.8968576374    3.2494857234
 H   -1.0007599449   -1.0639172808    2.1918748817
 H    1.7095115259   -2.5457490468    1.8182289000
 H   -1.1348329570   -4.4770306177   -0.7027809129