16

 C   -0.1200689384    1.5256290286    0.0350307400
 C   -0.0025929516    0.0036394976    0.0207245062
 C    1.1539046228   -0.5369500124   -0.8755456944
 C    2.0440281916   -0.6660470295    0.3919980350
 C    0.7477621131   -0.5935383990    1.2430391826
 O    0.7219038087    0.2127624872    2.3983670518
 H    0.8508159045    2.0061473736    0.1906018557
 H   -0.5240492706    1.8831612865   -0.9182251820
 H   -0.7822267103    1.8609783087    0.8379762496
 H   -0.9867436877   -0.4365066433   -0.1663977496
 H    0.9204722852   -1.5075964942   -1.3209029371
 H    1.5095241130    0.1295041793   -1.6652045733
 H    2.6746906538   -1.5532841768    0.4917292770
 H    2.6567244196    0.2250781103    0.5532806166
 H    0.3747964616   -1.6052331688    1.4619647751
 H    1.2415137447   -0.2211360378    3.0821871069