15

 N    0.0053372050   -1.2040285244    0.0853766055
 C   -0.0219049502   -0.0490962745    0.0708667497
 C   -0.0230799663    1.4115866478    0.0533519290
 C    1.4101468925    1.9937643442   -0.0731449534
 C    1.4153556093    3.4871085338   -0.0836343799
 C    1.4013914915    4.4191306349   -1.0971537412
 N    1.3755356606    5.6698789569   -0.5581619029
 N    1.3719911230    5.5740285006    0.7387367365
 N    1.3914515309    4.2591025882    1.0343424291
 H   -0.6396675299    1.7593619143   -0.7818361978
 H   -0.5021889759    1.7741688047    0.9693159328
 H    2.0263018307    1.6104075186    0.7469078563
 H    1.8609048285    1.6279719289   -0.9992135673
 H    1.4156300609    4.2616680432   -2.1638755754
 H    1.4157957494    3.9756629027    2.0016533789