16

 O   -0.1046635493    0.3717419980   -1.0083024245
 C   -0.0210092041    1.2603571357   -0.1903659624
 N    1.1238857264    1.6617955531    0.4377880193
 C    2.4177894582    1.0862409475    0.2230190924
 C    2.7894922229   -0.0640433997   -0.7229262835
 N    4.1467947055    0.2968339969   -0.0821061005
 C    3.7124639611    1.7547260402   -0.2990560169
 C    3.3550338101    0.3800142968    1.2321806263
 H   -0.8939119188    1.8575214690    0.1423689291
 H    1.0478049083    2.4190351471    1.1004950866
 H    2.4364823246   -1.0652160820   -0.4731928789
 H    2.7453563720    0.1227910705   -1.7964554636
 H    3.7405927060    2.0695758569   -1.3450498030
 H    4.2296476675    2.4647842364    0.3524962865
 H    3.8454517515    0.9871541373    1.9983759472
 H    3.0481184681   -0.5937575138    1.6215366660