17

 C    0.1131293821    1.2966380993    0.1863246945
 C    0.0067242594   -0.2232461133   -0.0749663030
 C   -1.4290977542   -0.7024312471   -0.1129824274
 C   -1.7823383948   -2.0708954906    0.3303072279
 N   -2.1669096116   -0.9009395260    1.1431348085
 C    0.7263016075   -0.5704388428   -1.3686608171
 O    0.2017062694   -0.9709531662   -2.3753638099
 C    2.1954411108   -0.3650042453   -1.3325522873
 N    3.3405844517   -0.2111691314   -1.2831303960
 H    1.1544194883    1.6279880131    0.2225452779
 H   -0.4031220538    1.8590174153   -0.5974829113
 H   -0.3573291092    1.5375053427    1.1427343080
 H    0.5449441902   -0.7437438651    0.7314247222
 H   -2.0271906203   -0.2495253414   -0.8995202488
 H   -2.6083372839   -2.5967298529   -0.1382540431
 H   -0.9829869225   -2.7146625615    0.6897280299
 H   -1.5381325690   -0.8145986069    1.9393386449