14

 C   -0.0144062889    1.3596623707    0.0059988662
 O    0.0223768057   -0.0731826350   -0.0341867077
 C    0.6345318147   -0.5911085866   -1.1057408194
 O    1.1349257316    0.0435621461   -1.9999553142
 C    0.6197394638   -2.0720427499   -1.0541261858
 N    0.1192769931   -2.8681104553   -0.1569095278
 C    0.3982652997   -4.1352038735   -0.6279915799
 C    1.0657633050   -4.0294922000   -1.8071733316
 O    1.2139218079   -2.7130201901   -2.0917580933
 H    0.9985508529    1.7699214021    0.0139657226
 H   -0.5477859991    1.7548034435   -0.8622333369
 H   -0.5386285258    1.6129880950    0.9267910152
 H    0.1028529716   -5.0227007253   -0.0915959760
 H    1.4753043978   -4.7268987417   -2.5177091113