23

 C    0.0944896139    1.4054193657   -0.5351590898
 C    1.4001312098    1.6196478660    0.2781583774
 C    1.2745336087    0.1615334593    0.7980286421
 C   -0.1925561885    0.1300975236    0.3031662191
 C    2.3525680432   -0.8698272335    0.3388731096
 C    3.1852690308   -0.3643959631    1.5525616151
 C    1.7793480030   -0.2449014971    2.2087835895
 C    1.3392371269   -1.7196312495    2.2984122136
 C    1.7867769696   -2.1986888540    0.8753103135
 H   -0.6500982552    2.2038414672   -0.4991855449
 H    0.2967061781    1.1714061120   -1.5838061058
 H    2.3007339039    1.8792255477   -0.2852818573
 H    1.2724133229    2.3559447298    1.0786684192
 H   -0.9023481359    0.3179465227    1.1160959025
 H   -0.5240389832   -0.7601994181   -0.2386698595
 H    2.7506168739   -0.8647166743   -0.6777257183
 H    3.9041846038   -1.0564603032    2.0024685919
 H    3.6574201424    0.6033217335    1.3754090429
 H    1.5978601694    0.3893048614    3.0788253902
 H    1.8470674056   -2.2565570979    3.1049649103
 H    0.2615292043   -1.8234997191    2.4551518918
 H    0.9524621831   -2.5750374957    0.2768057959
 H    2.5478083595   -2.9836812535    0.9135595010