17

 C   -0.7372163975    1.0757677025    0.5167992199
 C    0.0213578056   -0.2036006845    0.1904633261
 O   -0.7226789610   -1.0487467820   -0.6918780130
 C   -1.5644840334   -1.9251194205   -0.1145304688
 N   -2.3432625000   -2.6120176219   -0.8277461799
 C   -3.2226659320   -3.5867874414   -0.1960984948
 C   -3.1867268679   -3.7047628529    1.2659221645
 C   -3.1447104439   -3.7871049766    2.4652055791
 H   -0.1188680561    1.7343935404    1.1351849223
 H   -1.0017880344    1.6074874160   -0.4012220075
 H   -1.6591150673    0.8579598633    1.0650014128
 H    0.9520144392    0.0184326675   -0.3385812961
 H    0.2795697476   -0.7539410236    1.1050205517
 H   -1.4891623037   -1.9855682781    0.9788943568
 H   -4.2505257187   -3.3569647492   -0.5072419364
 H   -3.0026696506   -4.5687927366   -0.6363195539
 H   -3.1234150258   -3.8764679823    3.5233343873