16

 C    0.0385788589   -1.2554071416   -0.1685123608
 C    0.0354086426   -0.0590545327   -0.0512062003
 C    0.0139839141    1.3841331266    0.0803422437
 C   -0.2615090013    2.0261665122    1.4989647488
 C    1.0604118930    2.8015277483    1.3640862409
 N    2.1150318016    1.7502808294    1.2391321407
 C    1.3553060846    2.1443908548    0.0462881147
 C    1.3512471603    4.1127684611    1.8235259129
 C    1.5795030313    5.2235204687    2.2278561792
 H    0.0534504960   -2.3126255636   -0.2653085746
 H   -0.6737122910    1.8183450791   -0.6517027685
 H   -1.1455324682    2.6642838445    1.4982090407
 H   -0.2914978623    1.3294691478    2.3370430777
 H    3.0130330772    2.2325185933    1.1999126771
 H    1.8479446061    2.5467918237   -0.8302721219
 H    1.7835154471    6.2031212785    2.5831981697