22

 C    0.0083125529    1.5584270127   -0.0301406420
 C    0.0265794578    0.0353913123    0.0845517025
 O    0.7133396480   -0.3906822335    1.2683755393
 C   -1.3636474105   -0.5839086646    0.0337178912
 C   -2.1933293271   -0.5274165068   -1.2859096235
 C   -2.6317737811   -2.0034700697   -1.0500251623
 C   -1.4993359916   -2.1143627910   -0.0253766084
 C   -0.4005293644   -3.1058708551    0.0055120500
 N   -1.4357558761   -3.0766128074    1.0653969682
 H    1.0247161752    1.9576974339    0.0266454037
 H   -0.4392809199    1.8778432012   -0.9764716375
 H   -0.5817681101    2.0021580688    0.7820577658
 H    0.6241431481   -0.3801234579   -0.7361343389
 H    0.3044512683    0.0571491933    2.0176260522
 H   -1.9601532268   -0.1891653620    0.8700394970
 H   -2.9807121669    0.2261495359   -1.3458022902
 H   -1.5456059120   -0.4282245761   -2.1623213290
 H   -3.6153671768   -2.0761221550   -0.5763922966
 H   -2.6031788534   -2.6793079454   -1.9079189192
 H   -0.4432518055   -3.9752833951   -0.6460400483
 H    0.5973693745   -2.7645014336    0.2614954610
 H   -1.0395642827   -2.6211475250    1.8857464248