19

 C   -0.1026425147    1.4619968130    0.1447339522
 C    0.0582501529   -0.0221693657   -0.0429046456
 C    0.1127859008   -0.9224564673    1.1685706775
 C    1.3264126552   -0.6720878898    2.0500221295
 C    1.2891876601    0.3457191079    3.1643100445
 C    1.3234695052   -1.1277631457    3.4864499155
 N    0.1678839068   -0.6135366321   -1.1718651199
 O    0.1398517668    0.2792079637   -2.2580748219
 H   -0.4619962587    1.9344841069   -0.7690434114
 H   -0.7973734474    1.6706852070    0.9639283640
 H    0.8557641824    1.9211640630    0.4128252295
 H   -0.7968247845   -0.7765815291    1.7685070031
 H    0.1117304158   -1.9596042713    0.8190861747
 H    2.2737016772   -0.7667542121    1.5254778953
 H    2.1774110938    0.9374803641    3.3562513139
 H    0.3587677168    0.8767974294    3.3365997166
 H    0.4159659131   -1.5829420102    3.8701981402
 H    2.2357307085   -1.5464202752    3.8964933565
 H    0.1813680599   -0.3225215463   -3.0082387341