14

 N    0.6918984662    0.0316190101   -0.7745730143
 C   -0.2246285498    0.3510928182    0.1624254864
 O   -0.2056939293    1.3384651856    0.8704641759
 C   -1.3696209614   -0.6608502838    0.3321451701
 O   -1.2248290679   -1.7498449994   -0.5611467129
 C   -2.2734736551   -2.6066503617   -0.7054414039
 O   -2.1964672018   -3.5749945661   -1.3926324534
 C   -1.4233204629   -1.1256550934    1.7932868923
 O   -1.6366576784   -2.2674975170    2.0962459897
 H    1.4743727546    0.6489464965   -0.9157981150
 H    0.6126192722   -0.8205589669   -1.3034938973
 H   -2.2962053615   -0.0996348814    0.1385669193
 H   -3.1725992072   -2.2826111674   -0.1553631298
 H   -1.2638386777   -0.3130047734    2.5260143228