19

 C    0.0153991080   -1.2560616535   -0.5777149530
 C   -0.0753204235   -0.1249168163   -0.1796531995
 C   -0.1690029947    1.2403078099    0.3146964229
 C   -0.3486908657    1.3527752298    1.8504293551
 C    0.0591774029    2.7985795406    2.1416754777
 C    1.3319135983    2.9920468731    1.2748535531
 C    1.0846831928    2.1194958742   -0.0013264127
 C    1.6513166908    4.3828010817    0.9899356804
 C    1.8995314861    5.5343929045    0.7481705298
 H    0.0900602275   -2.2533513887   -0.9340863657
 H   -1.0411456239    1.7148023776   -0.1528394004
 H   -1.3662566075    1.1107677168    2.1664787130
 H    0.3300496063    0.6533164567    2.3513590889
 H   -0.7213925891    3.4908577786    1.8069861233
 H    0.2469060837    2.9984168566    3.1993345831
 H    2.1742482308    2.5541830220    1.8248464749
 H    1.9539705372    1.4945868137   -0.2137182395
 H    0.9094593445    2.7442758011   -0.8786978287
 H    2.1256415255    6.5499851114    0.5369889771