16

 N   -0.1925861302   -1.1603728101   -0.4639942070
 C   -0.0965254962   -0.0319338668   -0.2345108769
 C    0.0167817210    1.3991727603    0.0505589016
 C   -0.6280391801    1.8308867053    1.3834784759
 C   -0.0757249105    1.3198505092    2.6851617047
 C    0.3835345493    2.6580311981    2.1566499723
 C    1.6635593609    2.6519333668    1.3524221641
 O    2.2466041627    1.3509931159    1.1721497190
 C    1.4721923759    1.8920475679    0.1071294818
 H   -0.4783997494    1.9390696117   -0.7664650594
 H   -1.6736878285    2.1113335543    1.3434222885
 H   -0.7531973864    1.3242313065    3.5314593966
 H    0.6386730766    0.5067092434    2.6672222861
 H    0.1042022700    3.5739433988    2.6624224681
 H    2.3723384582    3.4695167939    1.4425360893
 H    2.0053130565    2.0692586649   -0.8235773745