18

 O   -0.0505128423    0.1629046620    0.8103904300
 C   -0.0710135323    1.1513754329    0.1143731450
 C   -1.3007849312    1.6332575508   -0.6308041124
 C   -1.3444565504    3.1710029930   -0.6865714251
 C   -0.0334891031    3.7341929370   -1.2280024556
 C    1.1314281941    4.1140245811   -0.3995627433
 C    1.2305682614    3.2840964364    0.8735571017
 C    1.1561563769    2.0292246820   -0.0550745327
 N    1.1901908328    2.8909411558   -1.3011389720
 H   -1.2259110404    1.2398667480   -1.6541063705
 H   -2.1935699283    1.1988698614   -0.1754410105
 H   -2.1679235102    3.4925066785   -1.3296763946
 H   -1.5591875547    3.5713874499    0.3107388647
 H   -0.1289706356    4.3102731299   -2.1444151532
 H    1.7209200218    5.0007829616   -0.6106617791
 H    2.2023877976    3.3606344963    1.3621529031
 H    0.4491852008    3.4200783528    1.6278753815
 H    2.0488533230    1.4064065406   -0.0003876270