18

 O   -0.0216183120    1.3913134156   -0.0714375318
 C   -0.0157833387    0.0069786391   -0.0268263280
 C   -0.4239307129   -0.7555709343   -1.2814469480
 C   -1.3325450816   -0.7485955581   -0.0813750958
 C   -1.4866524069   -2.0232647496    0.7656280330
 N   -0.4373188676   -2.2665887872    1.7583704145
 C    0.9102247990   -2.0212811248    1.2319353678
 C    1.0617188442   -0.5621238996    0.8263861704
 O    1.9377820386    0.1699553751    1.2520350396
 H    0.8104472763    1.6472972122    0.3595828392
 H   -0.6846580768   -0.1216924383   -2.1212029587
 H    0.0945378038   -1.6738979279   -1.5394862676
 H   -2.2044948100   -0.1062966542   -0.1584300886
 H   -2.4419682879   -1.9957042759    1.2968720643
 H   -1.5225222780   -2.8931740377    0.0959824309
 H   -0.5858146157   -1.6644524855    2.5628094242
 H    1.6630757966   -2.2477683988    1.9906937228
 H    1.0787755394   -2.6899629003    0.3779746718