18

 N    0.0239104488    1.1597806393   -0.9164880974
 C    0.0176458888   -0.0874912089   -0.1864571368
 C    1.2373628690   -0.9724579379   -0.2635503610
 C    0.8987659293   -0.2696775699    1.0294873473
 C   -1.3599119400   -0.7428092272   -0.2003297316
 C   -2.5833504425    0.1157150093   -0.1882343237
 N   -2.2021893484   -0.6050933269   -1.4047740218
 C   -1.4380882049   -2.0402424169    0.4388196865
 N   -1.4755008630   -3.0619847029    0.9790251371
 H    0.0583762365    1.9648282702   -0.3027053030
 H    0.8014787473    1.2180033284   -1.5606365253
 H    1.0930453524   -2.0457332692   -0.3085437615
 H    2.0799700152   -0.6066065205   -0.8413281323
 H    1.5066093180    0.5786174431    1.3254367333
 H    0.5312056154   -0.8746907074    1.8507194520
 H   -3.4823385537   -0.2427395080    0.3027523721
 H   -2.4176601261    1.1882143283   -0.1538130972
 H   -1.7121695221    0.0530444170   -2.0127425367