14

 C   -0.0889598411    1.5472743049    0.0175952426
 C   -0.0361554773    0.0303924757   -0.0162984218
 C    1.2435137845   -0.6415956596   -0.5975174749
 O    1.9841652395   -0.2420553140    0.6302645584
 C    0.6775435341   -0.6926091164    1.1731611428
 C    0.4251127028   -0.5982692307    2.5798661565
 N    0.1768413171   -0.5458572449    3.7078786117
 C    0.8905081848   -1.9192252151    0.2000667738
 O    0.9007908526   -3.0978006421    0.1711133881
 H    0.8718742780    1.9658835574    0.3214921969
 H   -0.3459611081    1.9366747548   -0.9720516971
 H   -0.8566515784    1.8848376296    0.7199172582
 H   -0.9838229499   -0.4244992155   -0.3214345964
 H    1.7405206313   -0.4975581543   -1.5527035688