18

 C   -0.0358526899    1.4618742757    0.0447929530
 C    0.0668411910   -0.0283320173    0.0521450605
 C    0.2834973912   -1.0235059393   -1.0269337518
 C    0.6268399196   -2.0769913039    0.0541038781
 C   -0.8756907069   -2.0951082523    0.4672120345
 C   -0.5446959778   -1.5878267406    1.8793115585
 C    0.6706799459   -0.9491125120    1.1525469469
 O    1.8646957546   -0.5995286460    1.7641638934
 N   -1.0826344905   -0.8674083725   -0.4199256889
 H    0.9549388436    1.9224591704    0.1289344691
 H   -0.4957121907    1.8087742974   -0.8848355183
 H   -0.6553718010    1.8205116781    0.8756109422
 H    0.4726499449   -0.9253972552   -2.0893954611
 H    1.3117354661   -2.9196269511    0.0254695672
 H   -1.5840846774   -2.8955597754    0.2645694609
 H   -1.2689201011   -0.9438717267    2.3875566410
 H   -0.2256683038   -2.4048392760    2.5336237511
 H    1.7249083421    0.2076677666    2.2724015737