18

 C   -0.1259970285    0.7465967971   -0.4418476906
 O   -0.5160566753   -0.2679104271    0.4824714208
 C    0.4883755119   -0.6331373883    1.3712344006
 C    0.3238580965   -2.0282181978    1.8923462654
 O   -0.7825001030   -2.7578655842    1.4346268527
 C    1.4830278180   -1.7136582790    0.9592892039
 C    1.5851981625   -2.1640256455   -0.4844111381
 N    0.8494057064   -3.2570086451   -0.8113932415
 O    2.3224284458   -1.5907687171   -1.2678135049
 H    0.7519175760    0.4366057283   -1.0176908444
 H   -0.9750160511    0.9064183189   -1.1094132530
 H    0.0959415608    1.6840151352    0.0864166422
 H    0.8300554106    0.1653265519    2.0295632917
 H    0.5505915167   -2.2413524277    2.9325353327
 H   -1.3316418562   -2.1285522271    0.9438701842
 H    2.4628667977   -1.6299478272    1.4197364993
 H    0.1441138253   -3.5956955538   -0.1723763846
 H    0.8425075860   -3.5423569216   -1.7773493665