16

 N   -0.1894749436    1.3593786922    0.0484340145
 C    0.0448471650   -0.0300852243   -0.0061836315
 C    0.9335761608   -0.9094230809   -0.8876618975
 N    0.0896807866   -2.1084536145   -0.5008281611
 C    0.4012973507   -2.2252000494    0.9826264709
 C   -0.3026709147   -0.9007976877    1.2077789859
 C   -1.0265180713   -1.1116144156   -0.1070935468
 C   -2.3776709142   -1.1155089105   -0.5094281446
 N   -3.4857953398   -1.1066930164   -0.8477953174
 H    0.5199400600    1.8483969009    0.5832021704
 H   -0.2453406197    1.7758880572   -0.8743543928
 H    0.8005352978   -0.7003068415   -1.9526186795
 H    1.9995821376   -1.0128236751   -0.6562885099
 H   -0.1413946502   -3.0752879809    1.4012904854
 H    1.4680684704   -2.3109011072    1.2130920582
 H   -0.7109863854   -0.4541196664    2.1049988758