23

 C   -0.1790615697    1.5647232808   -0.0378123040
 C    0.0794795789    0.0558042670   -0.0118376553
 C    0.9366422898   -0.4675710635   -1.1968813327
 O    1.9362905997    0.4634423777   -1.5957827417
 C    1.5688753350   -1.7589313575   -0.6412587955
 C    1.6502431548   -1.4916442501    0.8501713316
 C    2.5097763499   -2.3505572558    1.7250786539
 C    0.8332435174   -0.4850379948    1.2007617271
 C    0.5621423477    0.0446390833    2.5756569470
 H    0.7529814150    2.1343222759    0.0082983050
 H   -0.6899218602    1.8515475339   -0.9622104514
 H   -0.8104681750    1.8715806055    0.8017425520
 H   -0.8990015827   -0.4509166517   -0.0563383710
 H    0.3372391311   -0.6356621325   -2.0956481843
 H    2.5157814035    0.5969757047   -0.8364534581
 H    0.9385772334   -2.6378212708   -0.8438607890
 H    2.5399015028   -1.9519698670   -1.1123745491
 H    2.2020527137   -3.4029314381    1.6628056658
 H    3.5584196631   -2.3188581953    1.4020358696
 H    2.4736080428   -2.0554208381    2.7764472794
 H    1.1477386812   -0.4666305891    3.3432406765
 H    0.7834050289    1.1165476668    2.6450759290
 H   -0.4989021211   -0.0675648016    2.8363794852