21

 C    0.2461247870    1.2448228143    0.2932555529
 O   -0.2109453844    0.0094444515   -0.2239569565
 C    0.5484523299   -0.4997683018   -1.2856889818
 C    0.3672870646    0.2338359305   -2.5956524928
 C    1.8722240334   -1.1265325050   -0.9343710992
 C    0.6723793792   -2.0243341402   -1.2605295577
 C    0.0239279933   -2.8008886449   -0.1217046894
 C    0.6913450460   -2.7271540231   -2.5168954281
 C    0.6942751635   -3.3470479691   -3.5486111332
 H    1.3037598009    1.1952927800    0.5885096429
 H    0.1233357328    2.0675352842   -0.4241634171
 H   -0.3607586467    1.4596222843    1.1759505426
 H    0.7666980998    1.2517033861   -2.5369850792
 H    0.8807283409   -0.2843884951   -3.4071514104
 H   -0.6963895466    0.2957594699   -2.8463174995
 H    2.6818377254   -1.0778477001   -1.6536472912
 H    2.1776058463   -1.1056336660    0.1063447294
 H   -0.0160528143   -2.1939557784    0.7830578815
 H   -0.9987463113   -3.0862743545   -0.3854377313
 H    0.5891148316   -3.7153406127    0.0823000614
 H    0.6979444688   -3.8900682498   -4.4608191334