18

 O   -0.1313843360   -0.0825258165    0.4303795241
 C   -0.1118477490    1.0890129777    0.1264482194
 N    1.0080878204    1.8070092875   -0.1852112986
 C    2.3269854895    1.2404757650   -0.1887132047
 C    3.3115606980    1.4423716212   -1.3718996947
 C    3.3734371605    2.9723916731   -1.5644700275
 C    3.5436979495    3.3593839147   -0.0579242192
 C    3.5253261024    1.9281599188    0.5192362336
 O    4.3885272702    1.2132675154   -0.4147429400
 H   -1.0247921919    1.7144642651    0.0688933617
 H    0.8861859795    2.7787625874   -0.4215588194
 H    2.2503861245    0.1922092937    0.0892469751
 H    3.3383406709    0.7918938469   -2.2453463576
 H    4.2327394679    3.2583894690   -2.1730312233
 H    2.4727398018    3.3837940362   -2.0312537840
 H    4.4947477335    3.8540119188    0.1455183952
 H    2.7399482316    3.9911789913    0.3334973923
 H    3.7695237467    1.7717731246    1.5693105676