21

 C    0.0749719647    1.6058983957    0.1613350071
 C    0.0162850451    0.0748684431    0.0147072499
 C   -1.3815605753   -0.4705412492   -0.0279403035
 C   -2.1738564223   -0.7235752223   -1.1394413750
 C   -1.8975267114   -0.5761001772   -2.5997963239
 N   -3.3685397309   -1.1802397874   -0.6668978488
 C   -4.5229101881   -1.5953300107   -1.4319471793
 N   -3.4050785151   -1.2428239473    0.6819914807
 C   -2.2077095259   -0.8134722720    1.0655383089
 H    1.1106893210    1.9588464120    0.2062685647
 H   -0.4166219875    2.1001308573   -0.6828897688
 H   -0.4351279140    1.9296102578    1.0739294089
 H    0.5617736850   -0.2207795063   -0.8897631570
 H    0.5559767246   -0.3847021119    0.8514536357
 H   -2.0488576909   -1.5158678039   -3.1442449894
 H   -2.5422616593    0.1775045751   -3.0686611800
 H   -0.8623082211   -0.2656995735   -2.7571816834
 H   -4.2906699548   -2.4559711947   -2.0688276376
 H   -5.2969789568   -1.8759147897   -0.7187506141
 H   -4.8922354636   -0.7814718250   -2.0649592000
 H   -1.9692064433   -0.7671672701    2.1191814650