17

 C    0.0835839129    1.5399267832    0.0461455554
 C    0.0091380056    0.0493624080    0.0064034043
 C    0.8649119012   -0.9643232489   -0.7460814338
 C    0.8018262697   -1.0017658235    0.7764129323
 C   -0.3842349631   -2.0039307070    0.6870220075
 C   -0.3224788839   -1.9672243787   -0.8043815584
 C   -1.2040333311   -0.9284359011   -0.0679348897
 C   -2.6553683869   -0.8314512243   -0.1254787850
 O   -3.3970556903   -1.7910797598   -0.1805494486
 H    1.1271518552    1.8691508962    0.0971517648
 H   -0.3630987619    1.9899080818   -0.8481852270
 H   -0.4358819638    1.9463780839    0.9218105043
 H    1.7100404475   -0.8010602809   -1.4008119102
 H    1.5895943439   -0.8725586533    1.5059989684
 H   -0.7939342790   -2.7485264044    1.3555447524
 H   -0.6739587321   -2.6772965582   -1.5402195986
 H   -3.0604875839    0.2059821271   -0.1165689082