16

 N   -0.1047119022   -1.1823867072   -0.2589971131
 C   -0.0503892669   -0.0338754765   -0.1369543815
 C    0.0209729665    1.4056033305    0.0409567299
 C   -0.2690794611    2.0224737545    1.4475925514
 C    0.5334804357    1.3313221074    2.5803485466
 C    1.8119987324    2.0465329169    2.0883801493
 O    2.3547044766    1.4145600635    0.9014654532
 C    1.4234115070    2.0985523017    0.0569314441
 C    0.9439874227    3.0061161348    1.2224411673
 H   -0.6061781299    1.9010366102   -0.7080914138
 H   -1.2953663474    2.3265467536    1.6448988154
 H    0.2269159644    1.7246343382    3.5547068914
 H    0.5513977182    0.2394642879    2.6136571498
 H    2.5948229082    2.3214351379    2.7961758374
 H    1.8599506062    2.4006798958   -0.8959446280
 H    0.9242403995    4.0914202610    1.2450361506