14

 O   -0.8823701939    1.3982637503    0.0048893904
 C    0.2130120564    1.0640761978   -0.3646144249
 C    1.4494909764    1.9636894780   -0.3757915712
 O    2.5126565967    1.5162594410   -0.7741846510
 N    1.2779058819    3.2255899433    0.0673117069
 C    0.1500624874    4.0184049440    0.5898338479
 C    1.1589080678    5.1830351968    0.7168541902
 O    1.0936184606    6.3107583560    1.0902885777
 C    2.2875849210    4.2847137341    0.1604451587
 H    0.4494915015    0.0499285891   -0.7441365559
 H   -0.6667381927    4.1843288336   -0.1190809165
 H   -0.2695489907    3.6596668466    1.5345382329
 H    3.1068597630    4.0731392224    0.8566851885
 H    2.7081007645    4.5990436570   -0.8013696539