15

 O    0.2087388518    1.4348309111   -0.0682254597
 C    0.1178610007    0.0512064513   -0.0606322656
 C   -1.2943636735   -0.6245284575   -0.0078009272
 N   -2.3136499342    0.1987933679   -0.6779596489
 C   -2.5601870837   -0.3677700254   -1.8016559462
 N   -1.9259962795   -1.5675626750   -2.0761090102
 C   -0.8671821569   -1.6850166681   -1.0764869441
 C    0.3720028779   -0.7708520003   -1.3619217406
 O    1.0703462252   -0.6359384134   -2.3212206689
 H   -0.5805794976    1.7571663223   -0.5259099565
 H    0.7636677099   -0.3346929495    0.7400145850
 H   -1.6340490335   -0.9506043800    0.9761771422
 H   -3.2745716342    0.0245482144   -2.5199132279
 H   -1.7127949572   -1.7951691884   -3.0375065286
 H   -0.6681599154   -2.7136330391   -0.7740246428