16

 N    0.0572725709    1.2908974257    0.0019317998
 C    0.0970518349   -0.0564642459   -0.0201715575
 O    1.1144640714   -0.7252871413   -0.1267731539
 C   -1.2602476943   -0.7883542668    0.0528045135
 O   -1.0194254721   -2.1653003151    0.0654935132
 C   -2.0743005778   -0.3949694962    1.3165704819
 O   -2.4097682851    0.9708801770    1.3137181280
 C   -3.3438518062   -1.2255973174    1.3733301262
 O   -4.4264786730   -0.6868265141    1.3801339686
 H    0.9314746355    1.7905729500    0.0399004670
 H   -0.7961647127    1.7468560349    0.2941900592
 H   -1.8544934182   -0.4937210696   -0.8270981453
 H   -0.0497600525   -2.2375395227   -0.0244476929
 H   -1.4654626575   -0.6467782079    2.1994324252
 H   -3.3829708109    0.9947918366    1.2951511741
 H   -3.2206334625   -2.3205555571    1.3924453229