19

 C    0.3934241110    0.6629457600    0.3665665462
 C   -0.3487942608   -0.1383992912   -0.6788191280
 O    0.1456114351   -0.5013260723   -1.7190223876
 C   -1.7906546909   -0.5297053263   -0.3132733971
 C   -1.7196999181   -1.8598140977    0.4480641954
 O   -1.4952563941   -1.8847472834    1.6375077320
 C   -1.8819550884   -3.1061402858   -0.3918307381
 C   -1.6177014386   -4.3951695692    0.3713103518
 O   -1.8589578167   -5.4672769085   -0.5264814767
 H    1.4484521739    0.7453435539    0.1036764576
 H   -0.0455721210    1.6651012951    0.4402651232
 H    0.2711355934    0.1906521188    1.3472854383
 H   -2.2410898031    0.2165571723    0.3444882597
 H   -2.3623699266   -0.6347578068   -1.2368224855
 H   -2.9006995549   -3.1176844803   -0.8035106098
 H   -1.2204149945   -3.0212022190   -1.2643092397
 H   -0.5823364889   -4.3984394921    0.7423138669
 H   -2.2744637388   -4.4421313518    1.2514305886
 H   -1.6873478379   -6.2908311157   -0.0608864674