20

 C    0.0770986276    1.5361435964    0.1400385655
 C   -0.1516849850    0.0349820926   -0.0712700732
 C    0.5935425313   -0.5067983360   -1.2794658195
 C    2.1189829834   -0.8154569850   -1.1539551356
 O    1.7897272007   -1.9693769818   -0.2800587523
 C    0.8171475683   -2.0429026916   -1.4054026107
 C    1.9859506397   -1.7579845313   -2.3577447689
 C    2.2253914512   -1.6498851412   -3.8034642834
 N    2.8990368885   -2.6839316000   -2.9635705662
 H    1.1351010851    1.7553824157    0.3205292377
 H   -0.2365596374    2.1168052038   -0.7349188009
 H   -0.4882198582    1.9031842947    1.0019953693
 H    0.1603137407   -0.5253367541    0.8143711323
 H   -1.2245105882   -0.1536261777   -0.2076749295
 H    0.3042618735   -0.0050021104   -2.2100230524
 H    2.9457725923   -0.1711474720   -0.8509731110
 H    0.0984132073   -2.8618887542   -1.3993679485
 H    1.5139493120   -2.0473363692   -4.5221307307
 H    2.8119651105   -0.8083795084   -4.1651685610
 H    3.8662250667   -2.4297577703   -2.7784734810