22

 C   -0.7997053966    1.0712048536   -0.0150196453
 C   -0.0206230327   -0.2287616580   -0.1166668701
 C    1.3760811724   -0.2448859138   -0.8236778134
 O    2.1076861469    0.9516044714   -0.6818165112
 C    1.7980902561   -1.3580040103    0.1794416985
 C    0.6785696570   -0.8572017864    1.1306487584
 N    1.2153440814    0.1786708762    2.0124045880
 C    0.4244455697    0.5224667201    3.1901720964
 C    1.6827242317   -0.2619709819    3.3241836549
 H   -0.1771607846    1.8786681124    0.3761923439
 H   -1.1571032664    1.3800115189   -1.0030761366
 H   -1.6737093793    0.9639623110    0.6368384446
 H   -0.6431039603   -1.0086455066   -0.5709169446
 H    1.3899391201   -0.4922700394   -1.8882786464
 H    2.1245293255    1.1416395951    0.2688373636
 H    1.5888103004   -2.3619005126   -0.1997506341
 H    2.8238431460   -1.3128528442    0.5529369446
 H    0.1097483746   -1.6153702331    1.6926148781
 H    0.3990574272    1.5749738668    3.4556416928
 H   -0.5131820781   -0.0094761891    3.3390538008
 H    1.5891096547   -1.3197395704    3.5625266222
 H    2.5898698343    0.2101340506    3.6890616547