19

 O   -0.1846629287    1.6619087257    0.7172134067
 C   -0.3566059067    0.3592477941    1.2316210537
 C   -1.2286393571   -0.4995885140    0.3232223747
 C   -2.2727406085    0.1324409624   -0.4880879952
 O   -1.0098441532   -0.2352905569   -1.0740286161
 C   -1.3497372347   -1.9511221547    0.7248849205
 C   -1.7553025452   -2.9781974733   -0.3538056553
 C   -0.3815925933   -3.6132688468   -0.0596920060
 O   -0.0547459148   -2.5780433708    0.8933874675
 H    0.0617295434    1.5438952518   -0.2094692578
 H    0.6033127183   -0.1582344651    1.3709990113
 H   -0.8295938569    0.4561827529    2.2154382228
 H   -3.1235163188   -0.4529251658   -0.8329205631
 H   -2.4363183523    1.2022950113   -0.3892333268
 H   -1.9297824051   -2.0098236772    1.6579235836
 H   -2.6269167921   -3.5902372922   -0.1213736512
 H   -1.8481942697   -2.5497114863   -1.3514724334
 H   -0.4121917471   -4.6024020210    0.4130063205
 H    0.3275814723   -3.6367064341   -0.8944266963