18

 C   -0.1852130117    1.5702809676   -0.1695433549
 C   -0.0387614044    0.0777289879    0.0473149500
 N    1.1423454304   -0.5944978100   -0.6589846576
 C    2.0892128790   -0.2149325634    0.5240464148
 C    2.5812297908   -1.6589776459    0.6477458297
 C    1.0813158950   -1.7459628687    0.3721602414
 C    0.7343770299   -0.4791555679    1.2499570110
 C    0.4512832015   -0.4672838107    2.7139543850
 O    1.3072550636   -0.4517121477    3.5662408936
 H    0.7289809821    2.1142508377    0.0859338747
 H   -0.4195758637    1.7758666708   -1.2189256361
 H   -0.9993999848    1.9726382817    0.4425540199
 H   -0.9751363994   -0.4445033835   -0.1880183457
 H    2.6629735958    0.7110145259    0.5138722535
 H    3.2298937156   -2.0135708560   -0.1571004250
 H    2.9265941158   -1.9747454210    1.6328154989
 H    0.4321263952   -2.6067879209    0.2006220543
 H   -0.6298100307   -0.4992891657    2.9867663323