17

 C    0.0285475557    1.4093743577   -0.0883287462
 N    0.0220085755   -0.0284562611    0.0048752346
 N   -0.0304777116   -0.8007990733   -1.1357498479
 C   -0.0187080988   -2.0536040741   -0.6976150139
 N   -0.1506037180   -3.1289526754   -1.5784374050
 C    0.0572272648   -2.1239941301    0.7188919718
 N    0.0718383846   -3.1924579172    1.6583976991
 C    0.0787109032   -0.7968903491    1.1053597636
 O    0.1349527536   -0.2776702063    2.3448546486
 H    0.9095594426    1.7572068742   -0.6373567384
 H   -0.8682422673    1.7604160642   -0.6077708315
 H    0.0466287926    1.8221335555    0.9213220458
 H    0.0011772834   -2.8364714265   -2.5360896029
 H    0.4588873995   -3.9037268486   -1.3492429647
 H    0.9073579677   -3.7660538636    1.5919531537
 H   -0.7268302798   -3.8099441702    1.5487893550
 H    0.1238730624   -1.0451265062    2.9373869884