18

 C    0.0742916305    1.6831689440    0.1589016068
 C    0.0709785035    0.1532612343    0.0448447619
 C    0.7047708457   -0.4367483436   -1.2243530019
 C    1.3806269299   -1.7459186889   -0.7573410437
 N    1.6217444319   -1.4948193522    0.6562506167
 C    0.9011884398   -0.4743386610    1.1972952564
 O    0.8831120820   -0.1238950676    2.3573925613
 C   -1.3546916750   -0.3564735357    0.2537010559
 O   -1.9241222211   -1.1203331646   -0.4828676470
 H    1.0889819198    2.0706742285    0.0313369484
 H   -0.5664735657    2.1396552700   -0.6018649709
 H   -0.2764062620    1.9864610983    1.1488316150
 H   -0.0376186440   -0.6239168674   -2.0010836134
 H    1.4575110251    0.2539054462   -1.6140504209
 H    0.7200387200   -2.6093379619   -0.9027317289
 H    2.3175256238   -1.9405684407   -1.2878352475
 H    2.1395722003   -2.1194354873    1.2542684272
 H   -1.8413304546    0.0372873098    1.1716211047