20

 C    0.0417658376    1.5681014582   -0.1674360969
 C   -0.0268955361    0.0679322071    0.1508770100
 C   -1.4354537847   -0.5081620292    0.0687996501
 O   -2.2767180518    0.0808031761    1.0552199781
 C   -2.0686240119   -0.7946091560   -1.3428238271
 N   -1.0490869304   -1.9108534727   -1.4476194101
 C   -1.6229789439   -2.0486094780   -0.0500376952
 C   -3.0527513015   -1.8176369430   -0.6656353709
 O   -4.1779428658   -1.4661745310    0.0612467580
 H    1.0749450648    1.9234629803   -0.1202422348
 H   -0.3368683080    1.7818267842   -1.1725994991
 H   -0.5276165370    2.1796677484    0.5445673052
 H    0.6073607984   -0.4848579503   -0.5430661475
 H    0.3515872425   -0.1101343060    1.1649329861
 H   -2.2031515734    1.0377468048    0.9807475974
 H   -2.2457484881   -0.1006441263   -2.1674571438
 H   -1.4334097348   -2.6562520341   -2.0355632278
 H   -1.2761582632   -2.8182897062    0.6423130770
 H   -3.3463624462   -2.6237789408   -1.3469048086
 H   -3.8943732967   -0.7778982755    0.6804640299