20

 O    0.0137644058    1.5491127182    0.0120008058
 C    0.0141318280    0.1549139782   -0.2433881570
 C   -1.3364523603   -0.5027877840    0.0430154723
 C   -1.3515860952   -1.9985458158   -0.2912007535
 C   -2.6686591712   -2.6661301607    0.0479103456
 C   -2.7259085606   -4.2091158850    0.0704832675
 C   -3.0039540292   -4.0234972423    1.5468880345
 N   -3.2256743756   -4.7945695989    2.5095730199
 O   -2.9416033713   -2.6450764459    1.4964522911
 H   -0.1577890699    1.6759339487    0.9506533508
 H    0.2653036125    0.0507444833   -1.3052592457
 H    0.8077129935   -0.3577198343    0.3251973451
 H   -1.5862669992   -0.3755715879    1.1045141726
 H   -2.1105531373    0.0226788863   -0.5294923718
 H   -1.1607078226   -2.1497992715   -1.3625179516
 H   -0.5464347710   -2.5139488994    0.2487068838
 H   -3.5035966179   -2.1902292881   -0.4768223740
 H   -3.5363714337   -4.6733800909   -0.4931081185
 H   -1.7860809147   -4.7165206172   -0.1565099348
 H   -3.3783768800   -4.2727083028    3.3743575076