13

 O    0.0584252487    1.3655121851   -0.0335441688
 C    0.0650872497   -0.0185445719    0.0302677131
 C   -0.4289852158   -0.7410723574    1.2570879608
 C   -1.2694115649   -0.7438515790   -0.0212118890
 O   -2.3417595700    0.1662059598   -0.0752948615
 C   -1.4340050238   -1.9555407852   -0.7730013553
 C   -1.5761451890   -2.9794607077   -1.3884763055
 H   -0.8704458181    1.6359957592   -0.0308135997
 H    0.8916239300   -0.4543998301   -0.5208015560
 H    0.0465006342   -1.6693716192    1.5522991271
 H   -0.8096803560   -0.1243124951    2.0646734303
 H   -3.0518129589   -0.1624536434    0.4868229508
 H   -1.6991447661   -3.8762448050   -1.9437149263