15

 O   -0.0280749390    0.0497722794   -0.5207225806
 C   -0.0535337231    1.1893424163   -0.1811344754
 C   -1.1643452193    2.1973487185    0.1933016288
 O   -1.4672603093    2.0516616473    1.5962259644
 C   -0.5453640422    3.1164199348    1.9567326301
 C   -0.0686576158    3.2648783364    0.5065422391
 C    1.0614309340    2.2682914593    0.0807119591
 C    2.1489243101    1.9686390361    0.9806729172
 C    3.0309668270    1.7027197423    1.7536199343
 H   -2.0482568242    2.3093729453   -0.4391292519
 H   -1.0903204526    3.9843404950    2.3451449886
 H    0.2038955865    2.7924428091    2.6857743936
 H   -0.0314780682    4.2568826376    0.0638708537
 H    1.4468394848    2.5587150536   -0.9065207475
 H    3.8170052712    1.4637159091    2.4266902264