21

 C    0.2859119409    1.0823773014    0.3895791928
 C   -0.2104381319   -0.1742283641   -0.3301746172
 C    0.8359376249   -0.7470640946   -1.2735261061
 O    0.2781660631   -1.8959596399   -1.9192158397
 C    1.1513490968   -2.5514498920   -2.7788065078
 C    2.2610125629   -3.4208881838   -2.1916148442
 O    2.4267357248   -3.4727970143   -0.8122995699
 C    0.9982846599   -4.0539792055   -2.7413377872
 O    0.1371833214   -4.5599522831   -1.7593604216
 H    1.1818542523    0.8737140620    0.9841962123
 H    0.5375977573    1.8767936285   -0.3216118011
 H   -0.4784344534    1.4738192018    1.0667645246
 H   -0.4817324541   -0.9453260495    0.4006487736
 H   -1.1178977216    0.0488162126   -0.9032868688
 H    1.1156654928   -0.0027393874   -2.0355117934
 H    1.7421235222   -1.0400979418   -0.7309201719
 H    1.3269616741   -2.0577524134   -3.7353308514
 H    3.1909747378   -3.5056904824   -2.7475653137
 H    1.7291020207   -4.0666852841   -0.4933319139
 H    1.0071068340   -4.6378084050   -3.6565349763
 H   -0.4146840551   -3.8136400356   -1.4814294390