18

 O    0.0202784072   -0.0100320210   -0.2783869827
 C    0.0075898387    1.1539213608    0.0163733346
 O   -1.1977564097    1.7564885311    0.2342681441
 C   -1.3668311308    2.8982737576    1.0894666293
 C   -0.6475094890    4.1899101191    0.6678341641
 N    0.7873256119    4.0915881697    0.3962349880
 C    1.0629382104    3.2922786037   -0.8404310652
 C    1.2642824652    2.0075404336    0.0095340407
 C    1.4556560086    3.0053023018    1.1837163171
 H   -2.4452264402    3.0785138755    1.0918733307
 H   -1.0898998021    2.6131376516    2.1106988460
 H   -1.1227273031    4.6065598799   -0.2266927311
 H   -0.8122222698    4.9116204835    1.4797647710
 H    0.2617182697    3.2879852382   -1.5835317684
 H    1.9919147915    3.6293162365   -1.3108060324
 H    2.0977261814    1.3490953536   -0.2354013384
 H    2.5139995546    3.2452379242    1.3242737664
 H    1.0249145155    2.7739440106    2.1596735163