15

 C    0.2957911950    1.3547188585    0.1319834118
 N    0.1002392454   -0.0838528675    0.0799717885
 N   -0.0677982659   -0.7117094708   -1.1107460138
 C   -0.2317612423   -1.9735084281   -0.7504937840
 N   -0.1803312119   -2.2013687683    0.5883925003
 C    0.0279909658   -0.9917558499    1.0796857185
 C    0.1350629237   -0.6796910657    2.5451104766
 C    1.3876666082   -0.0157252437    2.9152188646
 N    2.3684488498    0.5284052635    3.1917799051
 H    1.1780484015    1.5994786730    0.7274368442
 H    0.4361966005    1.6960576515   -0.8923732129
 H   -0.5802350317    1.8521863843    0.5601537671
 H   -0.3905848786   -2.7550428299   -1.4779933115
 H   -0.6992710785   -0.0487052850    2.8768478655
 H    0.0550740791   -1.6290580619    3.0810152000