14

 C    0.1609594887    1.0975019647    0.4026170899
 O   -0.4501977201    0.1309474030   -0.4502819531
 C    0.4141738824   -0.5068655211   -1.2927107507
 C    0.8167848825   -1.8141909326   -1.1945312175
 N    0.5881627156   -2.7720124851   -0.2368402120
 O    1.6001320048   -2.1303173344   -2.2281889347
 N    1.7458768066   -0.9952788280   -3.0677268449
 C    1.0324918585   -0.0606985149   -2.4884042666
 H    0.9311711646    0.6390201434    1.0354666935
 H    0.6178709149    1.9092001840   -0.1774220057
 H   -0.6331516795    1.5080896844    1.0299390325
 H   -0.2390918534   -2.5844428542    0.3128096708
 H    0.6173192149   -3.7211420739   -0.5834925103
 H    0.9758256194    0.9155974546   -2.9501672212