21

 C    0.0758535356    1.5431079657   -0.1264669222
 C   -0.0152090854    0.0134482570    0.0002572587
 C   -1.4934738094   -0.4080393238    0.1358949965
 C    0.6760344608   -0.7122915497   -1.1966786868
 C    1.4765753187   -1.9070726878   -0.6056110352
 C    2.8500140502   -2.0339320592   -1.2375750643
 O    3.3080389636   -3.0391778267   -1.7137704974
 C    1.5664227242   -1.5421794758    0.8656977115
 C    0.7822561018   -0.5136716101    1.1767758022
 H    1.1177671373    1.8730249310   -0.1885568422
 H   -0.4447429687    1.8915967975   -1.0253861066
 H   -0.3838576598    2.0391999128    0.7354974859
 H   -2.0793424085   -0.0459687104   -0.7164379195
 H   -1.5916652254   -1.4971557175    0.1798755403
 H   -1.9400889886    0.0048293156    1.0469862592
 H   -0.0363955100   -1.0359355705   -1.9595261886
 H    1.3723486736   -0.0182197873   -1.6831402231
 H    0.9724478924   -2.8706633014   -0.7455077920
 H    3.4352838922   -1.0828990222   -1.2199984762
 H    2.1828619240   -2.1017054665    1.5606927932
 H    0.6590538617   -0.1061645904    2.1757855067