21

 C    0.0985281988    1.4698704628   -0.2247603235
 C    0.0384443644    0.0235568916   -0.0644462466
 C    0.0032512555   -1.1731265213    0.0695351319
 C   -0.0670272818   -2.6235603887    0.2174064975
 C   -1.5031640407   -3.1834384679    0.1311107312
 C   -2.3918431888   -2.6670062857    1.2539096839
 C   -2.0746720318   -3.1216496321   -1.3080072794
 O   -1.8342532507   -4.5303470083   -1.5103224565
 C   -1.5086487478   -4.7129841925   -0.1190710778
 H    0.8042405794    1.7543886889   -1.0130906864
 H   -0.8803310900    1.8818952176   -0.4940554782
 H    0.4200880037    1.9609791418    0.7003845149
 H    0.5425057947   -3.1000622713   -0.5615140070
 H    0.3740817100   -2.9236949227    1.1781027226
 H   -2.4482390931   -1.5743752120    1.2343564361
 H   -3.4073409234   -3.0658105406    1.1674078900
 H   -1.9973510623   -2.9619493321    2.2334594485
 H   -3.1448176479   -2.8785928571   -1.3608713149
 H   -1.5299826575   -2.4981857327   -2.0258781921
 H   -0.5566186560   -5.2413886493    0.0181861049
 H   -2.2981314449   -5.2552610284    0.4198970813