13

 C   -0.7520376922    1.1507007573    0.1399522414
 C    0.3686698191    0.1689938359   -0.1072112317
 O    1.3330925198    0.0485232897    0.6043147810
 C    0.2511561135   -0.6989060161   -1.3568116805
 C   -0.9652881433   -1.5291790452   -1.5658606721
 O   -0.7536820086   -0.3439202710   -2.3112078615
 C    1.5061517686   -1.1738737104   -1.9085098376
 N    2.4970968784   -1.5511419275   -2.3656323743
 H   -0.7554847139    1.9048322640   -0.6542721644
 H   -1.7340153633    0.6693239598    0.1140048822
 H   -0.5953034260    1.6285109165    1.1069812733
 H   -0.8603369003   -2.4621450807   -2.1147959503
 H   -1.7606645916   -1.4936164424   -0.8241712357