19

 C    0.0517227923    1.5267544742    0.0191493758
 C    0.0165749863    0.0147049982    0.0300719858
 C    0.2355181745   -0.7467760697   -1.3248715743
 C   -0.9677942018   -1.6267817956   -0.9942249609
 C   -0.8538893598   -2.0685031738    0.4704589022
 O    0.4157072635   -2.0535556101    1.0876903723
 C    0.8337206276   -0.6809847597    1.1238769909
 C   -1.3689592842   -0.7145087799    0.1552480724
 O   -2.5901657343   -0.1455843646    0.4506863776
 H    1.0564260858    1.8977204260   -0.2124899890
 H   -0.6377019822    1.9284880195   -0.7293085740
 H   -0.2408775140    1.9377769371    0.9919186853
 H    0.0455263882   -0.0999342878   -2.1852659011
 H    1.2014711159   -1.2471560041   -1.4500708141
 H   -1.5935772575   -2.1717793338   -1.6917492685
 H   -1.5054164668   -2.8644589615    0.8113460722
 H    1.9147897741   -0.6503586408    0.9509868165
 H    0.6234042805   -0.2417697790    2.1139249218
 H   -2.7245939181   -0.1811885545    1.4043056190