17

 C   -0.0250240293    1.3899085597    0.0452254105
 O   -0.0004916237   -0.0283391204    0.1291405185
 C   -1.2138877997   -0.6363101699    0.0597106092
 C   -1.3963003372   -1.9941922596    0.1223467899
 O   -0.5591017028   -3.0568472157    0.2557454881
 N   -2.7521138217   -2.1970526120    0.0172413123
 C   -3.4202715289   -3.4808433353    0.0337940817
 C   -3.3161418783   -0.9564556119   -0.1029154194
 N   -2.4107681425    0.0015511895   -0.0801893136
 H    1.0150875448    1.7136976060    0.1156730810
 H   -0.4577087279    1.7251742911   -0.9037688863
 H   -0.6090322566    1.8270703263    0.8625719079
 H    0.3364387475   -2.7058088101    0.3126786233
 H   -3.2290745506   -4.0079085175    0.9731839429
 H   -4.4941121084   -3.3153940929   -0.0683591280
 H   -3.0768034763   -4.1099200869   -0.7927027858
 H   -4.3822058584   -0.8242415504   -0.2023664321