21

 C    0.1828331690    1.5127477096    0.0622987779
 C    0.0792270210    0.0037634077    0.0121480054
 O    0.6951051736   -0.4564564008   -1.1799466367
 C    1.1197365374   -1.8148653722   -1.0791415832
 C    0.2425876811   -2.6042250301   -0.0690312833
 C    1.1173096693   -1.8998402825    1.0144277825
 C    1.3038947158   -2.4887176797    2.3910012446
 C    2.2673651204   -1.8973218223   -0.0380413929
 O    0.6896196546   -0.5364488301    1.1728301249
 H    1.2341329332    1.8098981189    0.0753301671
 H   -0.3011870201    1.9466159051   -0.8162223493
 H   -0.3077529259    1.8895252535    0.9631346365
 H   -0.9795136256   -0.3041872474   -0.0011635075
 H    1.2626217089   -2.1842455323   -2.0954402116
 H   -0.8398197439   -2.4642687296   -0.0651725634
 H    0.4699205101   -3.6715940654   -0.1113731359
 H    1.6913724643   -3.5093558874    2.3218633944
 H    2.0117374254   -1.8859132902    2.9684068626
 H    0.3541388240   -2.5092061630    2.9345642284
 H    2.8007533783   -2.8513551640   -0.0762494843
 H    2.9646153692   -1.0584910479   -0.0044792963