19

 C   -0.0139507439    1.5533839541   -0.0181176907
 C    0.0274702578    0.0282285849   -0.0229728295
 C    0.5792187327   -0.5416899478   -1.3354765541
 O    0.6946218607   -1.9495530068   -1.2503749775
 C    1.7094211403   -2.3264629778   -0.3355142541
 C    1.5628098628   -1.6626515970    1.0364082468
 C    2.1762003046   -0.3229094278    1.2711274026
 N    0.7268789448   -0.4640787656    1.1750353730
 H    0.9879334598    1.9788805898   -0.1416185728
 H   -0.6420793797    1.9273747087   -0.8329650039
 H   -0.4216922967    1.9180988765    0.9284249578
 H   -0.9965189578   -0.3558083013    0.0719103050
 H   -0.1142285273   -0.3304147970   -2.1552225103
 H    1.5523824393   -0.0880181230   -1.5952374271
 H    1.6332642519   -3.4118507746   -0.2324540664
 H    2.6982002890   -2.0993710184   -0.7689794311
 H    1.4795099860   -2.3507983565    1.8750849279
 H    2.5499825136   -0.0443640633    2.2530997659
 H    2.7285949421    0.1135387230    0.4403459783