21

 C    0.0317306115    1.5120150416   -0.0690623766
 C   -0.0282007433   -0.0157722080   -0.0500704587
 O    0.7969530581   -0.5589237729    0.9803747785
 C   -1.4578067307   -0.5378911267    0.0649790281
 C   -2.3850478804   -0.4290708292   -1.1934191135
 C   -2.5721787150   -1.9613174973   -1.1692163244
 O   -1.5895088085   -2.6524101495   -1.9691005491
 C   -0.7684147049   -2.9260020568   -0.8050476446
 C   -1.6790311406   -2.0831407291    0.0981234348
 H    1.0675253587    1.8508302366   -0.1560361661
 H   -0.5401246980    1.9230249230   -0.9071733590
 H   -0.3885673854    1.9273853594    0.8559559979
 H    0.4149457754   -0.3945218866   -0.9786621486
 H    0.4693868210   -0.2242197870    1.8227615762
 H   -1.9276039869   -0.0726442925    0.9406594571
 H   -3.3009470977    0.1425970181   -1.0217600350
 H   -1.9079084959   -0.0705501317   -2.1095391175
 H   -3.5766736722   -2.3765706447   -1.2894383033
 H   -0.7771464652   -3.9962917156   -0.5607006038
 H    0.2692237098   -2.6023716161   -0.9321954734
 H   -1.9961799899   -2.5209091351    1.0433130111