21

 C    0.4377797846    0.9843066690    0.6179260698
 C    0.1558546034   -0.5202184200    0.7044367231
 C   -1.3146517527   -0.8518154663    0.4980491515
 C   -1.8826192465   -0.8802892399   -0.9450624337
 O   -1.0921747802   -2.1214606317   -1.1978783434
 C   -1.7113973134   -2.3071582006    0.1487643861
 C   -3.0606559376   -1.8158792050   -0.4892247453
 C   -4.2345366806   -1.3267747676    0.3338602114
 O   -3.5752398857   -2.6433436906   -1.4884520104
 H    1.4965573143    1.1972130414    0.7936583485
 H    0.1796007964    1.3806824401   -0.3700436799
 H   -0.1413839081    1.5446347830    1.3607203661
 H    0.7504582716   -1.0598321942   -0.0373842787
 H    0.4628286759   -0.8909835713    1.6910732814
 H   -1.9413621743   -0.3534526627    1.2419003533
 H   -1.8614024964   -0.1172847133   -1.7253855121
 H   -1.4827580156   -3.2384555577    0.6706905278
 H   -3.9485426088   -0.6597538664    1.1468467077
 H   -4.9368160021   -0.7997915860   -0.3187068325
 H   -4.7615227291   -2.1869890515    0.7570635612
 H   -2.7973244448   -2.9332095188   -1.9886845919