20

 C    0.3544702908    1.4909006278   -0.4187241906
 C   -0.1244649866    0.0941202999   -0.0214290866
 N    0.6479639929   -0.4011161055    1.1154741828
 C    0.0568477158   -0.8573095703    2.1153777298
 C    0.4878057185   -1.4347020491    3.4466409097
 C   -1.0270577313   -1.5682846730    3.7026280671
 C   -1.6528332604   -0.6899732059    4.7672152888
 O   -3.0563716693   -0.6323547666    4.6233913492
 O   -1.3056402905   -1.0113572069    2.3697855819
 H    1.4274918152    1.4822411416   -0.6299223290
 H   -0.1751020447    1.8409620373   -1.3104617870
 H    0.1759342004    2.2081619936    0.3884938794
 H   -1.2041117026    0.1038905189    0.1779142783
 H    0.0424174337   -0.5955095951   -0.8588360920
 H    1.0457564167   -2.3697233385    3.3800050137
 H    1.0201636505   -0.7387026564    4.0989797873
 H   -1.4161229670   -2.5887155244    3.7579646807
 H   -1.4483606505   -1.1083486429    5.7592097747
 H   -1.1954310600    0.3122003343    4.7236912142
 H   -3.2276972513   -0.3292050288    3.7238172176