16

 N    0.9035055387   -0.1632050281    1.0303674789
 C   -0.2837581679    0.0286586288    0.4039604024
 O   -0.5619781272    0.9957143919   -0.2776499376
 C   -1.3048370604   -1.1035962621    0.6400130845
 N   -1.0358195746   -2.2958810171   -0.1669421045
 C   -0.1592310351   -3.2697074724    0.2828038380
 N    0.5163587105   -3.1153046695    1.3530433971
 C   -1.6804036173   -2.4720324153   -1.3895741593
 O   -1.5192118895   -3.4180693935   -2.1192639307
 H    1.6490326628    0.4870899166    0.8398449479
 H    1.1032452171   -1.0603763292    1.4568191936
 H   -1.3183461696   -1.4057226607    1.6897730202
 H   -2.2818825987   -0.7100565381    0.3585231066
 H   -0.1419485610   -4.1359857240   -0.3788828836
 H    1.0827571018   -3.9400469272    1.5376185764
 H   -2.3637952995   -1.6345157400   -1.6112443798