16

 C   -0.0244095634    1.4032922069    0.0753128826
 C    1.4192955885    1.9425940257   -0.0066822000
 O    2.2199922119    1.4980198635    1.0894284904
 C    2.0104837046    0.1713208871    1.3319463666
 C    0.9878600485   -0.5521461506    0.8005152896
 N   -0.0863554572   -0.0661974931    0.0561559667
 O    1.0400355979   -1.8382837637    1.2399549163
 C    2.1365506565   -1.9204959666    2.0541277385
 C    2.7645473919   -0.7183734366    2.1594560638
 H   -0.4790738318    1.7554044808    1.0081798371
 H   -0.6123761998    1.7989508409   -0.7567496302
 H    1.8794335365    1.6132785883   -0.9501025035
 H    1.4307771451    3.0348986624    0.0289455866
 H   -0.1197310232   -0.4366350179   -0.8889718128
 H    2.3396046690   -2.8967480659    2.4599159445
 H    3.6493029050   -0.4946673213    2.7333835938