16

 C   -0.0017848667    1.4347131823    0.0544070955
 N   -0.0484080326   -0.0100552623    0.0151527916
 C   -0.0487768076   -0.8083380076   -1.1166321633
 C    0.0011734567   -2.1508273759   -0.7796959545
 C    0.0418035994   -2.1638319582    0.6383880921
 C    0.0169735181   -0.8547124254    1.0939094906
 N    0.0464621936   -0.7471552027    2.4535507505
 C    0.0877625683   -2.0080617215    2.8441115136
 N    0.0858417619   -2.9107427186    1.8008647019
 H    1.0278774130    1.8105137727    0.0891510602
 H   -0.4952983288    1.8413611205   -0.8314865793
 H   -0.5278040483    1.7879077380    0.9442419541
 H   -0.0881579517   -0.3508511996   -2.0930628181
 H   -0.0061373383   -2.9741477287   -1.4756811746
 H    0.1218374973   -2.3381467053    3.8715384184
 H    0.1145410856   -3.9109563279    1.8917708312