22

 C    0.0739376830    1.5702537355   -0.1825485946
 C   -0.0204724996    0.0518564143   -0.0109558451
 C   -1.4524347571   -0.4831401316   -0.1552090848
 C   -1.5263773253   -2.0003625675   -0.0431474929
 C   -1.4159292041   -2.7506021653    1.3293159335
 C   -2.8763243370   -2.3095496582    1.6408328322
 C   -2.8806478988   -2.7597527563    0.1499805698
 C   -2.0333962316   -3.9827516878    0.6066264900
 H    1.1042914896    1.9230677698   -0.0727186127
 H   -0.2802022060    1.8791711731   -1.1725476896
 H   -0.5375824395    2.0917041495    0.5624124619
 H    0.6265755992   -0.4415936867   -0.7483031022
 H    0.3731677269   -0.2316713753    0.9737287828
 H   -2.0934148645    0.0083711986    0.5850611885
 H   -1.8471169979   -0.1876899857   -1.1378883203
 H   -0.8946606575   -2.4493614456   -0.8210905843
 H   -0.5676313358   -2.7521885216    2.0164270313
 H   -3.4319057893   -2.9450187855    2.3364387636
 H   -3.0568731757   -1.2555934787    1.8556755939
 H   -3.7317904874   -2.7685903482   -0.5339350954
 H   -1.4165595830   -4.4672951409   -0.1558295689
 H   -2.5392565383   -4.7157358162    1.2409047633