15

 N    0.1331703537    1.2886398444    0.4289980206
 C    0.0132374610   -0.0155454449    0.1189196995
 N   -1.2191808684   -0.5507391057    0.1412459341
 C   -1.2639784207   -1.8402272326   -0.1695887161
 C   -2.6114275675   -2.5264267153   -0.1693628424
 O   -2.5324457087   -3.8810507641   -0.5142024815
 N   -0.2117139014   -2.6033952249   -0.4885351208
 C    0.9583585145   -1.9580206910   -0.4773226617
 N    1.1483648392   -0.6825960755   -0.1880208277
 H    1.0388177335    1.7215445826    0.4002019292
 H   -0.6892789546    1.8239814420    0.6425206960
 H   -3.0522541356   -2.3973424360    0.8315915224
 H   -3.2662340689   -1.9782365848   -0.8646812399
 H   -1.5914962900   -4.0542830170   -0.6736659111
 H    1.8422809839   -2.5399725972   -0.7316707206