20

 C   -0.1014849670    1.5111073495    0.0270088254
 C   -0.0055979690    0.0216636092   -0.0018324384
 C    0.9026430106   -0.9636905013   -0.7840430705
 C   -0.1682171192   -1.9916896620   -0.7929801680
 N    0.8418122105   -1.9817441940    0.3234954580
 C   -0.0812372149   -1.0268622337    1.0917651353
 C   -0.1533804401   -0.9646551692    2.5778717350
 C   -1.1224637876   -1.0505381020   -0.0111143318
 C   -2.6069597903   -0.8941947769    0.0062130367
 H    0.8417237787    1.9692374559    0.3482122034
 H   -0.3506930477    1.9195856591   -0.9597724986
 H   -0.8796263275    1.8398093120    0.7245672615
 H    1.7853308272   -0.8344991521   -1.4010813257
 H   -0.3279309886   -2.8631824468   -1.4187236515
 H    0.8201937445   -0.7026338402    3.0074715922
 H   -0.8799371990   -0.2112492091    2.9000399060
 H   -0.4578618549   -1.9305219684    2.9967382320
 H   -2.9096937729   -0.1090366391    0.7076562522
 H   -2.9964050956   -0.6204397285   -0.9817538773
 H   -3.1058997771   -1.8205152624    0.3155426142