18

 C    0.0898084233    1.3804519836   -0.0662775239
 O   -0.0950913341   -0.0314175778    0.0046974345
 C    0.5936807842   -0.6631857076    0.9665303440
 N    0.4834283838   -1.9090731228    1.1211257855
 C    1.2470816898   -2.5283270461    2.1811667458
 C    0.2837182704   -3.3926909567    3.0419067869
 N   -0.4535934033   -4.4159319098    2.3013120241
 C    1.0316768618   -4.0075830726    4.1468930238
 N    1.6564199552   -4.4728692988    5.0000420072
 H    1.1398417421    1.6368977927   -0.2485908248
 H   -0.5140572999    1.7248582980   -0.9059328099
 H   -0.2528583964    1.8740917266    0.8504355140
 H    1.2416575088   -0.0125423237    1.5744556085
 H    1.9994575017   -3.1966265015    1.7425787807
 H    1.7760075429   -1.8063995904    2.8251497008
 H   -0.4552423944   -2.7132406469    3.4866945693
 H   -0.8544492524   -3.9565617922    1.4864929466
 H    0.1978876363   -5.1114220642    1.9459718167