16

 O   -0.6340519436    0.4416645486    0.3437305129
 C   -0.1346944582    1.2392803952   -0.4035456168
 C    1.1387939077    2.0144783248   -0.0983845435
 N    1.8829242359    2.2932400619   -1.3268826432
 C    2.7404127832    3.4004214438   -1.3415561039
 C    4.1145459036    3.5197516662   -1.4341336487
 C    4.3471477108    4.9130134459   -1.4526248977
 N    3.2230174008    5.6137946567   -1.3687619019
 N    2.2543029239    4.6699438665   -1.3102418200
 H   -0.5775056563    1.4882752697   -1.3943873059
 H    0.8292967689    2.9707711469    0.3426548793
 H    1.7126671800    1.4800457374    0.6713578333
 H    2.3691395037    1.4699067166   -1.6567568874
 H    4.8344631003    2.7179714127   -1.4635550677
 H    5.2938968205    5.4301701623   -1.5123169719
 H    1.2889773787    4.9524071248   -1.3209366967