18

 C    0.0757241868    1.4946992993   -0.1303179171
 C   -0.0461894593   -0.0138218046    0.0696870758
 O    0.6264266090   -0.4566103207    1.2347425202
 C   -1.5121053767   -0.5166131533    0.0812781338
 C   -2.1924099097   -0.5628535723   -1.3175204927
 O   -2.0107429462   -1.9846734826   -1.3987346127
 C   -1.6116453257   -2.0649682330   -0.0172345237
 C   -2.2587387587    0.1070268396    1.1636196765
 N   -2.8179598095    0.6138799204    2.0402227563
 H    1.1312568935    1.7766466220   -0.1472472811
 H   -0.3812692726    1.8147837638   -1.0718253241
 H   -0.4161172476    2.0379190571    0.6842506492
 H    0.4461886233   -0.5363538008   -0.7587483531
 H    0.2990331328    0.0558936599    1.9840973404
 H   -3.2498408102   -0.2733106425   -1.3144920269
 H   -1.6679720825   -0.0280567994   -2.1172241553
 H   -0.6658980162   -2.5953167518    0.1245335714
 H   -2.3893538206   -2.5103665512    0.6134891031