21

 C    0.1241818495    1.3353573363   -0.2679868323
 O    0.1593152151    0.0346890098    0.2795068586
 C   -1.0125095200   -0.7036890254    0.0546842358
 C   -1.2729474374   -1.3112617515   -1.3553660882
 C   -1.7386303892   -2.6095898059   -0.6387407054
 C   -0.9916404753   -2.1292436380    0.6366280424
 C    1.4226731218    2.0230286839    0.0504523016
 C    1.5148442432    3.4855144149    0.1162348099
 O    1.5116859966    2.6979087253    1.3058515184
 H   -0.0103756226    1.2943429508   -1.3624474975
 H   -0.7107796719    1.9191958424    0.1524189429
 H   -1.8916026979   -0.1380933435    0.4028581707
 H   -1.9758204476   -0.8069361248   -2.0225138617
 H   -0.3227850160   -1.4613521843   -1.8770763891
 H   -2.8223398849   -2.6294426030   -0.4954434845
 H   -1.4299374653   -3.5617896273   -1.0736404964
 H    0.0373760207   -2.4982682983    0.6629404548
 H   -1.4556594560   -2.2920078094    1.6113960540
 H    2.3142150903    1.4549219539   -0.2165905822
 H    2.4560887463    3.9774313399   -0.1245502355
 H    0.6232634906    4.0908558845   -0.0459824164