22

 C    0.3367669729    0.7667320498    1.7347036149
 C   -0.2235647040   -0.6624332604    1.6693274189
 C   -0.6137174464   -1.1678695598    3.0665141799
 C   -1.4047664839   -0.7220008092    0.7133744295
 C   -1.2086733917   -0.7514265190   -0.7834793151
 C   -1.8049642819   -1.9466881625   -0.0800071618
 C   -1.0340970365   -3.2591756917   -0.0440234832
 C   -1.4813117813   -4.1539547640    1.0258838182
 N   -1.8481071169   -4.8529013059    1.8702272939
 H    1.2032677855    0.8183906326    2.4018102491
 H    0.6457947773    1.1200105529    0.7460407473
 H   -0.4181133421    1.4638627879    2.1171014246
 H    0.5753649600   -1.3091997978    1.2814184885
 H   -0.9840013733   -2.1963264712    3.0375023353
 H    0.2424672512   -1.1336213145    3.7481085413
 H   -1.4037652885   -0.5408874598    3.4968740034
 H   -2.2500791153   -0.1276053688    1.0560617952
 H   -1.8464123884   -0.1495775669   -1.4212169154
 H   -0.1884725564   -0.8482768774   -1.1451783797
 H   -2.8737971876   -2.0924966084   -0.2050513167
 H   -1.1525129564   -3.7860960855   -0.9987484107
 H    0.0393528438   -3.0838986303    0.0789363029