16

 C   -0.4745480528   -1.1216404799   -0.6866588374
 C   -0.2697905686   -0.0045333621   -0.2954055574
 C   -0.0181188558    1.3438161700    0.1762189038
 C   -0.2231380682    1.5731896550    1.6931626457
 C    0.6516757201    2.8107504530    1.9786026990
 O    1.4940950683    3.0075924418    0.8260465819
 C    1.4375708350    1.8636326097    0.0063170714
 C    2.4481534051    0.8585141075    0.4091302487
 N    3.2501916596    0.0990996778    0.7477307234
 H   -0.6465520197   -2.1116447971   -1.0309480372
 H   -0.6456700303    2.0506671819   -0.3793930770
 H   -1.2735782290    1.7283603806    1.9438118862
 H    0.1329255879    0.7002830286    2.2448312063
 H    0.0656271136    3.7261386298    2.1030170082
 H    1.2734440562    2.6724025066    2.8696318551
 H    1.6483935584    2.1705160067   -1.0217128105