17

 O   -0.0679559953    1.4205025320    0.1491149061
 C   -0.0516548021   -0.0145392933    0.1122474407
 C    0.9048498998   -0.6013192642    1.1636199435
 C    2.2446587630   -0.6697744312    0.3600942985
 N    1.8718361722   -0.8610173321   -1.0648901705
 C    0.6443352910   -0.5417525310   -1.1425039985
 N   -0.3056504685   -0.7302600364   -2.1280311567
 C   -1.5454161593   -0.8238125789   -1.4427204610
 C   -1.4658828415   -0.4708875940   -0.1508043955
 H    0.8452750740    1.7297052396    0.1236846888
 H    0.9554704880    0.0102669071    2.0676618605
 H    0.5974640436   -1.6135252810    1.4424736058
 H    2.8471135062    0.2414603757    0.4808992331
 H    2.8794710944   -1.5026143299    0.6758798913
 H   -0.1014494847   -1.3331240387   -2.9112623944
 H   -2.4166739174   -1.1356922299   -2.0030301620
 H   -2.2976822835   -0.3688340140    0.5293997003