19

 C   -0.0584347248    1.5368391968    0.0452173864
 C    0.0459530193    0.0081477146    0.0254673235
 C    0.8297295324   -0.5489566799   -1.1941500130
 C    1.9476444454   -1.3655351118   -0.5910500495
 N    2.8010452373   -2.0553692139   -1.4122811919
 C    1.9207708955   -1.3479645372    0.7626124147
 C    0.8104166679   -0.5470521807    1.2273066918
 N    0.4245339661   -0.2649757067    2.4160899778
 O    1.2701398486   -0.8744957925    3.3788175868
 H    0.9373358792    1.9933915119    0.0235472807
 H   -0.6216236310    1.9049101586   -0.8192543804
 H   -0.5592779712    1.8693841814    0.9574212118
 H   -0.9670280170   -0.4082654558    0.0317789247
 H    0.2056667520   -1.1667410541   -1.8509438039
 H    1.2339835462    0.2589775459   -1.8200050916
 H    2.9114592626   -1.7131761210   -2.3537676888
 H    3.6533468471   -2.4079952632   -1.0046142359
 H    2.6145273477   -1.8469332060    1.4235129107
 H    0.8651313266   -0.5881381366    4.2030512962