20

 C    0.3596290861    1.4855352395    0.1489642030
 C   -0.2411844430    0.1058020262   -0.1476038150
 C    0.4458920286   -0.5514328229   -1.3240851570
 N    1.6980449672   -1.2727715608   -1.0746083732
 C    0.5210171518   -2.0346555279   -1.5617364265
 C   -0.0156666036   -3.0864245987   -0.6055252624
 N    0.8903347743   -4.2317627208   -0.6057589024
 C    0.5383167267   -2.4373275184   -2.9540317796
 N    0.5507837183   -2.7275687071   -4.0737314360
 H    1.4243373269    1.3997027320    0.3868283169
 H    0.2588668694    2.1567556933   -0.7108653618
 H   -0.1415659902    1.9557841752    0.9997176087
 H   -0.1500461943   -0.5292492838    0.7374841978
 H   -1.3112182052    0.2013401505   -0.3697488472
 H    0.4036806549    0.0381609563   -2.2396749411
 H    2.3660537751   -1.1282486364   -1.8272400056
 H   -0.1579464247   -2.6184009371    0.3784333345
 H   -0.9989538820   -3.4186347902   -0.9567428039
 H    1.7730020630   -3.9566048481   -0.1849569375
 H    0.5105462907   -4.9815700206   -0.0378815516