20

 C    0.2533256390    1.3907733342    0.2079484609
 O   -0.2334087612    0.1064053433   -0.1166025550
 C    0.4637149414   -0.4985672675   -1.1740644608
 C    1.8302509738   -1.1893256383   -0.8880018008
 N    1.3051350947   -2.5247944486   -1.3517937434
 C    0.1827187102   -2.8273943407   -0.4458629726
 C   -0.0596216499   -1.8752711774   -1.5546973890
 C   -0.9416020138   -2.1649874023   -2.7347793902
 O   -2.2439369928   -1.6254539536   -2.5629039620
 H    1.3013133314    1.3625386053    0.5431653629
 H    0.1839240015    2.0784490123   -0.6490441405
 H   -0.3648793769    1.7764858129    1.0217492595
 H    0.5164488911    0.1798004773   -2.0377314689
 H    2.6473688492   -0.8608058095   -1.5330310191
 H    2.1601601426   -1.1870338385    0.1559794886
 H   -0.1988162002   -3.8367057782   -0.5714617164
 H    0.2163723999   -2.4698886317    0.5801483672
 H   -0.5415649944   -1.6893164786   -3.6370902110
 H   -0.9600615503   -3.2508833750   -2.9184892383
 H   -2.5664755554   -1.9121107754   -1.7017466510