23

 C    0.0743921282    1.6128740061   -0.1429518602
 C    1.5866812522    1.9580322236    0.0032576917
 C    2.2611505165    0.6691867585    0.5237130107
 C    1.3424473844   -0.4798778109    0.0491011266
 C   -0.0570830123    0.1237451500    0.2545449838
 C    1.6574530132   -0.9021131525   -1.4048777726
 C    2.7886615771   -1.9285713965   -1.2259655843
 O    2.6849494190   -2.4333776129    0.1069575748
 C    1.5880854183   -1.8116023664    0.7651749785
 H   -0.5573848878    2.2520004538    0.4796395040
 H   -0.2537391896    1.7647473816   -1.1756952493
 H    2.0057238112    2.2488853594   -0.9650125957
 H    1.7577480876    2.8016534885    0.6774312053
 H    3.2954336524    0.5626428428    0.1837149466
 H    2.2854566237    0.6738987525    1.6200574132
 H   -0.3268455545    0.0411681334    1.3152278374
 H   -0.8306371454   -0.4034961340   -0.3124549020
 H    0.7773416918   -1.3756583750   -1.8535956273
 H    1.9499515850   -0.0687053425   -2.0490327288
 H    2.7149175944   -2.7570652174   -1.9417785931
 H    3.7793955635   -1.4704446394   -1.3498350732
 H    1.8476247552   -1.6879595297    1.8225564746
 H    0.6912406461   -2.4517576831    0.7092151092