20

 C    0.0978906701    1.5179823994   -0.2123846607
 C    0.0146242423    0.0194250505    0.0774735884
 O    0.6019225639   -0.3113538864    1.3282770970
 C   -1.4331161637   -0.5058170768    0.0251185190
 C   -1.5336219945   -2.0437410333    0.1863804338
 O   -2.4501216488   -2.2230523978    1.2909797902
 C   -2.7004497354   -0.9800129904    1.7728595877
 C   -3.5673833304   -0.9394411045    2.9849577559
 N   -2.2031825110    0.0237009418    1.1662701943
 H    1.1315192280    1.8594870775   -0.1134000472
 H   -0.2468814810    1.7424435423   -1.2275914233
 H   -0.5285599655    2.0775161330    0.4888165930
 H    0.6046827898   -0.5277812012   -0.6689563271
 H    0.0290849950    0.0817411981    1.9997448545
 H   -1.8978232182   -0.1648470412   -0.9084819322
 H   -1.9449362209   -2.5576144058   -0.6850575989
 H   -0.5756132662   -2.4923678887    0.4646963105
 H   -4.5341200558   -1.4053551342    2.7700886854
 H   -3.1076084425   -1.5083252209    3.7989015435
 H   -3.7201841053    0.0933144985    3.2957900663