13

 C   -0.0554915713    1.4950454024    0.0982024340
 O    1.2521194444    1.9333487204   -0.2941018990
 C    2.1403107879    0.8352700573   -0.6095149232
 C    1.2976974950   -0.3789862495   -0.3895709266
 C    0.0692213141    0.0128842726    0.0072033829
 O   -0.7458841305   -1.0124460934    0.2253596945
 N   -0.0133659602   -2.1893668880   -0.0443226864
 C    1.1889476925   -1.7911575308   -0.4053468131
 H   -0.2835416401    1.8489848020    1.1133597000
 H   -0.8124277589    1.9086554416   -0.5828231910
 H    2.4894463155    0.9478723088   -1.6445753588
 H    3.0173831917    0.8883141361    0.0491686641
 H    1.9187982497   -2.5469765095   -0.6594843476