17

 C   -0.1818722662    1.3833789072    0.2071928730
 C   -0.0433795584   -0.0976748408    0.0391496926
 N    0.6316036637   -0.7569494484   -1.1294010310
 C    0.1849910823   -1.9092925523   -0.2881285655
 C    0.5569307583   -1.1690247506    1.0268940589
 N   -0.7587942662   -1.4914201357    1.6401428431
 C   -1.3333863258   -0.9167681358    2.7411407215
 O   -2.5017994914   -0.6067967982    2.8334590255
 C   -1.1315087020   -1.2390479503    0.2254646016
 H    0.7998738045    1.8659548302    0.1841185924
 H   -0.7931486734    1.8105262642   -0.5948052046
 H   -0.6680116319    1.6166477364    1.1596409536
 H    0.0462882839   -0.6806992878   -1.9656155627
 H    0.3597360272   -2.9545810474   -0.5394293391
 H    1.5012270817   -1.1599127713    1.5683963128
 H   -0.6161713521   -0.8412458106    3.5850063890
 H   -2.1514119343   -1.3057218386   -0.1491731511