21

 C    0.1302538402    1.4674610234   -0.0319303239
 C   -0.0202075651   -0.0584127387    0.0227650864
 C   -1.5131552204   -0.4426699959    0.0130310272
 O    0.6213811428   -0.5319440572   -1.1706804113
 C    0.9764959941   -1.9071408984   -1.1467125652
 C    2.0494691522   -2.1578732931   -0.0896387948
 O    3.3219392430   -1.6571617342   -0.4983812748
 C    1.6097094235   -1.5397295773    1.2157432728
 C    0.6670704985   -0.6005746852    1.2562764009
 H    1.1870558301    1.7468483046   -0.0250524499
 H   -0.3239674772    1.8508831171   -0.9500742329
 H   -0.3612634628    1.9386699726    0.8243416354
 H   -1.9990068935   -0.0229451102   -0.8725400769
 H   -1.6475306922   -1.5275036569    0.0047995705
 H   -2.0175255526   -0.0540691740    0.9032757167
 H    0.1018798723   -2.5484633594   -0.9615921682
 H    1.3695510789   -2.1363427790   -2.1408841793
 H    2.1948375205   -3.2377419731    0.0306926118
 H    3.1959415562   -0.7138848167   -0.6570931089
 H    2.1147160072   -1.8637613363    2.1212382726
 H    0.3552490944   -0.1632348422    2.2022990317