15

 C    0.1597627669    1.5119552938    0.0270604426
 C   -0.0375888090    0.0446422072    0.0253938475
 C   -1.1272865774   -0.7731673508    0.0006594489
 N   -0.7053966837   -2.1048730764    0.0140978421
 C    0.5801089591   -2.0285743445    0.0454601961
 O    1.0671457333   -0.7636311543    0.0543961433
 C   -2.5581667242   -0.3869565559   -0.0354577469
 N   -3.4050740817   -1.4490806870   -0.0546665473
 O   -2.9278286790    0.7778245856   -0.0478838071
 H    0.7461938518    1.8314699286   -0.8414462587
 H   -0.8210809309    1.9868116379   -0.0015130989
 H    0.6963603796    1.8361965952    0.9255671873
 H    1.3037799117   -2.8280777835    0.0650491267
 H   -3.0426047496   -2.3877023880   -0.0429652279
 H   -4.3955495668   -1.2788606280   -0.0794395477