19

 O   -0.0242850181    0.0640051654   -0.6467666387
 C   -0.0474305545    1.1688009524   -0.1772470687
 C   -1.3169129814    1.9947362050   -0.0340750960
 C   -1.2910104535    2.9022965968    1.2000537480
 C   -0.1023692631    3.8494659152    1.0659851493
 C    0.5491901200    4.3220598795    2.3970873677
 C    1.5908159880    3.1732580209    2.2674142509
 C    1.1962391350    3.0504572805    0.7783174736
 O    1.1132293751    1.7214686022    0.2610641500
 H   -1.4231650017    2.6036267945   -0.9420071022
 H   -2.1485826376    1.2878596496   -0.0271474350
 H   -2.2287288580    3.4581666092    1.2977769133
 H   -1.1937148393    2.2878418117    2.1035456461
 H   -0.3328837372    4.6299617884    0.3348625061
 H    1.0047841088    5.3109171161    2.3072420841
 H   -0.0910979740    4.3141586483    3.2819807818
 H    2.6349260688    3.3973657198    2.4917557727
 H    1.2958786709    2.2786673590    2.8209386226
 H    1.8845088417    3.5957606055    0.1260209745