18

 C   -0.0924760189    1.5149252096    0.0547594553
 C   -0.0114720415    0.0039509931    0.0225140526
 C   -1.1493288347   -0.6855657706   -0.7158635948
 C   -1.2624211850   -2.1625639949   -0.4754283804
 C   -0.6647692940   -2.7991377750    0.5382661282
 C    0.1564528193   -2.0859370769    1.5440308868
 O    0.4243670997   -2.5803967469    2.6228958320
 C    0.6337680409   -0.7182587085    1.1713446927
 N    1.3402292024   -0.5313751164   -0.1232588522
 H    0.7890206394    1.9335426614    0.5450965968
 H   -0.1368589564    1.9202896177   -0.9625961881
 H   -0.9864558710    1.8481321641    0.5924744569
 H   -2.1027685617   -0.2133139466   -0.4360470158
 H   -1.0464823649   -0.4938350759   -1.7937292581
 H   -1.8987707747   -2.7165797404   -1.1618915912
 H   -0.8101477120   -3.8599885935    0.7145390532
 H    1.0588276638   -0.1595742309    1.9999860016
 H    1.3276244895   -1.4083931396   -0.6421902257