19

 C    0.0982581001    1.4842637864   -0.0644609854
 C   -0.0663348077   -0.0038649062    0.0504808662
 O    0.5064731739   -0.7226499447   -1.0846620511
 C   -0.5953506132   -1.6709324211   -1.0933333080
 C   -0.3745546272   -2.8093316801   -0.0751831072
 C   -0.7647926103   -1.8325497151    1.0606547056
 C    0.3550300135   -0.7743076051    1.3298367942
 O    1.6931131369   -1.1750203594    1.3962257864
 C   -1.3685642324   -0.8525109742   -0.0212719517
 H    1.1615972139    1.7474201316   -0.0410538820
 H   -0.3266622534    1.8547113679   -1.0018844608
 H   -0.3961004001    1.9903867412    0.7708436605
 H   -0.9210796589   -1.8970765140   -2.1104072879
 H   -1.1352290634   -3.5864930804   -0.2007953666
 H    0.6148012328   -3.2748919578   -0.0405617924
 H   -1.3062015253   -2.2236526471    1.9211568653
 H    0.1242226993   -0.2006304677    2.2342796949
 H    1.9562193612   -1.3308698558    0.4777143604
 H   -2.3871700798   -0.4807658384   -0.0846204604