17

 C    0.0692124196    1.5553543295    0.1361721700
 C   -0.0115756608    0.0388194724   -0.1121939637
 C   -1.4051045228   -0.5159582862   -0.0469225777
 C   -2.1925567242   -0.9000208266   -1.1096883528
 O   -1.9857684566   -0.9320900578   -2.4538616014
 N   -3.4034221398   -1.3278789980   -0.6490920212
 C   -3.4233026247   -1.2288283638    0.7305314666
 C   -2.2093194629   -0.7319667280    1.1226125266
 H    1.1044584874    1.9109817884    0.0952792259
 H   -0.5131184834    2.1061653672   -0.6094444505
 H   -0.3373784533    1.8078105501    1.1203854922
 H    0.4369747085   -0.1861919512   -1.0914738510
 H    0.6267877010   -0.4766204975    0.6169292466
 H   -1.0921163080   -0.6195257872   -2.6257173936
 H   -4.1412786274   -1.6711519715   -1.2381573232
 H   -4.2939257927   -1.5220374888    1.2927194652
 H   -1.9061854299   -0.5396674610    2.1412883420