16

 C   -0.0674029912    1.5401214269   -0.0065311469
 C    1.4402566223    1.8829478953   -0.0328351963
 N    2.1910661055    1.4381869519    1.1572781001
 C    2.2648928640    0.6326653841   -0.0970130386
 C    1.2703301872   -0.4666236864   -0.0995752662
 C    0.0055494587    0.0426806243   -0.0276667773
 N   -0.8206314440   -1.0466022759    0.0736394108
 C   -0.0019347559   -2.1536662574    0.0283551864
 N    1.2729107377   -1.8366696895   -0.0689794660
 H   -0.5440002190    1.9448988925    0.8937399974
 H   -0.5839561338    1.9658926367   -0.8765660244
 H    1.7516470894    2.7930182077   -0.5342555902
 H    3.0335185231    2.0063468634    1.2355158399
 H    3.2026215054    0.5799216728   -0.6383468850
 H   -1.8246525004   -1.0571603226    0.1367458217
 H   -0.4036337591   -3.1555750339    0.0602288747