20

 C   -0.0005901331    1.5437229981   -0.0151893738
 C    1.3023497518    0.7822415763   -0.0033405659
 C    2.1709562761    0.7778947782    1.2423353165
 C    2.6888071490   -0.6138457708    1.5499729910
 N    2.6078049655   -1.0537144817    2.9554145467
 C    1.7315531691   -1.6813611251    1.9332095181
 C    0.2660218020   -1.4439495445    2.0512384896
 C   -0.4795321551   -0.7138526674    1.2178873783
 C   -0.0061133733    0.0262332487    0.0144752970
 H   -0.2763679638    2.0635126330    0.8971572481
 H   -0.3144066970    2.0417965181   -0.9262322718
 H    1.8476325604    0.7492281805   -0.9433124608
 H    3.0039130923    1.4825363796    1.1303520209
 H    1.5913586730    1.1145956099    2.1054499765
 H    3.5589955696   -0.9313027413    0.9768243445
 H    3.3796858379   -1.6793617510    3.1732141604
 H    1.9963860395   -2.6994267694    1.6451402382
 H   -0.2198210990   -1.9369650855    2.8920266388
 H   -1.5505124202   -0.6523884408    1.4115175472
 H   -0.2996222947   -0.4356801748   -0.9270393593