21

 C   -0.0014746511    1.5464614336    0.0542201852
 C   -0.0134260303    0.0439765116   -0.0246403143
 C   -0.0446900434   -0.6104574165   -1.1882450245
 C   -0.0227757284   -2.1090620549   -1.3323610093
 C    0.4127367397   -2.8122127629   -0.0266932776
 C   -0.3248920806   -2.1789401877    1.1724673699
 C    0.0216014143   -0.6907120771    1.2973633517
 C    0.2071127660   -4.2547123973   -0.0982552940
 C    0.0156681982   -5.4403108362   -0.1602746959
 H    0.8811436084    1.9066825805    0.5992696881
 H    0.0030984160    2.0050879390   -0.9381837646
 H   -0.8760017762    1.9225372775    0.6010968790
 H   -0.0852074104   -0.0407367387   -2.1148385274
 H   -1.0147236008   -2.4796395043   -1.6273014716
 H    0.6520574232   -2.3997793266   -2.1462284293
 H    1.4876209284   -2.6246779522    0.1094959841
 H   -1.4038529356   -2.3009001770    1.0201976115
 H   -0.0716281144   -2.7117811067    2.0937087395
 H    1.0180776945   -0.5706748246    1.7497190532
 H   -0.6712626937   -0.2092588897    2.0003215362
 H   -0.1420956236   -6.4888351796   -0.2135838599