17

 C    0.0077277613    1.5853397076   -0.0362895818
 O    1.4048593282    1.9139843680    0.1160121952
 C    2.0652215984    0.7069628474    0.4232278277
 C    2.1586891922   -0.2786766222   -0.7748934473
 O    0.7482015324   -0.3247163514   -1.1882630447
 C    0.0272998478    0.0578917604   -0.0154581663
 C    1.0483132956   -0.2171420396    1.1549515620
 C    1.7124845593   -1.5575299904    1.0572049107
 C    2.4255286149   -1.5896706449   -0.0783174736
 H   -0.5739128418    2.0349982905    0.7814509699
 H   -0.3565871900    1.9651170885   -0.9945021854
 H    3.0052497651    0.9099740133    0.9346840768
 H    2.7628969332    0.0011430355   -1.6355648491
 H   -0.9376668798   -0.4476120588    0.0215441346
 H    0.6984969605    0.1109364122    2.1331046583
 H    1.5862243479   -2.3564378151    1.7769370037
 H    2.9828567646   -2.4210422210   -0.4891919307