19

 C    0.0329094470    1.5440342984   -0.1541112920
 C   -0.0298213621    0.0260734242    0.0393322015
 C   -1.4579313012   -0.5572855559    0.0877520501
 C   -2.3123699377    0.0211683440    1.2222055064
 O   -2.1142988213   -0.2637699949   -1.1652990821
 C   -2.4407142865   -1.4207127802   -1.8278692075
 O   -2.9884711255   -1.4240326685   -2.8938009476
 C   -1.9930023158   -2.5550647647   -0.9818630028
 C   -1.4301385429   -2.0662784797    0.1196763601
 H    1.0713472679    1.8655620353   -0.2757127976
 H   -0.5230491566    1.8422701383   -1.0466220443
 H   -0.3796816429    2.0845097647    0.7026883876
 H    0.4987444516   -0.4709461198   -0.7815227951
 H    0.4855628353   -0.2609982221    0.9643912520
 H   -2.4374414950    1.0985195965    1.0967725118
 H   -3.3021902338   -0.4418519678    1.2236876116
 H   -1.8384998502   -0.1647542908    2.1910602981
 H   -2.1357199332   -3.5838742907   -1.2779788628
 H   -0.9982356572   -2.6170284663    0.9462209924