27

 C    0.9453614187   -0.3155751802    3.6210650198
 C    0.5438311025   -1.4627508454    2.6905241443
 C   -0.8989376352   -1.3458925666    2.1777658811
 C   -1.2724108523   -2.4583741530    1.2165807203
 C   -1.8498791021   -3.7902462545    1.6624362553
 C   -2.1140273566   -4.1344133138    3.1138206718
 C   -2.7044542729   -2.8154645401    0.8720446773
 C   -3.9065215065   -2.0959467708    1.4552221334
 C   -5.2012288324   -2.9064571769    1.3128080509
 H    1.9790980496   -0.4212985594    3.9651393664
 H    0.8606037321    0.6529215337    3.1152022031
 H    0.3021805836   -0.2802086760    4.5077185002
 H    1.2281748577   -1.4960391319    1.8323346040
 H    0.6655581240   -2.4215421340    3.2101074457
 H   -1.5805393902   -1.3192879040    3.0349034956
 H   -1.0203780783   -0.3772673101    1.6720935464
 H   -0.5779661060   -2.5259005958    0.3805288270
 H   -1.4987377402   -4.6472795039    1.0919122865
 H   -2.4782569030   -3.2840765499    3.6951415894
 H   -2.8647867720   -4.9286495391    3.1955004310
 H   -1.2016246434   -4.4956127363    3.6020097119
 H   -2.8620577908   -3.0951286365   -0.1685970634
 H   -3.7457799833   -1.8563963100    2.5109616422
 H   -4.0267785746   -1.1302648252    0.9459851713
 H   -6.0608608810   -2.3570782379    1.7099682321
 H   -5.4087178966   -3.1349312485    0.2614255090
 H   -5.1328105406   -3.8588595637    1.8486845675