18

 C   -0.5146239239    1.3848333895    0.0788852604
 C    0.0644999188   -0.0007050142    0.0182071415
 N    0.4863118135   -0.6334846377    1.0542427904
 O    0.3480228040    0.1240530518    2.2278498484
 C    0.1182957422   -0.7324429139   -1.2847024151
 O   -0.3312442886   -0.0202388886   -2.4044531932
 C    1.1894685007   -1.7917028927   -1.5281750445
 C   -0.2313690706   -2.2237404924   -1.2952539766
 O   -0.6220684778   -2.8932983871   -0.1552900746
 H    0.2605973377    2.1045115559    0.3643721475
 H   -0.9397389531    1.6677444938   -0.8822046157
 H   -1.2824087392    1.4327633952    0.8561941494
 H    0.7148741923   -0.4631412369    2.8972884878
 H    0.4075536854    0.4948414785   -2.7491359810
 H    1.5840107640   -1.8474156214   -2.5378382577
 H    1.9027797637   -1.9536796500   -0.7269739080
 H   -0.8074588135   -2.5338533149   -2.1606673800
 H   -0.2255360056   -2.4235946349    0.5994488211