15

 C   -0.0921475556    1.5035560281    0.0693198427
 C    0.0532942825    0.0208251450    0.0798090669
 O   -1.1645852770   -0.7715537715   -0.0261488151
 C   -0.6885074809   -1.6533717971    0.9400574864
 O   -1.2727854998   -2.5484491586    1.4521151746
 C    0.6510157952   -0.9715490364    1.0477071624
 C    1.2146186552   -0.8075307178   -0.3900195295
 C    1.1303719667   -1.8261064889   -1.3958829353
 C    1.0731739978   -2.6757094464   -2.2436121446
 H    0.8746118760    1.9817176250    0.2485022298
 H   -0.4670593067    1.8427062540   -0.9016162097
 H   -0.7948737551    1.8267945829    0.8425625049
 H    1.2678525095   -0.8640446769    1.9280995159
 H    2.1560868172   -0.2602780290   -0.3701902077
 H    1.0099255752   -3.4289576624   -2.9896575718