21

 O    0.1726527308    0.5168733977   -1.5022122138
 C   -0.0501389649    0.3515533898   -0.1057218848
 C   -1.3758471073   -0.3717535988    0.0488373495
 C   -1.4685509576   -1.8480721513   -0.3667962180
 C   -0.6538099804   -2.7267050541    0.5371831390
 C   -1.9883668867   -2.2282582506    1.0231068577
 C   -1.9124797267   -0.7637892923    1.4782846194
 C   -1.1079178266   -0.4436600244    2.7265220289
 O   -1.1104620621    0.9705810641    2.8960617812
 H    1.0121960287    0.9706382982   -1.6187612985
 H    0.7677547113   -0.2260885441    0.3532041307
 H   -0.1024004245    1.3170526488    0.4174689801
 H   -2.1316322989    0.2198156905   -0.4750126069
 H   -1.8123844728   -2.1959510165   -1.3325919411
 H   -0.6356992186   -3.7757049124    0.2587219393
 H    0.2776704181   -2.3799075022    0.9759816000
 H   -2.7857644159   -2.9135723973    1.2854243167
 H   -2.9121908792   -0.3419098806    1.6155725523
 H   -1.5729969031   -0.9486048212    3.5893076755
 H   -0.0805160421   -0.8270891405    2.6433555743
 H   -0.5778486714    1.1826019570    3.6681588885