21

 C    0.1505241188    1.5695095453   -0.0575952995
 C    0.0420355318    0.0481374363    0.0770682127
 C   -1.4076387355   -0.4973282489    0.0286034386
 C   -2.2200474604   -0.0417237304    1.2734010970
 O   -1.6444300463   -0.4516774388    2.4905808627
 N   -2.1297037079   -0.0423288749   -1.1554136279
 C   -1.5985716555   -0.4672380836   -2.4503162935
 C   -1.3407683383   -1.9863492738    0.0965521261
 N   -1.3416324393   -3.1421879381    0.1553475229
 H    1.2040172637    1.8618840468   -0.0934742615
 H   -0.3384015495    1.9300200162   -0.9656450867
 H   -0.3007400789    2.0869616699    0.7936700733
 H    0.6266765755   -0.4388893856   -0.7097389921
 H    0.4701630370   -0.2777115441    1.0291373282
 H   -2.2479624266    1.0494520192    1.2817071064
 H   -3.2548853242   -0.4034271910    1.1680218284
 H   -1.7017875837   -1.4130221242    2.5431690098
 H   -3.0999379265   -0.3302037630   -1.0810023357
 H   -2.2995487419   -0.1567401942   -3.2291981942
 H   -0.6451713939    0.0302062481   -2.6493779394
 H   -1.4442099084   -1.5543598112   -2.5356628256