20

 C   -0.1232190718    1.4928138676    0.0254377086
 N    1.2068660372    0.8621197302    0.0610625466
 C   -0.0065493159    0.0107315615    0.0237156785
 C   -0.2707865435   -0.8586321395    1.2050196103
 C   -0.5963829494   -2.1027114942    0.8477917484
 C   -0.6183378392   -2.2923041492   -0.6462953127
 C   -2.0282256302   -2.3197789927   -1.3141078415
 C   -1.9000665737   -0.7998417054   -1.6097301888
 C   -0.3975665571   -0.8365946466   -1.1829314639
 H   -0.4032490512    2.0208918464    0.9338053853
 H   -0.4541296188    1.9743506567   -0.8922927338
 H    1.6255521011    0.8932868527   -0.8662608880
 H   -0.1752779325   -0.4895871627    2.2197817683
 H   -0.8247970669   -2.9087938637    1.5376238619
 H    0.0667916526   -3.0808190147   -0.9745640807
 H   -2.0451358777   -2.9280756673   -2.2224246342
 H   -2.8603901034   -2.6288403327   -0.6765673392
 H   -2.0941125046   -0.4974794537   -2.6413835856
 H   -2.5044311062   -0.1733265673   -0.9493941403
 H    0.2972955312   -0.7333496758   -2.0202619091