23

 C   -0.0873435847    1.5759531522    0.1624541213
 C   -0.0655236526    0.0457439820    0.1169331320
 C   -1.4572856435   -0.5713751803   -0.0651604857
 C   -1.4489846545   -2.0937759179   -0.0998471860
 C   -1.1183220798   -2.8670502984    1.2191266085
 C   -2.2642045569   -3.8172649358    0.8718597028
 C   -2.2616597961   -5.2803429287    0.8394437113
 O   -3.0330784241   -4.5497074809    1.8057201309
 C   -2.8206805634   -2.8380107997   -0.1615923947
 H    0.9187326755    1.9872324920    0.2910655105
 H   -0.5023258893    1.9935307321   -0.7617480067
 H   -0.7037074254    1.9382277164    0.9927821142
 H    0.5868727933   -0.2883020048   -0.7009000757
 H    0.3841532346   -0.3420317959    1.0402870529
 H   -2.1151847859   -0.2345359680    0.7487937138
 H   -1.9050959928   -0.1909618565   -0.9941406124
 H   -0.7974208414   -2.4429925472   -0.9086511477
 H   -0.1186231323   -3.2922386962    1.3351221885
 H   -1.3558537180   -2.2716198070    2.1077906756
 H   -2.8421506650   -5.8089602495    0.0836807978
 H   -1.4123773934   -5.8317327573    1.2423388943
 H   -3.6287494955   -2.2326859097    0.2634449451
 H   -3.1468933890   -3.2384698409   -1.1245700507