19

 C    0.4073622688    1.4008699812   -0.2934329952
 C   -0.0515380548    0.0085157001    0.1542970699
 O   -0.0012356090   -0.8751791173   -0.9854297883
 C    1.0052690071   -1.7470642818   -1.2144973562
 O    1.0186792224   -2.3728581685   -2.2395446338
 C    2.0713594252   -1.9047430542   -0.1413526142
 C    1.6770352105   -1.3844409266    1.2075438198
 C    0.6966180729   -0.4989580692    1.3623551838
 C    0.2719329083    0.0516702597    2.6951871373
 H    1.4729274712    1.3929704895   -0.5418069926
 H   -0.1570905993    1.7121390660   -1.1759931350
 H    0.2447655922    2.1361253584    0.4999228371
 H   -1.1212333199    0.0553351172    0.3934085826
 H    2.3269902554   -2.9683314606   -0.1120860205
 H    2.9773268142   -1.4023421761   -0.5113487026
 H    2.2271237656   -1.7537642536    2.0692873232
 H    0.8771613504   -0.3661259448    3.5034261446
 H    0.3672029973    1.1436266048    2.7341915059
 H   -0.7806259186   -0.1789107041    2.9022609942