18

 O   -0.0938071947    1.4041192935    0.0354120267
 C    0.0595613355    0.0221630725    0.0044899723
 C    0.9378813278   -0.7970244362    0.9997551906
 C    0.7448716432   -1.9037773474   -0.0788934775
 C   -0.7807248021   -2.1470249857   -0.0694651803
 C   -1.2761874660   -0.7464977164   -0.0063857596
 N   -1.4442848364   -1.5367461911   -1.2455217764
 C   -0.3686549824   -1.1122123792   -2.1604915202
 C    0.7280963139   -0.7798542128   -1.1668565573
 H    0.7793464669    1.8072470322    0.0755764755
 H    1.9705291386   -0.4342722128    1.0545467077
 H    0.5499305171   -0.9779345177    2.0060677528
 H    1.4057567438   -2.7655615708   -0.1463579554
 H   -1.2483271784   -3.0073756151    0.3918025391
 H   -2.1543890750   -0.3847010265    0.5123784206
 H   -0.1159322816   -1.9287961508   -2.8447754277
 H   -0.6980736610   -0.2461088958   -2.7439635386
 H    1.6967589309   -0.4228185199   -1.5140616123