17

 C    0.0088869932    1.5162230017    0.0234472658
 C   -0.0157361971    0.0248542834    0.0013873105
 C    0.9774106392   -0.9960670070   -0.4934763556
 C    0.6134072314   -0.9904101911    0.9709032099
 C   -0.5176113082   -1.9997083369    0.6232480644
 C   -1.0632296391   -3.1955213664    1.3240473746
 C   -1.1264183951   -1.0160176994   -0.3139940268
 N   -0.1122073129   -2.0107251680   -0.8305431072
 H    1.0063600480    1.8808600213    0.2924818587
 H   -0.2449509575    1.9366402560   -0.9568029470
 H   -0.6998766339    1.9205603969    0.7556630264
 H    1.9242948047   -0.9090157564   -1.0130055582
 H    1.2083167135   -0.8086252277    1.8556421168
 H   -1.5670529002   -2.9144454755    2.2556931965
 H   -1.7875647376   -3.7052574964    0.6808904423
 H   -0.2666208470   -3.9075427062    1.5672978203
 H   -2.1230210212   -0.9385369882   -0.7358459314