19

 C    0.2741006843    1.4497821473   -0.0619484042
 C   -0.1808935777    0.0035849399    0.0342321580
 O   -0.6925281288   -0.4586243420    1.0212080435
 C    0.0659742450   -0.8298222657   -1.2228583717
 O   -0.2603201809   -2.1693819848   -0.9892199130
 C   -0.1532194493   -2.9836737703   -2.1242635880
 C    1.2520047185   -3.5008967032   -2.5243719276
 O    0.8157720546   -4.8682169527   -2.3922106583
 C   -0.4533912584   -4.4614945976   -1.8361371010
 H    1.3687768021    1.4943977514   -0.0160539852
 H   -0.0268816306    1.9054033234   -1.0112633120
 H   -0.1375209373    2.0180472744    0.7727371583
 H   -0.5417948028   -0.3995327514   -2.0405301933
 H    1.1203986555   -0.7048566329   -1.5274223290
 H   -0.7209082398   -2.5588237719   -2.9642505836
 H    1.6057416618   -3.2784333270   -3.5376364281
 H    2.0303388459   -3.2391031359   -1.7943951133
 H   -0.5282742427   -4.6692322404   -0.7618827422
 H   -1.2998153594   -4.9142423608   -2.3630444393