17

 C    0.1641737843    1.4272981870   -0.4400073288
 O    1.5547863046    1.4356265088   -0.0434517413
 C    1.4529273967    0.1258036853    0.5446059076
 C   -0.0066626646   -0.0243289332    0.0483300304
 O   -0.0503540713   -1.0288798011   -0.9506875305
 C    1.2393719750   -1.5418408426   -1.2099968390
 C    2.1397489653   -0.8461172858   -2.2616952552
 O    3.1064296190   -0.4928929404   -1.2452600695
 C    2.2530462038   -0.9703656673   -0.1958770860
 H   -0.4184713293    2.1708158185    0.1178421387
 H    0.0269919560    1.5810068952   -1.5154100595
 H    1.6358648595    0.1441804074    1.6233138864
 H   -0.8097427952   -0.2091188445    0.7647137744
 H    1.1648807971   -2.6258120794   -1.3155980567
 H    2.5791912694   -1.4956569509   -3.0267240877
 H    1.6887947796    0.0324987320   -2.7357983643
 H    2.7731127500   -1.6473915188    0.4880738009