16

 O    0.0986639647    1.3586764006   -0.1883951315
 C   -0.0454339166   -0.0237998352   -0.2645518786
 C   -1.4580746999   -0.4597829615    0.0842965416
 O   -2.2941249836    0.3731332424    0.3684467591
 C   -1.7549281135   -1.9211564630    0.0561287794
 C   -2.9302036154   -2.4224403002    0.8565425928
 C   -3.0377232389   -2.4087883164   -0.6427636865
 C   -3.9147196001   -1.4936224870   -1.3210394353
 N   -4.6364050001   -0.8035845887   -1.9036898811
 H   -0.7827674296    1.6983347226    0.0347583032
 H    0.1850528741   -0.4050839913   -1.2752360813
 H    0.6506258233   -0.5380117479    0.4206158597
 H   -0.8991872776   -2.5759551582   -0.0682174099
 H   -2.8465554882   -3.3859246672    1.3439417781
 H   -3.4844313299   -1.6591220710    1.3895827332
 H   -2.9365758087   -3.3619908780   -1.1512440129