17

 C    0.0954728263   -1.1894649649    0.2732319996
 C    0.0305646550    0.0089503807    0.1821108825
 C   -0.0158799996    1.4364680169    0.0601756199
 C    0.7009772441    2.3020633879    1.0933621636
 C    1.2438852074    2.1953937566   -0.3142825802
 N    2.4283870615    1.4591515771   -0.6415127109
 C    3.6521571004    2.0526019399   -0.1182395461
 C    4.8257265177    1.2655376298   -0.5067786110
 N    5.7519218035    0.6372354044   -0.7914984667
 H    0.1348738986   -2.2474140262    0.3580129611
 H   -0.9423379635    1.8316251966   -0.3443812899
 H    0.2136369536    3.2197070654    1.4038625130
 H    1.2240074657    1.7705361686    1.8804655967
 H    1.0865690365    3.0614632464   -0.9535172307
 H    2.3411024760    0.4866730805   -0.3646827754
 H    3.7631440967    3.0616479832   -0.5348433641
 H    3.6654464102    2.1677156073    0.9800958685