14

 O   -0.0604592685    1.4086916110    0.0891621014
 C    0.0312034850    0.0304038747    0.0660983206
 C    0.9343151699   -0.7162906279    1.0394390172
 C    0.7036962101   -2.0058194543    0.7825485138
 C   -0.3260548956   -1.9892037564   -0.3296810670
 C   -1.2989297969   -0.7859488827   -0.0673480270
 O   -1.4024995153   -0.5001539905   -1.5013066709
 C    0.0150084887   -0.7996841688   -1.2886219458
 H    0.8143107724    1.7804544400   -0.0651832253
 H    1.5879727847   -0.2575061061    1.7689964858
 H    1.1308864227   -2.8841920107    1.2457932964
 H   -0.7336105845   -2.9014715450   -0.7577415583
 H   -2.2076927849   -0.7354216468    0.5370314572
 H    0.6850326021   -0.7653943865   -2.1519101082