14

 N   -0.0160322824   -1.0818679984    0.0328686072
 C   -0.0480427303    0.0734294077    0.0257279986
 C   -0.0621356803    1.5139310699   -0.0277487997
 O   -0.9733013320    2.1737891742    0.8724706898
 C   -0.8423721421    3.3142038977   -0.0111815664
 C    0.6544670507    3.7291991044   -0.0339798732
 C    0.9256441432    3.0335486543   -1.3502041840
 C    1.2687275137    2.3317741986   -0.0598010434
 C   -0.4988308213    2.4158638980   -1.2419651231
 H   -1.6440730665    4.0428994172    0.0785706148
 H    1.1458684377    4.5773694181    0.4208918854
 H    1.5417082904    3.3082701188   -2.1922991386
 H    2.2260170773    2.0814004566    0.3732087503
 H   -1.1869865183    2.1065835928   -2.0228060878