15

 C    0.0721588455    1.5541390398    0.0106326852
 C   -0.0779630669    0.0738592617    0.1249259839
 C   -1.3635039152   -0.7685429014    0.0186067792
 C   -0.6918499287   -1.8277229701    0.9770621762
 C   -0.5364659007   -3.1914988425    0.4958113219
 N   -0.4166729657   -4.2769439757    0.1169794647
 C    0.5709514824   -0.9347629940    0.9836587896
 O    0.9789859375   -0.7650477305   -0.3695567669
 H    1.0882966787    1.8554817287    0.2771670547
 H   -0.1229870991    1.8833959788   -1.0159559974
 H   -0.6341055615    2.0691171378    0.6693873938
 H   -2.2422555575   -0.3096155555    0.4755989519
 H   -1.6022530306   -1.1173420147   -0.9870993841
 H   -1.1825982607   -1.8384810117    1.9537535811
 H    1.3268944124   -0.8632387407    1.7570815460