23

 C   -0.8530635650    1.3061766237    0.1013315178
 C   -0.0410458266    0.0272965028   -0.0461170531
 C    1.2222422367    0.0439579822   -0.9544485749
 C    2.0315961479   -0.7050429287    0.1452448247
 C    3.2343302038    0.0365573278    0.7364419058
 C    2.5991194942    1.1644336074    1.5775332998
 C    1.3394658600    0.5118170951    2.1828390605
 C    0.8398973417   -0.5072249374    1.1348150304
 O    0.3832867400   -1.7138355528    1.7203094713
 H   -0.2246180472    2.1573277307    0.3856782787
 H   -1.3437690713    1.5646585360   -0.8436902191
 H   -1.6376181497    1.2040407011    0.8605180101
 H   -0.6990669882   -0.7957836613   -0.3429876987
 H    1.1274848681   -0.4721041805   -1.9123980138
 H    1.5984685646    1.0531330356   -1.1512387617
 H    2.2284770737   -1.7506053730   -0.0965116255
 H    3.8025716166   -0.6375185385    1.3887580874
 H    3.9246073515    0.4106730587   -0.0269274816
 H    3.2746839766    1.5591867863    2.3417736330
 H    2.3225348139    2.0084243559    0.9348574751
 H    1.6150103163   -0.0644602834    3.0733097445
 H    0.5806866283    1.2416235542    2.4831678282
 H   -0.3430701557   -1.5006119920    2.3163574812