21

 O    0.0055703994    1.3713777444    0.0278125017
 C   -0.0725790188   -0.0290363625    0.2517526941
 C   -1.4108441902   -0.5200112025   -0.2893408847
 C   -1.5570883014   -2.0230162761   -0.1506472138
 C   -1.9090658038   -2.7624813801    1.1116680038
 C   -2.9621332578   -2.0043126217    1.9287911977
 C   -3.9412781368   -2.1281700790    0.7076496310
 O   -4.4925817093   -0.9654732913    0.1250736386
 C   -2.8479254403   -2.8008903798   -0.1113239294
 H    0.8490938717    1.6826419900    0.3683437676
 H    0.7520648733   -0.5591868699   -0.2542378066
 H    0.0033636440   -0.2671645457    1.3255574780
 H   -2.2226785523    0.0070370388    0.2145449281
 H   -1.4819690717   -0.2432354882   -1.3479907528
 H   -0.8090823898   -2.5700720828   -0.7252371910
 H   -1.2936396850   -3.5656272608    1.4983180516
 H   -3.3156823030   -2.5488149086    2.8073276826
 H   -2.6987389753   -0.9852722393    2.2273449352
 H   -4.7330045987   -2.8530076328    0.9414941783
 H   -5.1873651236   -0.6377334197    0.7052463101
 H   -3.0291920406   -3.6119977923   -0.8069636300