23

 C    0.0281835359    1.6467782407    0.2680617554
 C    0.0325051576    0.1193757009    0.1367455092
 C    0.6357920277   -0.3994534248   -1.1966383694
 C    1.4291868713   -1.6820333420   -0.8626472709
 C    0.8644566183   -3.0856383412   -1.2882479712
 C    2.2987884663   -3.5167956615   -1.6877653946
 C    2.7088886502   -2.0215944803   -1.6909576055
 C    1.6360316343   -1.5516514904    0.6260020147
 C    0.8835929904   -0.5945621400    1.1650558523
 H    1.0455694137    2.0467122818    0.1933461795
 H   -0.5744505948    2.1085348317   -0.5215225154
 H   -0.3869369625    1.9634452586    1.2311495747
 H   -1.0080453969   -0.2266166727    0.2363983339
 H   -0.1193710179   -0.5630056217   -1.9717073831
 H    1.3342749151    0.3532898506   -1.5841632061
 H    0.3506546704   -3.6700691148   -0.5203876028
 H    0.2065697021   -2.9980377227   -2.1587792536
 H    2.7957249107   -4.0775933155   -0.8911013245
 H    2.4160725016   -4.0729750124   -2.6207059999
 H    2.6540953586   -1.5863964235   -2.6940738776
 H    3.6721247982   -1.7512818444   -1.2487810860
 H    2.3009885316   -2.2109886019    1.1758753825
 H    0.8419278579   -0.3500440048    2.2220136584