15

 C   -0.1900577738    1.2660217350   -0.4387627516
 C   -0.0336103495   -0.1598316566   -0.2074949708
 C    0.0967602642   -1.3431744514   -0.0164614148
 C    0.2249627517   -2.7398198368    0.2042833161
 C   -0.9802562989   -3.6488142257    0.0638202419
 O   -2.1123387909   -2.8851886215   -0.2907336132
 N    1.3901200349   -3.1883811893    0.5227768801
 O    1.3475002795   -4.5773606998    0.7046916787
 H    0.7487312768    1.8020967123   -0.2628625958
 H   -0.5024941726    1.4665746642   -1.4697807293
 H   -0.9497575743    1.6925897765    0.2257789087
 H   -0.7388161384   -4.4163763485   -0.6878809306
 H   -1.1147200671   -4.1814896137    1.0181314865
 H   -2.8570950665   -3.4876297691   -0.3720719907
 H    2.2605344349   -4.7797467955    0.9338355548