21

 C   -0.0266643750    1.4677278718    0.2637724184
 C    1.4763514904    1.6074351294   -0.1760849688
 C    1.3200278608    0.2375746330   -0.8479243908
 C    2.0255535954   -1.1036802697   -0.9964462422
 C    0.7977936466   -1.7480418256   -1.7239074812
 C    0.8027453972   -0.9485055440   -3.0506785645
 C    0.3635095423    0.2049441593   -2.1485741470
 C   -0.4210091645   -0.7836984811   -1.2390737743
 C    0.0675027726   -0.0815398965    0.0138008755
 H   -0.2521779943    1.7534955881    1.2927996420
 H   -0.7210933629    1.9907643557   -0.3969019420
 H    1.7525191364    2.4587839183   -0.8052946725
 H    2.1479389573    1.5767186417    0.6883065826
 H    2.9160712107   -1.1311916236   -1.6325479387
 H    2.2696551000   -1.5525424283   -0.0293306791
 H    0.7085184706   -2.8340695259   -1.7052180754
 H    1.7432228861   -0.8866293040   -3.6088052638
 H   -0.0073120076   -1.2423168056   -3.7257562742
 H   -0.0254344935    1.1525517763   -2.5179348720
 H   -1.4297388902   -1.1448817270   -1.4539128446
 H    0.1869730215   -0.6566164224    0.9372212728