18

 C    0.0159246434    1.5472918166   -0.0037277236
 C   -0.0684003275    0.0136291774    0.0000904062
 C    0.6837163429   -0.5764986694   -1.1600375676
 O    0.1399147393   -0.2321564450   -2.4647803487
 C    0.1594272242   -1.6088859674   -2.9020794830
 C    0.8336388812   -2.0691279486   -1.5955505601
 N    2.2803570040   -1.8805111826   -1.5387644916
 C    2.2433907961   -0.5308977615   -1.2216591777
 O    3.1001639799    0.3006509798   -1.1007231812
 H    1.0564343445    1.8770944735    0.0558092241
 H   -0.4151012127    1.9506506570   -0.9240420019
 H   -0.5327185671    1.9657870220    0.8444941465
 H    0.3537280538   -0.3889494753    0.9291414378
 H   -1.1144034802   -0.3114205482   -0.0500628898
 H   -0.8592660255   -1.9920310820   -3.0369829679
 H    0.7342530326   -1.7535515277   -3.8234823768
 H    0.4439953255   -2.9302773791   -1.0543007568
 H    3.0170113056   -2.4063773895   -1.9899141179