19

 O   -0.0904569932    1.3710359087    0.0547322433
 C   -0.0276444200   -0.0311161646    0.0731439848
 C   -0.6174691854   -0.7824757247    1.2506062714
 C   -1.3655480503   -0.7007295253   -0.0724350114
 O   -2.4716026954    0.1514450607   -0.1332020420
 C   -1.5363618137   -1.9270364613   -0.9350346420
 C   -2.7501284927   -2.7742124037   -0.4945789163
 C   -2.9402018605   -3.9595319948   -1.3203164623
 C   -3.0716250020   -4.9312235230   -2.0159848850
 H    0.3882592350    1.7121923886    0.8168866211
 H    0.8385153880   -0.4516413125   -0.4354796036
 H   -0.1482339188   -1.7146130029    1.5483688179
 H   -1.0210809312   -0.1858850126    2.0622670667
 H   -2.1169729636    1.0520297625   -0.1276484870
 H   -1.6730720532   -1.6178461168   -1.9769698060
 H   -0.6285754480   -2.5379441281   -0.8924170757
 H   -2.6238582802   -3.0713801108    0.5544726977
 H   -3.6469321737   -2.1456571207   -0.5291515620
 H   -3.2024464211   -5.7911970686   -2.6243629895