23

 C    0.0471723410    1.6117233000    0.0003533771
 C    0.0435119252    0.0786879854    0.0303166372
 C    0.7715452500   -0.5739362593   -1.1765716095
 C    1.5096727795   -1.8306766799   -0.6296880307
 C    0.7148448467   -3.1264228191   -0.8921103516
 C    2.9106008696   -1.9492100298   -1.2425152084
 O    3.5654349239   -3.0734188488   -0.6700478140
 C    1.5683632457   -1.5329873101    0.8588022958
 C    0.7757419236   -0.5241233307    1.2100579177
 H    1.0722294892    1.9989366225   -0.0054033717
 H   -0.4616739816    1.9901523877   -0.8928059681
 H   -0.4635017111    2.0278415428    0.8755330167
 H   -1.0071742529   -0.2489545259    0.0558248858
 H    0.0910985483   -0.8183465903   -1.9975453405
 H    1.5058731046    0.1400455880   -1.5714334835
 H    0.6394259607   -3.3231815590   -1.9682021754
 H    1.2058684361   -3.9846538976   -0.4274960391
 H   -0.2989505849   -3.0474057804   -0.4879499499
 H    2.8236574048   -2.0567343436   -2.3370010577
 H    3.4711847724   -1.0229042903   -1.0415533476
 H    4.4469182376   -3.1350189115   -1.0482018631
 H    2.1734791456   -2.1329864904    1.5287723569
 H    0.6284416960   -0.1656785898    2.2244167236