21

 C    0.0972918261    1.5500412397   -0.0552680519
 C   -0.0358396372    0.0431489881    0.1368279469
 O    0.4630989386   -0.6290945500   -1.0448076955
 C    1.2087875342   -1.7654835964   -0.6292622666
 C    0.5211360453   -3.0473691468   -1.0868199792
 C    2.7818415276   -1.8212717714   -0.7722529732
 C    2.8619877522   -2.1601402198    0.7670167618
 C    1.4758946288   -1.5588514006    0.8316611752
 C    0.8202426384   -0.4967904943    1.2802151584
 H    1.1505598864    1.8346970234   -0.1366454318
 H   -0.4168094597    1.8565702916   -0.9706328363
 H   -0.3493496383    2.0875470477    0.7877980935
 H   -1.1038644521   -0.2052367891    0.2563546924
 H    0.4872506520   -3.0793432457   -2.1806345858
 H    1.0558535749   -3.9364147544   -0.7373159826
 H   -0.5049484646   -3.0894388981   -0.7101083882
 H    3.1939766434   -2.5596271374   -1.4652560661
 H    3.1863725930   -0.8305167189   -0.9841695219
 H    2.8931511486   -3.2402800103    0.9379105543
 H    3.6428757276   -1.6823238102    1.3606869416
 H    0.9561478550    0.0420053930    2.2101482549