14

 C   -0.0548355239    1.5332580970    0.0109241569
 C    1.4337920705    1.8694471932   -0.0017528254
 C    2.1902284089    0.7495389363   -0.0150485885
 C    1.2675542191   -0.3664356846   -0.0119597680
 C   -0.0370566944    0.0319990587    0.0028301940
 C   -0.8104521460   -1.1668013698    0.0039244736
 C    0.1005621643   -2.1860953039   -0.0102609541
 O    1.3903577865   -1.7098081924   -0.0203005617
 H   -0.5475105944    1.9572241945    0.8957103313
 H   -0.5645457875    1.9664653661   -0.8596221581
 H    1.8039694639    2.8859294192    0.0000427938
 H    3.2697849715    0.6905729507   -0.0258569368
 H   -1.8832372477   -1.2859289631    0.0136944136
 H    0.0077876892   -3.2594033020   -0.0150194307