18

 C   -0.0484149288    1.6070649466   -0.1879424315
 C   -0.0619242201    0.1107306388    0.0299589791
 C    1.1948536110   -0.7053264702   -0.1325738629
 N    0.5986994726   -0.5436111230    1.1764012181
 C    1.2886392938    0.2679767776    2.1665924702
 C    2.0296716928   -0.6356606048    3.1442568240
 O    3.0141275345   -0.3021543875    3.7477166054
 C   -1.3433958019   -0.5824554270   -0.3247819973
 O   -2.2637103320   -0.0557301102   -0.8958609398
 H    0.9479641617    2.0339664169   -0.0613667865
 H   -0.3945990865    1.8260350869   -1.2008607264
 H   -0.7350979832    2.1080947865    0.5017680008
 H    1.1632246737   -1.7063307812   -0.5559990629
 H    2.0930130130   -0.1358817909   -0.3687176371
 H    1.9998533396    1.0020215355    1.7637746745
 H    0.5389927643    0.8194924842    2.7517496385
 H    1.5654593443   -1.6386488708    3.2669665610
 H   -1.3714350186   -1.6478590375   -0.0066453274