21

 O    0.4730774688    1.2096147362   -0.4473100117
 C    0.1017218056   -0.1304237173   -0.1199227685
 C    0.6885912785   -0.5504549398    1.2074466208
 C   -0.2421054322   -0.8234319042    2.1220351045
 C   -1.6411026586   -0.7145033708    1.5800263747
 C   -2.5234655354    0.4326079751    2.1315800185
 C   -3.3819942567    0.8277474355    0.9187456070
 C   -2.3934478895    0.7758146434   -0.2628715356
 C   -1.4366225986   -0.3943840905    0.0619655670
 H    0.4083916107    1.7309403825    0.3605257146
 H    0.4934659921   -0.7189265787   -0.9561789036
 H    1.7607847731   -0.5468153444    1.3746512324
 H   -0.0373244405   -1.0952416083    3.1531615839
 H   -2.1807078109   -1.6614601458    1.7070530046
 H   -3.1124058923    0.1416669921    3.0063729616
 H   -1.8901189729    1.2775783019    2.4306984513
 H   -4.1802313164    0.0881548349    0.7772415867
 H   -3.8634377692    1.8040544057    1.0317385192
 H   -2.8948298205    0.6519026144   -1.2265577117
 H   -1.8247224305    1.7083854665   -0.3262081930
 H   -1.6940332845   -1.2730277583   -0.5350007127