20

 C   -0.0836503385    1.4508844987    0.0734119706
 C    0.0887017621   -0.0404509774    0.0312083778
 C    0.1093145331   -0.8710977026   -1.2069131602
 C    0.9773303026   -2.0911868375   -0.9865268791
 C    0.6807020673   -2.2449730730    0.4947216415
 C   -0.8502173998   -2.0177219050    0.6858831719
 C   -0.5262003481   -1.2675945096    1.9978179199
 C    0.7293561945   -0.8353583733    1.1828725018
 N   -1.0814735533   -0.9102815184   -0.3015202398
 H    0.8803553944    1.9624116949   -0.0281198175
 H   -0.7364562015    1.7850749182   -0.7376001905
 H   -0.5355416970    1.7704286101    1.0193511446
 H   -0.0597465737   -0.4462418930   -2.1907872098
 H    0.6558539838   -2.9564356926   -1.5769935517
 H    2.0336228308   -1.8948098401   -1.2011063454
 H    1.1305278098   -3.0673903595    1.0474363163
 H   -1.5929094340   -2.8119748732    0.6140680438
 H   -1.2254374246   -0.4944060555    2.3267862071
 H   -0.2866704193   -1.9422464862    2.8237154765
 H    1.6295291014   -0.4323840848    1.6473995823