16

 C   -0.0685563189    1.5442556789    0.0872054003
 C    1.4119216726    1.9576148968   -0.0854355200
 O    1.9277672191    1.6464275323   -1.4962177284
 C    1.6349939403    0.3064401927   -1.3352324423
 N    0.4048571766   -0.0486941508   -1.4677199710
 C    0.0154268017   -0.0298553543   -0.0286916743
 C    1.2730353605   -0.3325416019    0.8418853928
 C    2.1375533253    0.9324160820    0.8201395579
 C    2.4076398029   -0.2073482794   -0.1102645286
 H   -0.3670959126    1.8269449147    1.1063805790
 H   -0.7449836410    1.9896127197   -0.6424642420
 H    1.6423375529    3.0087079374    0.0656401617
 H   -0.8954546965   -0.5787894836    0.2124539333
 H    1.2459012361   -1.0140124905    1.6814797796
 H    2.7873846064    1.2332470101    1.6313022938
 H    3.3069896745   -0.8045710142   -0.1654085517