16

 C   -0.2882501991    1.2304776858   -0.0574907786
 C   -0.0327692699   -0.2592487583   -0.1632246418
 O   -0.4785790199   -1.0650135103    0.6142277706
 C    0.8379466270   -0.6872526907   -1.3486613734
 O    0.9734541461   -2.0958725569   -1.4228177257
 C   -0.1067192520   -2.7534402118   -1.9205852879
 C    0.0849203180   -4.2427607672   -1.8073507709
 O   -1.0656209944   -2.1925325606   -2.3832830797
 H    0.6350257079    1.8060408485   -0.1835966747
 H   -0.9716292530    1.5369993241   -0.8582181678
 H   -0.7437325899    1.4591314443    0.9064944510
 H    0.4138932036   -0.2832060381   -2.2739930324
 H    1.8485686975   -0.2865728110   -1.2197550632
 H   -0.6922867686   -4.7542216635   -2.3737734929
 H    1.0756271467   -4.5330692826   -2.1649790525
 H    0.0177927400   -4.5290420017   -0.7532404002