21

 C    0.1143902756    1.4950513646    0.2588113176
 C    0.1590431877    0.0004159046    0.0497044431
 C   -0.9394325347   -0.8730329124    0.6132899162
 C    0.4622819052   -0.9733787706    1.1689035197
 C    1.3544954988   -2.0955770217    0.6271213501
 C    1.1536645385   -2.0126518114   -0.9188211265
 C    0.8483574490   -0.5283568585   -1.2057239779
 C    2.7471461591   -1.8836819427    1.0155313184
 C    3.8924639790   -1.6988359081    1.3325224636
 H    1.1210809985    1.9280627703    0.2273509736
 H   -0.4831280204    1.9880556932   -0.5174362619
 H   -0.3294185521    1.7499886631    1.2265327380
 H   -1.6762499361   -0.3873374828    1.2447375732
 H   -1.3427519626   -1.6897210320    0.0229195684
 H    0.6477189585   -0.6269797228    2.1793203360
 H    1.0373333132   -3.0784891260    0.9980359930
 H    2.0260389606   -2.3809363213   -1.4613407937
 H    0.3064184487   -2.6430049144   -1.2031223215
 H    0.2470882547   -0.4000020028   -2.1129294501
 H    1.7815841320    0.0285352360   -1.3543370713
 H    4.9036736668   -1.5436970141    1.6163382521