20

 C    0.0211345798    1.5085083321    0.0311749400
 C    0.0208317647    0.0166788703   -0.0330519684
 C    0.0768052119   -0.8447167202   -1.1057252101
 C    0.0361149439   -2.1865153878   -0.6131447610
 C    0.0980022836   -3.4481789364   -1.4223850091
 C    1.4960880405   -3.7255001164   -1.9779391910
 O    1.4353788387   -4.9238450283   -2.7384993421
 C   -0.0422708957   -2.0943143902    0.7575766206
 N   -0.0497328708   -0.7621445228    1.0981220237
 H    0.8744961103    1.9007534433    0.5991113247
 H    0.0801495105    1.9226920657   -0.9778916806
 H   -0.8897987407    1.9051572060    0.4975357145
 H    0.1331414841   -0.5447661226   -2.1424027354
 H   -0.2049123464   -4.3073138340   -0.8137483041
 H   -0.5980275913   -3.4036109897   -2.2688006007
 H    1.8227334946   -2.8742656020   -2.5960257425
 H    2.2087580272   -3.8132432547   -1.1426623202
 H    2.3130133546   -5.1012201790   -3.0885620890
 H   -0.0988854168   -2.8639299956    1.5113825263
 H   -0.1162679327   -0.4070034877    2.0359552442