15

 O   -0.1486998731    1.3278150287    0.0237482916
 N   -0.0078769483   -0.0623438622   -0.0099839049
 C   -1.1383337666   -0.6383771622   -0.0156258087
 C   -2.5203750283   -0.0232099242    0.0230805441
 C   -3.4160443376   -1.2344082336    0.0512958860
 C   -2.7442771731   -2.3827409229    0.0191994867
 C   -1.2388155206   -2.1682288208   -0.0305897932
 C   -0.6193718421   -2.7826660434   -1.2103921860
 N   -0.1500651988   -3.2859549346   -2.1385433500
 H    0.7665109552    1.6294754616    0.0116807350
 H   -2.6363907882    0.6253839830    0.9010920918
 H   -2.6935269467    0.6233304303   -0.8473603671
 H   -4.4958019662   -1.1545186234    0.0965211665
 H   -3.1698661277   -3.3777260304    0.0213644367
 H   -0.7429314180   -2.5914705560    0.8534170715