19

 C   -0.0310718692    1.5123154338    0.0163342133
 C   -0.0148342040   -0.0083385985    0.0017442823
 C   -1.3309161523   -0.6720154738   -0.4762334220
 C   -1.6789699976   -1.6374221792    0.6355975208
 C   -0.7956819255   -1.6458852646    1.6355029665
 C    0.3381865891   -0.7032002280    1.3773344363
 C    1.6303803591   -1.2549504621    0.7101122402
 O    1.2458068215   -2.0244501675   -0.4319268467
 C    1.2982519395   -0.6029863225   -0.5657302486
 H    0.9118697976    1.9195099364    0.3988702488
 H   -0.1823369365    1.9149749701   -0.9922910510
 H   -0.8408567156    1.8877404403    0.6509762946
 H   -2.1274271358    0.0673434933   -0.6351470738
 H   -1.1983346397   -1.1979255175   -1.4300005317
 H   -2.5698991696   -2.2563074545    0.5945799420
 H   -0.8620200975   -2.2725209050    2.5181711465
 H    0.5680313633   -0.0098340838    2.1930279652
 H    2.5878169301   -1.4878350313    1.1628134755
 H    1.9350918831   -0.1996037355   -1.3470878081