19

 O   -0.0097454375    1.3490446271   -0.3217603338
 C    0.0304252333   -0.0074383083    0.0808565041
 C   -1.3679304914   -0.5639807158    0.2173412159
 C   -2.2965931914    0.0129953720    1.2825344383
 C   -3.5847205057   -0.8445736153    1.1295512203
 C   -3.1273808941   -2.0680283086    0.3307766742
 C   -2.4556191778   -1.7895810820   -0.9992624304
 O   -2.0737505021   -0.4153445884   -1.0822934169
 C   -1.6155849247   -2.0911026198    0.1985889932
 H   -0.5464635377    1.3694980017   -1.1237756296
 H    0.5984086593   -0.6239333006   -0.6326191650
 H    0.5499358973   -0.0415276093    1.0450318190
 H   -1.8458665276   -0.1194125684    2.2732471050
 H   -2.4645284011    1.0806906850    1.1259540730
 H   -3.9926613746   -1.1401619202    2.1000238710
 H   -4.3673367275   -0.2950297395    0.5985124532
 H   -3.6559962396   -3.0112303521    0.4167403193
 H   -2.6414138768   -2.3236208016   -1.9239313049
 H   -0.9307230505   -2.8911587359    0.4433249441