18

 C   -0.1501239167    1.5111869104    0.0847478133
 C   -0.0146911263    0.0191474540   -0.0810664551
 C    0.7015667956   -0.6696068898   -1.2169494786
 C    1.6687929814    0.0617837572   -2.0722083049
 C    2.7159567029    0.4798271654   -1.3427397373
 C    3.9210674059    1.2679940456   -1.7331278222
 C    2.4434535000    0.1357952742    0.0864443732
 O    3.0586985533    0.5037232629    1.0562025493
 N    1.2660370909   -0.6930738393    0.1366774713
 H    0.6150240604    2.0638489770   -0.4632862642
 H   -1.1325312685    1.8323420003   -0.2752098436
 H   -0.0732087007    1.7801621204    1.1431400055
 H   -0.8527042866   -0.5435354521    0.3285103979
 H    0.2862777067   -1.6040461840   -1.5879105331
 H    1.5340115929    0.1960624759   -3.1390532874
 H    4.0143792692    2.1565904695   -1.0998454164
 H    4.8331078281    0.6818138985   -1.5738484532
 H    3.8857511616    1.5779294941   -2.7802100345