25

 C    0.0267455856    1.3580287383   -0.0366847616
 O   -0.0097114604   -0.0470983586    0.0140282377
 C   -1.3151113734   -0.6194560886   -0.0010969755
 C   -1.8659546025   -0.6553048504   -1.4314365638
 C   -1.2082958346   -1.9959134861    0.7137747113
 C   -0.1674909976   -2.9031308699    0.0315434108
 C   -0.7925727305   -1.7481264461    2.1775329904
 C   -2.5867088168   -2.6805106652    0.6924683588
 O   -2.5248012683   -3.8563629652    1.4891381866
 H    1.0743904602    1.6559714330    0.0573318202
 H   -0.3622752949    1.7623091829   -0.9831413699
 H   -0.5446301202    1.8103085385    0.7893256445
 H   -1.9824518283    0.0139493789    0.6092832149
 H   -1.8532634772    0.3472106873   -1.8689520315
 H   -1.2660685745   -1.3075515020   -2.0714863368
 H   -2.9033491684   -1.0012323280   -1.4535887707
 H    0.8166145157   -2.4299948904    0.0373037974
 H   -0.1064779790   -3.8570415016    0.5606101262
 H   -0.4340704018   -3.1187522637   -1.0084988369
 H   -1.5353182152   -1.1308529260    2.6972619890
 H   -0.7096157149   -2.6931277317    2.7170894845
 H    0.1666436736   -1.2283712430    2.2143721962
 H   -3.3499492638   -1.9849406869    1.0819135206
 H   -2.8649329972   -2.9344955654   -0.3406187678
 H   -3.3665324256   -4.3135813201    1.4120864853