17

 C   -0.1060796347    1.5358477695    0.0219472250
 N    0.0864132505    0.0930747658    0.1357460774
 C    1.3502575240   -0.5597063111   -0.1989606694
 C    2.5283807614    0.2294798089    0.3293056200
 O    3.5957951449    0.5270827228   -0.1257138566
 C    1.9332440481    0.2958018633    1.7608409717
 C    0.7617873963   -0.5571865249    1.2244706747
 C    0.0912681632   -1.6728208238    1.9693330886
 H    0.7346887287    2.1547823665    0.3606779423
 H   -0.2990608021    1.7715532255   -1.0282526422
 H   -0.9932952283    1.8122918235    0.5998013202
 H    1.3604833649   -1.3158032211   -0.9773134908
 H    2.5866761165   -0.2449583690    2.4524937809
 H    1.6969070525    1.2733577449    2.1886920284
 H   -0.5110183595   -1.2786117869    2.7962101028
 H   -0.5735061707   -2.2273722076    1.3026675152
 H    0.8287007942   -2.3617945363    2.3936684618