20

 C    0.0266589206    1.4487672377    0.4802684989
 C   -0.0537270031    0.1314743783   -0.2984739624
 C   -1.4229735803   -0.5117063303   -0.2160240197
 C   -1.6117767333   -1.9762274727   -0.4059308030
 O   -0.4862730377   -2.7314873880   -0.6543245191
 C   -0.6277255960   -4.0981563666   -0.2931494964
 C   -1.8264121843   -1.3721512693    0.9943538067
 C   -0.8717466800   -1.6427311595    2.0269567247
 N   -0.1113988657   -1.8664750928    2.8711835519
 H    1.0144499184    1.9051594679    0.3687508300
 H   -0.7169048065    2.1700891036    0.1231998227
 H   -0.1474665997    1.2857583583    1.5482356906
 H    0.1750806402    0.3072339165   -1.3568050725
 H    0.7019295820   -0.5696006729    0.0645465647
 H   -2.2358931617    0.1105187174   -0.5822885454
 H   -2.5189838549   -2.3286203469   -0.9005547720
 H    0.3060072560   -4.5931842018   -0.5652327263
 H   -0.7972349975   -4.2115218750    0.7844332293
 H   -1.4579628980   -4.5680062035   -0.8400174453
 H   -2.8488610685   -1.2887179403    1.3475697628