21

 C   -0.2458328049    1.5477092113    0.1147503880
 C   -0.1176746589    0.0609964706   -0.1659587919
 O   -1.3577731729   -0.5566298916    0.1640155500
 C   -1.4060768712   -1.9540456923    0.0278124285
 C   -2.6612853475   -2.3973484982    0.7898827663
 O   -3.8302800268   -1.9047919192    0.1675319941
 C   -1.4747610593   -2.4014021280   -1.4475012529
 C   -1.6088579835   -3.8925923600   -1.6970256475
 O   -1.4319346880   -1.6004337271   -2.3496483693
 H    0.6963506508    2.0569466640   -0.1086112745
 H   -1.0311059398    1.9867831873   -0.5069567826
 H   -0.4968135329    1.7246487863    1.1646364644
 H    0.1239081639   -0.1162931803   -1.2191755821
 H    0.6827085110   -0.3819113698    0.4499896785
 H   -0.5200664283   -2.4310917396    0.4863850988
 H   -2.7416276114   -3.4878251554    0.8077366730
 H   -2.5679790874   -2.0441018508    1.8271497253
 H   -3.6860921798   -0.9600110184    0.0331384090
 H   -2.6607721269   -4.1745230067   -1.5721993723
 H   -1.3079798460   -4.1184600674   -2.7210021663
 H   -1.0205476602   -4.4859255448   -0.9902342466