15

 O   -0.8157149903    1.0999673474   -1.1900964311
 C   -0.1714076408    0.2557937513   -0.2348412028
 C   -1.2690074284   -0.6623725990    0.3216117703
 O   -1.7099490085   -0.5318088901    1.4326899205
 C   -1.6970752122   -1.7693720625   -0.6342863501
 C   -0.9346326789   -1.7144903622   -1.9551130616
 O    0.4859505439   -1.5584400574   -1.7468743053
 C    0.9197869002   -0.5739682661   -0.9297717583
 O    2.0928680347   -0.3642300260   -0.7887964427
 H   -0.1504448792    1.7024206131   -1.5428631192
 H    0.2837956199    0.8226860252    0.5814296479
 H   -1.5214593920   -2.7220177685   -0.1211693941
 H   -2.7756016617   -1.6969535759   -0.8068609789
 H   -1.0333693396   -2.6490185032   -2.5087554234
 H   -1.2901106871   -0.8903773360   -2.5774789613