18

 C   -0.0181461079    1.4324787943    0.0306283328
 N   -0.0890209832   -0.0105979123    0.0005414373
 C   -0.0156989920   -0.7815352078   -1.1383697356
 C    0.0588075615   -2.0956640240   -0.7449680141
 C    0.0619679487   -3.5204938228   -1.2177156334
 C    0.3601559476   -4.2540919306    0.1288989611
 O    0.0476544019   -3.3494554773    1.2180193778
 C    0.0318778982   -2.1042246544    0.6637278500
 C   -0.0517553327   -0.8200893852    1.1328295368
 H    1.0014823545    1.7942708541    0.2150592219
 H   -0.3598773302    1.8310949259   -0.9274915031
 H   -0.6715110225    1.8236024400    0.8161699602
 H   -0.0203475690   -0.3139788598   -2.1104172211
 H   -0.9076668024   -3.8249070987   -1.6314732716
 H    0.8238209755   -3.7574282116   -1.9665356814
 H   -0.2318113317   -5.1606350105    0.2730327564
 H    1.4242747450   -4.5133095394    0.1961197426
 H   -0.0897809014   -0.3979674897    2.1222749234