17

 C    0.0921582063    1.4551447979    0.0070663809
 N   -0.0240786455    0.0132538564   -0.0069795957
 C   -0.2253582561   -0.7865129436   -1.1184125821
 C   -0.2012985539   -2.0945000916   -0.7124495285
 C    0.0333732838   -2.1226630388    0.7000808316
 C    0.1300507689   -3.3227526718    1.5928834945
 C    0.1362878143   -0.8025569009    1.0793401730
 O    0.3669792896   -0.2053844598    2.2825194220
 H    1.1370451214    1.7829516119   -0.0503381752
 H   -0.4513411741    1.8649156084   -0.8469190720
 H   -0.3424205193    1.8524191107    0.9266426418
 H   -0.3655503006   -0.3400066386   -2.0892977432
 H   -0.3408163698   -2.9563439894   -1.3481093143
 H    0.5764835556   -3.0741244656    2.5643333289
 H   -0.8458911945   -3.7819551052    1.7974339909
 H    0.7636393846   -4.1002723891    1.1518524250
 H    0.3016459194   -0.8787318408    2.9662683324