18

 C   -0.0171381824    1.5299104772    0.0726128164
 C   -0.0396888227    0.0284769129    0.0200270891
 C    1.1566241688   -0.7956709618   -0.3556341050
 C    0.5820974475   -0.9826606972    1.0387353204
 C    1.3312427028   -0.6765840666    2.2146803020
 N    1.9307879411   -0.4226608118    3.1725819368
 C   -0.6798520295   -1.8141751163    0.9872536294
 C   -1.8828400990   -0.9896193215    1.3570132163
 C   -1.2891626751   -0.8283910948   -0.0176059590
 H    0.9548344155    1.9015992975    0.4104915476
 H   -0.2100655629    1.9532724110   -0.9199100455
 H   -0.7820278530    1.9136378505    0.7548469204
 H    1.0693268232   -1.6174375741   -1.0607706219
 H    2.1011450797   -0.2617919628   -0.3980643134
 H   -0.7003018694   -2.8967809827    0.9532191884
 H   -2.8218142945   -1.5331254381    1.3984006314
 H   -1.7934321418   -0.1958857942    2.0931649658
 H   -1.8442596082   -1.0705691272   -0.9164919192