19

 C   -0.1609011684    0.7743415136    2.0255646576
 C    0.2026042356   -0.1139269836    0.8407160130
 C    0.2077026739    0.4797470117   -0.6060911440
 C    1.6369070106   -0.0631409960   -0.8583895835
 C    2.7227390606    0.9154672528   -1.2855553296
 C    4.1137147458    0.3279656220   -1.3777049892
 O    2.4802409538    2.0835812720   -1.4812937816
 C    1.6867153540   -0.4545692779    0.6475946458
 O    2.5728249675   -0.7945532254    1.3761737657
 H    0.3946482332    1.7169116437    1.9945729140
 H   -1.2292546350    1.0112714448    2.0204809194
 H    0.0749611090    0.2739820266    2.9693144065
 H   -0.3672708481   -1.0514004510    0.8829196581
 H   -0.5682897309    0.1089468251   -1.2759226171
 H    0.2058829095    1.5716005484   -0.6199619308
 H    1.6888721909   -0.9651748016   -1.4785476357
 H    4.1503743874   -0.4368695412   -2.1620305537
 H    4.8404385990    1.1115851371   -1.5946758506
 H    4.3562478517   -0.1715879011   -0.4323887542