15

 O   -0.0281170358    1.4406142856    0.2549400591
 C    0.0507744103    0.0461976163    0.0337452754
 C    0.6090784187   -0.6554325438    1.2850396064
 C   -0.2006747048   -1.6865735535    1.6017419832
 C   -1.3780061681   -1.3453815189    2.5098490841
 N   -2.1599869723   -1.1225610162    1.1997160866
 C   -1.3433690937   -0.6009890855   -0.0086670292
 C   -1.1932990555   -1.9814784610    0.4735319165
 H    0.8324056483    1.8265304473    0.0626423523
 H    0.5446561305   -0.1637334245   -0.9292330549
 H    1.0350979355   -0.0096400358    2.0493519205
 H   -1.8931964049   -2.1651390186    3.0192980646
 H   -1.2733092992   -0.4795413347    3.1686201856
 H   -2.0369019231   -0.3277353211   -0.7981465773
 H   -1.4607898657   -2.9193848156    0.0007230572