18

 O   -0.1139210730    1.4051969095   -0.0062984084
 C   -0.0290495207    0.0301133773   -0.0064593352
 C    0.8178708352   -0.9667578366   -0.8841491762
 C    1.9657347785   -1.0578962694    0.1279697773
 C    0.6883348358   -0.9749689962    0.9715666143
 N   -0.0639976415   -1.9041889781   -0.0174576202
 C   -1.1942928008   -0.9100163340   -0.0919568884
 C   -2.5135657035   -1.0147273059    0.5821436741
 C   -2.4070636197   -1.0079763299   -0.9436877840
 H    0.7725946988    1.7786045321    0.0572167835
 H    0.8217587380   -1.0700962088   -1.9698179299
 H    2.4985440027   -2.0114094860    0.1609425198
 H    2.6593533848   -0.2140351223    0.1801212361
 H    0.5414182324   -1.0878652508    2.0462946133
 H   -2.7652378424   -1.9564390420    1.0587473698
 H   -2.9174029766   -0.1337736489    1.0701439607
 H   -2.7397335083   -0.1225112913   -1.4752804750
 H   -2.5895078698   -1.9452990586   -1.4589073618