19

 C    0.5987734579    1.4088282485    0.0983266485
 C   -0.1172966638    0.0718897154   -0.0355747248
 O   -1.5092666555    0.2433677646   -0.2133770181
 C    0.5639516758   -0.9294415983   -1.0258361266
 C    1.1677044228   -1.6927307623    0.1947515220
 N    2.5415323522   -1.2630343822    0.4568530248
 C    0.1570869723   -0.9346442226    1.1113695604
 C    1.0271884182   -3.1542694335    0.1638603620
 N    0.9544051933   -4.3089111350    0.1447630325
 H    1.6644469527    1.2588519960    0.2843658834
 H    0.4932879156    1.9945710010   -0.8243235612
 H    0.1680073661    1.9855142247    0.9232220600
 H   -1.6483192928    0.9480485421   -0.8553385986
 H   -0.1893087456   -1.5236802449   -1.5449174017
 H    1.2956137627   -0.5383884859   -1.7368692116
 H    2.8563855392   -1.6352805558    1.3492348323
 H    3.1643814028   -1.6428112725   -0.2515638092
 H    0.5698923556   -0.5448278943    2.0441535306
 H   -0.7351099597   -1.5282883450    1.3142501153