19

 C   -0.0122387225    1.4803519467    0.0729353013
 C    1.3385206714    0.7736417919   -0.0077328443
 C    2.1528087844    0.6030265874    1.2245157737
 C    1.9768255273   -0.4234832064    2.0600682833
 C    0.9712090422   -1.5322112194    1.8287588196
 C   -0.2462236752   -1.0445117812    1.0324621490
 O   -0.6998650605   -1.9724524305    0.0114140810
 C   -0.4913922852   -1.0033413274   -1.0443510772
 C    0.0651077436   -0.0071716583   -0.0391491914
 H   -0.3100195876    1.9084809781    1.0253682622
 H   -0.3349255807    2.0411467784   -0.7992549534
 H    1.8856520163    0.9103089245   -0.9378716542
 H    2.9041688078    1.3588765991    1.4407084666
 H    2.5921081423   -0.4979793586    2.9528289373
 H    1.4392538715   -2.3437210820    1.2558589624
 H    0.6637543960   -1.9704833107    2.7837822629
 H   -1.0724837789   -0.7755705348    1.7044207773
 H    0.2018496597   -1.3717843763   -1.8115876741
 H   -1.4360192518   -0.7133801806   -1.5239613720