18

 C    0.2389080547    1.5395428729    0.0841357483
 C    0.0840008755    0.0370966331   -0.0743830118
 C    0.9778546336   -0.5723271431   -1.1492286980
 C    0.8651763841   -2.0970977653   -1.0903857998
 C    1.9067819394   -2.8035674778   -1.9524064900
 O    2.5026718880   -2.2812195596   -2.8576724244
 N    0.9610430496   -2.6385470418    0.2609652206
 C    0.7507751025   -1.8487168926    1.2278428217
 O    0.3843752500   -0.5507919720    1.2161948792
 H    1.2784712797    1.7972370248    0.3072932071
 H   -0.0551042143    2.0466897313   -0.8395171009
 H   -0.3911898985    1.9066153191    0.8985042092
 H   -0.9657635180   -0.2055398772   -0.2914163356
 H    0.6989992695   -0.1938338194   -2.1358874444
 H    2.0183210613   -0.2768302608   -0.9742329762
 H   -0.1039021577   -2.4171110525   -1.5127835928
 H    2.0638969494   -3.8663563571   -1.6688568779
 H    0.8636600214   -2.1931725120    2.2545003457