18

 N   -0.2901016471    1.2584953510   -0.0644960081
 C   -0.0236806251   -0.0802971601   -0.0175362715
 O    1.0788109041   -0.5734973984    0.0179985674
 O   -1.1859491361   -0.7844892392   -0.0664935335
 C   -1.0616617996   -2.2214404450    0.0169005336
 C   -0.9316751001   -2.6696568291    1.4777218626
 O   -1.9834214295   -2.2299595967    2.3086152062
 C   -2.2988764179   -2.7687122068   -0.6885655825
 O   -3.5128083360   -2.3662879539   -0.0562739678
 H    0.4781808881    1.8649199458    0.1672537627
 H   -1.2174191834    1.5728773782    0.1663824740
 H   -0.1613874336   -2.5302485294   -0.5242947304
 H   -0.8333238224   -3.7696275601    1.4750877542
 H   -0.0035764975   -2.2623860363    1.8884379785
 H   -2.8069084469   -2.4445286619    1.8494661806
 H   -2.2890820342   -2.4578320730   -1.7422830746
 H   -2.2827351708   -3.8622279149   -0.6572686722
 H   -3.5176861221   -1.4017370203   -0.0694815492