25

 C    0.0958660773    1.3462244586    0.1345184540
 O   -0.0691640703   -0.0367895851   -0.0610970628
 C    0.6436781351   -0.5807174208   -1.1700733017
 C    2.1237671174   -0.7633707085   -0.8249550091
 C   -0.0766148340   -1.8901709551   -1.5523066070
 C   -1.5549626769   -1.6207905818   -1.8742046475
 C    0.6006881954   -2.5993397319   -2.7140299872
 C    1.6833290880   -3.6298314940   -2.5068586981
 C    0.3166078472   -4.0568064326   -2.9791714664
 H    1.1248871109    1.6199866037    0.4109705022
 H   -0.1811675417    1.9210910476   -0.7635994154
 H   -0.5669547466    1.6368634066    0.9540469313
 H    0.5582987098    0.1175837073   -2.0226690065
 H    2.2360592747   -1.4674068523    0.0057412276
 H    2.6835821035   -1.1450971690   -1.6815347772
 H    2.5764102064    0.1870039278   -0.5274130466
 H   -0.0282837595   -2.5473278164   -0.6719583784
 H   -2.0814719547   -2.5563018516   -2.0841103678
 H   -2.0480207298   -1.1163929127   -1.0417973990
 H   -1.6482845937   -0.9830481312   -2.7620168558
 H    0.7062009972   -1.9804498931   -3.6038440471
 H    2.5085036958   -3.6655522884   -3.2102123256
 H    1.9625451021   -3.8732774223   -1.4871587095
 H   -0.3180631944   -4.5828341272   -2.2729664085
 H    0.2024628406   -4.3860208176   -4.0060098780