16

 O   -0.0516546759    1.4171645077    0.0388035911
 C   -0.0835841489    0.0148297108    0.0227973853
 C   -1.4759010001   -0.5968835301   -0.2359027828
 O   -0.9668556393   -1.2607066213   -1.4417531921
 C    0.2624274015   -0.6516007795   -1.2965323488
 N    1.2691631706   -0.6155491355   -2.0384439878
 C    1.2151122511   -1.3206485993   -3.3245911467
 C    1.7077026253   -0.4788954276   -4.4123468912
 C    2.1023004521    0.2028767933   -5.3189495177
 H    0.7737371071    1.6890934665   -0.3794185514
 H    0.4386016812   -0.4216242430    0.8848067873
 H   -1.8461288326   -1.3280113182    0.4846208844
 H   -2.2385694897    0.1428205305   -0.4861033422
 H    1.8522971776   -2.2117263148   -3.2471089587
 H    0.2036648771   -1.6752471045   -3.5648348927
 H    2.4545687430    0.8062996551   -6.1183579159