20

 C    0.0141823133    1.5259221943    0.1318191062
 C   -0.0040934904    0.0299344977    0.0119443364
 C    1.2098166813   -0.8065478840   -0.3634727625
 C    0.5946254508   -1.0150808706    0.9853467557
 O    1.3356954516   -0.8013180846    2.1300700018
 C   -0.6712136383   -1.8222767357    0.8885306540
 N   -1.7873480590   -0.9195396098    1.3134484761
 C   -1.2491387251   -0.8372957094   -0.0738281158
 C   -2.1106836061   -1.0691314229   -1.2792292143
 H    0.9539863112    1.8663905357    0.5796612542
 H   -0.0853009766    2.0200842729   -0.8420056282
 H   -0.8061932518    1.8673006501    0.7717981760
 H    1.1582565822   -1.5732971887   -1.1331046868
 H    2.1507583940   -0.2649805589   -0.3377096904
 H    0.7176098895   -0.5151390294    2.8139330652
 H   -0.7929122183   -2.9001365438    0.9121169760
 H   -2.6464601011   -1.4718243412    1.2702242619
 H   -2.7441894204   -0.1988257212   -1.4864134120
 H   -1.4950753505   -1.2497826738   -2.1668910388
 H   -2.7674301163   -1.9350139766   -1.1424915246