21

 C   -0.3722629797    1.4402652291    0.1487921805
 C    0.3263375864    0.0936907574   -0.0680459141
 C    0.9090764199   -0.4831548626    1.2051910470
 C    0.0160429801   -1.2451757649    2.1816692619
 C    1.0411477398   -1.9627840844    1.3712663435
 O    0.6959334195   -2.8897654528    0.3361024049
 C    1.9622470757   -3.5716368792    0.4933079444
 C    2.2849058204   -2.7449774213    1.7643300678
 O    3.4603429732   -1.9738790542    1.7820399531
 H    0.3230149027    2.1876505649    0.5469275287
 H   -0.7801690029    1.8306209350   -0.7890959109
 H   -1.1979981031    1.3454654337    0.8618890355
 H   -0.3738983403   -0.6302088897   -0.4995364547
 H    1.1303027985    0.2102942292   -0.8060870478
 H    1.7120634935    0.0967713321    1.6545088157
 H    0.1754739314   -1.1337512676    3.2498383815
 H   -1.0193454479   -1.3958898271    1.8902609984
 H    1.8296511220   -4.6526107009    0.6082818662
 H    2.6524438563   -3.3589613755   -0.3323715983
 H    2.1652358626   -3.3187866482    2.6923201517
 H    4.1637964719   -2.4954595530    2.1796735553