15

 C   -0.0131940002    1.5389217403   -0.0422198431
 C   -0.0281074429    0.0373971588   -0.0575141834
 C   -1.1456972679   -0.7116447482    0.0939743775
 O   -2.3735464087   -0.2251341342    0.2756682451
 C   -1.0611431617   -2.1721096357    0.0648837552
 N   -2.1421379425   -2.8332914124    0.2121846191
 O    0.1527801953   -2.7481484032   -0.1159249595
 N    1.3336275679   -1.9933682151   -0.2764159912
 C    1.1858793022   -0.7131090953   -0.2403100772
 H    0.6302335004    1.9192033574    0.7594448924
 H    0.3749392293    1.9395803301   -0.9856972701
 H   -1.0186439318    1.9337692820    0.1093873441
 H   -2.9440560627   -1.0197458869    0.3483650054
 H   -2.0016437715   -3.8405341310    0.1803301091
 H    2.1259685047   -0.1808799766   -0.3688486734