18

 C    0.2645044912    1.5741438459    0.2741334351
 C   -0.0935468803    0.1139190343   -0.0464735426
 C    0.5728038161   -0.3856699467   -1.2873560267
 C    0.0320489275   -0.8070980232   -2.4554424868
 C   -1.3350602581   -0.9713256850   -3.0052770089
 O    1.0944850170   -1.1587843081   -3.2928812229
 C    2.1895844399   -0.9125144807   -2.5438034649
 O    3.3746076798   -1.1631125936   -3.1013841033
 N    1.9747541145   -0.4596001888   -1.3609586666
 H    1.3479371958    1.6885337067    0.3626529064
 H   -0.0814516238    2.2457375213   -0.5181148796
 H   -0.1955297325    1.8903960259    1.2153072905
 H    0.2098704557   -0.5215923153    0.7950178801
 H   -1.1790113426    0.0050057564   -0.1456366340
 H   -1.4938963262   -0.3535767658   -3.8972719803
 H   -1.5399168585   -2.0115161109   -3.2853750370
 H   -2.0708331590   -0.6738996286   -2.2548490958
 H    3.2253944234   -1.4985494238   -3.9933978428