15

 O    0.0605887982    0.0195016223   -0.0041090921
 C   -0.0014226834    1.2161434910   -0.0002667693
 N   -1.1032942460    2.0148455970   -0.2192319639
 C   -0.8472589205    3.3958193392    0.1429305564
 C    0.6783366872    3.3895783000    0.1057656301
 C    1.5005415350    4.2691010188   -0.7851987270
 C    1.5541144578    4.4197121504    0.7286020933
 O    1.0775196949    2.0315640429    0.2246048929
 H   -2.0103264342    1.5887862414   -0.1255522931
 H   -1.2727060459    4.0999622260   -0.5787499390
 H   -1.2319325159    3.6455940610    1.1427420530
 H    2.3557664887    3.8125189481   -1.2698420114
 H    0.9934451556    5.0325451757   -1.3659594447
 H    1.0837336263    5.2851013972    1.1842268385
 H    2.4446924224    4.0654740690    1.2348223861