19

 C   -0.0895200836    1.5363289264    0.0393935099
 C   -0.0429099730    0.0042543481    0.0399081738
 C    0.6773715399   -0.5369576032    1.2799506809
 N   -1.4112799054   -0.5067899185    0.0316227287
 C   -1.7546349735   -1.2162298012   -0.9429666632
 O   -3.0350454832   -1.7090436976   -0.9781189701
 C   -3.3748592567   -2.4937635284   -2.0607900857
 N   -4.6735699059   -2.8586804487   -1.9363966577
 O   -2.6343237448   -2.7846795175   -2.9661226878
 H    0.9229753637    1.9514575970    0.0665125975
 H   -0.5916971018    1.9112222282   -0.8572358682
 H   -0.6394716710    1.8996007034    0.9130299458
 H    0.5075620177   -0.3290107971   -0.8573835616
 H    0.1490843142   -0.2326032971    2.1887640573
 H    0.7184110096   -1.6299753538    1.2616051581
 H    1.7018845044   -0.1543367452    1.3267163650
 H   -1.1536005240   -1.5106810781   -1.8060965970
 H   -5.1794363530   -2.6566737760   -1.0922286107
 H   -5.0409676034   -3.5208160107   -2.5958487651