23

 C    0.1289366820    1.6072486764    0.0252473586
 C    0.0124733527    0.0809499314   -0.0092396696
 C    0.6349319014   -0.5200863601   -1.2779382086
 C    0.3468531348   -2.0224208167   -1.3796584262
 C    0.7510627693   -2.7832760270   -0.1288070478
 C    0.4467210619   -4.2636466540   -0.1229820050
 O    2.0462420924   -2.4320712110    0.3850281348
 C    0.8865659766   -2.0439242148    1.1417867970
 C    0.6308392832   -0.5515094893    1.2535636798
 H    1.1798238151    1.9186547165   -0.0021925404
 H   -0.3765729598    2.0639911634   -0.8321997887
 H   -0.3158363779    2.0218548795    0.9365192745
 H   -1.0571367763   -0.1778463772   -0.0196058204
 H    0.2405635403   -0.0120539348   -2.1653314538
 H    1.7188092131   -0.3565497919   -1.2680963482
 H   -0.7260818636   -2.1858298350   -1.5504748258
 H    0.8671531090   -2.4575091513   -2.2425560327
 H    0.9392966910   -4.7603091288   -0.9665362317
 H    0.8028100086   -4.7280365138    0.8001163244
 H   -0.6302621116   -4.4428173273   -0.2124199507
 H    0.7734528723   -2.6104549379    2.0677763050
 H    1.5911382655   -0.0675270834    1.4769723341
 H   -0.0178475600   -0.3613938827    2.1168152614