21

 C    0.0324084582    1.6169888489   -0.0045291441
 C   -0.0646703784    0.0931508869   -0.0131575734
 N    0.5255411891   -0.4724173068   -1.2157994813
 C   -0.1820351463   -0.3090017525   -2.5032896991
 C    0.2558509995   -1.7413168536   -2.8907526098
 C    0.5478017148   -1.9355976133   -1.3830562155
 C    1.8645291618   -2.6275563225   -0.9990553568
 C    2.0850862991   -2.6729153303    0.4449628555
 N    2.2380070629   -2.7022616381    1.5904149275
 H    1.0766149519    1.9363269119   -0.0669967685
 H   -0.5073038194    2.0546953274   -0.8512184081
 H   -0.4030299630    2.0238106757    0.9128423754
 H    0.4708844258   -0.3185096031    0.8488563170
 H   -1.1247979630   -0.2129181467    0.0921081681
 H   -1.2753563947   -0.2286197808   -2.3864626090
 H    0.1670972497    0.5213145237   -3.1245214352
 H   -0.4941642477   -2.3933835126   -3.3381475111
 H    1.1632609908   -1.7582478247   -3.4988757388
 H   -0.2900339568   -2.4371229526   -0.8709140385
 H    1.8663929080   -3.6545146001   -1.3837577333
 H    2.6973432278   -2.0931394366   -1.4679663510