15

 N    0.0196140120    1.3238118668    0.1554745430
 C    0.0034552308   -0.0380256501    0.0286995050
 N   -1.0832465713   -0.7207353521    0.0454172026
 C   -0.7663043655   -2.1490235563   -0.0236198000
 C   -1.3033600967   -2.7899736099   -1.2204156365
 C   -1.7176975061   -3.3160820623   -2.2178455743
 C    0.7922288318   -2.2495125610    0.0127577172
 O    1.4456934993   -3.2476794309    0.1065269908
 C    1.2997318703   -0.8067483032   -0.0534052870
 H    0.8116677629    1.8218205329   -0.2166634509
 H   -0.8734762469    1.7790757941    0.0336580211
 H   -1.1589058612   -2.6691712324    0.8623084893
 H   -2.0955120837   -3.7853194737   -3.0922808222
 H    1.8424924111   -0.6347062067   -0.9909384146
 H    1.9906806732   -0.5900105149    0.7674418866