15

 C   -0.0308003870    1.5664929334    0.0923317653
 C   -0.0130338394    0.0728760411    0.0301194268
 C    0.0291003238   -0.7311930972   -1.1038076447
 N    0.0326231996   -2.0510724689   -0.7353878503
 C   -0.0067041476   -2.1233090870    0.6174926262
 C   -0.0353463951   -0.8311045760    1.1185380550
 N    0.0655970005   -0.4051323697   -2.4781598006
 O    0.0986014825   -1.3472726170   -3.2797364286
 O    0.0624273527    0.7845258796   -2.7909063309
 H    0.8541932359    1.9948228454   -0.3873115797
 H   -0.8951489451    1.9761262579   -0.4385570464
 H   -0.0648539783    1.9040670812    1.1310920710
 H    0.0587830196   -2.7966415574   -1.4122230176
 H   -0.0111812002   -3.0742430681    1.1258701964
 H   -0.0687882219   -0.5603001573    2.1628533381