15

 C    0.0328817719    1.5183256791   -0.2827376815
 C   -0.0411632512    0.0530237360    0.0464916872
 O    1.1603213149   -0.7109431323   -0.0540374800
 C    0.5850457910   -0.5694238111    1.2392096926
 C    1.3396938610    0.1892920000    2.2593703236
 N    2.3367250870    0.9982497861    2.0020097938
 O    2.7069204679    1.4671974178    3.2693280278
 C    1.8885745129    0.8763664727    4.1383861920
 N    1.0244266012    0.0774931053    3.6013669689
 H    0.9039926746    1.9850541382    0.1805380299
 H    0.1038662211    1.6507876988   -1.3671821704
 H   -0.8742334489    2.0279842949    0.0590743897
 H   -0.9195791381   -0.4690897293   -0.3388175530
 H    0.1232183670   -1.4660719029    1.6509378337
 H    2.0245947378    1.1127476268    5.1836011956