17

 O   -0.6420178181    0.8102045029    0.6518547040
 C    0.0914933810    1.0779091722   -0.2646528915
 C    1.3249254365    1.9549872655   -0.1640591515
 C    1.4188996161    3.0197879905   -1.2472011871
 C    1.7729419422    4.2101979771   -0.7642217010
 C    1.9549023785    4.1806947870    0.7324859286
 O    0.8695125878    4.8024508965    1.4591728073
 C    0.2606384711    3.5115486506    1.7088058874
 C    1.4873620551    2.7592111434    1.1361180121
 H   -0.0852685985    0.6556207818   -1.2813834488
 H    2.1615187309    1.2441754510   -0.2911045102
 H    1.2214529486    2.7966870249   -2.2907638094
 H    1.9028936880    5.1118955379   -1.3516082130
 H    2.9257438145    4.5588377527    1.0723865256
 H    0.0624296783    3.3593734314    2.7740207440
 H   -0.6711242731    3.3817173740    1.1504463648
 H    2.0783525711    2.2473666306    1.8939625987