17

 N    0.1154554244   -1.0392117669    0.7382224215
 C    0.0421723370    0.0518867439    0.3649295897
 C   -0.0258478554    1.4412406648   -0.1409557849
 N   -0.8258435231    2.3116912568    0.7472865083
 C    0.1022284564    3.2502006051    1.3825879365
 C   -0.4264455041    4.5479007425    1.9302728917
 C    0.0386855849    3.4714758841    2.8811637443
 C    1.4011400597    3.0949849462    0.6840191443
 C    1.3566806729    2.0817086913   -0.1761140855
 H   -0.4829604106    1.3863829069   -1.1369304482
 H   -1.4875287469    2.8269212999    0.1793395645
 H    0.1773992977    5.4410195742    1.8107005863
 H   -1.4957011054    4.7173119120    1.8493829771
 H   -0.7176293977    2.9060104044    3.4124393244
 H    0.9676907826    3.6218661078    3.4203945114
 H    2.2652266997    3.7104607767    0.9024980374
 H    2.1623504879    1.6951254304   -0.7851089087