22

 C   -0.3027862479    1.5672495954   -0.1514062034
 C   -0.1437557620    0.0564719878   -0.0113206631
 C    0.8839185908   -0.5776568285   -0.9978859148
 C    1.9420142254   -0.5955516204    0.1395400938
 C    0.7756192018   -0.4638973443    1.1511066248
 N    0.9476227840    0.2520187971    2.3993535124
 C    1.8261046807    1.4089712495    2.5064415085
 C    0.3207987452   -0.1939489539    3.5305238867
 O    0.3851916839    0.3162678083    4.6293888153
 H    0.6589558245    2.0761070332   -0.2739458008
 H   -0.9072414939    1.8017384259   -1.0340999775
 H   -0.8054453549    1.9982369072    0.7207238488
 H   -1.1362415135   -0.4053053582   -0.0135906120
 H    0.5954371513   -1.5842770611   -1.3108074823
 H    1.1274659968    0.0067109981   -1.8880353293
 H    2.5927831243   -1.4678357471    0.2338708935
 H    2.5667460724    0.3001226255    0.1113251368
 H    0.4270767777   -1.4674009423    1.4153706578
 H    1.5187767747    2.2144651404    1.8348140343
 H    1.7671538350    1.7598384136    3.5367775968
 H    2.8632174607    1.1395016394    2.2798404447
 H   -0.2766125670   -1.1053017055    3.3315482791