18

 O   -0.1173946521    1.4529619983    0.1495078824
 C    0.0108416578    0.0403013706    0.1147167389
 C   -1.3825722116   -0.5482367725   -0.1306438485
 C   -1.4025919655   -2.0405611988   -0.1594949875
 C   -1.4874143807   -2.9323784589   -1.1992422115
 C   -1.4318023760   -4.2612466963   -0.6696053009
 C   -1.3140012729   -4.1248894247    0.6912975777
 O   -1.2269213941   -5.0099344778    1.7189730123
 N   -1.2908224012   -2.7965919656    1.0028062370
 H    0.7591737164    1.8330146946    0.2570605391
 H    0.6883988279   -0.2887104818   -0.6877238922
 H    0.4182423886   -0.3477649512    1.0629179535
 H   -2.0577527141   -0.1544422738    0.6410040748
 H   -1.7524004687   -0.1691212066   -1.0880662128
 H   -1.5816858638   -2.6648739011   -2.2411397004
 H   -1.4792734957   -5.1891602643   -1.2182366739
 H   -1.2724706114   -5.8982889320    1.3534985071
 H   -1.2404884827   -2.4406838281    1.9418515650