18

 C    0.0124184480    1.5328605987   -0.0295664545
 C   -0.0680191606    0.0290648298   -0.0688741245
 C    0.6792062462   -0.6874136014   -1.1893630894
 C    0.1009824918   -1.8544002823   -1.5215080157
 C   -0.8460355092   -2.1133275225   -0.3825235211
 C   -0.4035414452   -2.8372660098    0.6600985277
 C   -0.2058750093   -1.8965525212    1.8436932116
 N   -0.5244818433   -0.5388606430    1.3354948012
 C   -1.3013936584   -0.7467079143    0.1264791781
 H    1.0249057036    1.8662132880    0.2257389873
 H   -0.2397245314    1.9552315036   -1.0093302507
 H   -0.6747428510    1.9336750952    0.7176737293
 H    1.5321730302   -0.2385964734   -1.6857048834
 H    0.4366179181   -2.5631047652   -2.2673837281
 H    0.1768340115   -3.7494817657    0.5646189776
 H   -0.8253127304   -2.0721752200    2.7359381090
 H    0.8413077423   -1.9707447813    2.1668875765
 H   -2.3265451432   -0.3892515252    0.0310791292