19

 O   -0.0093383842    1.5343278785   -0.0212334532
 C    0.1158696308    0.1299288523    0.1104697659
 C   -1.2432810454   -0.5410828823    0.0250576558
 N   -1.9707286657   -0.3643895258   -1.2983506210
 C   -1.2645992385   -1.1833909357   -2.3110317967
 C   -2.1473107465   -1.8766273852   -1.3563155150
 C   -1.4213030404   -2.0642076976   -0.0450043366
 C   -0.5618503352   -3.1698186772    0.4368678551
 N   -1.8989769458   -2.9284022314    1.0195864171
 H   -0.5716120421    1.6938640881   -0.7885065388
 H    0.8078267872   -0.2850324335   -0.6388631166
 H    0.5622049162   -0.0557081250    1.0946254889
 H   -1.8933656035   -0.1087056545    0.7940499644
 H   -1.6384787814   -1.0026370771   -3.3139162160
 H   -0.1888743978   -1.3263872773   -2.2487346760
 H   -3.0931850940   -2.3370466443   -1.6199555329
 H   -0.4725693985   -4.0865910304   -0.1398294915
 H    0.3177365070   -2.9165808047    1.0241170330
 H   -1.8179234623   -2.4651969471    1.9221624740