19

 O    0.0826566335    1.4137838479    0.0237208156
 C    0.0903078914    0.0128451788    0.2131794283
 C   -1.3124119617   -0.5647884099    0.0161605306
 O   -1.8309898024   -0.1203631774   -1.2551557535
 C   -1.6990834379   -1.0373390278   -2.3462505048
 C   -1.7145323762   -2.4722342288   -1.8429551676
 C   -2.6380197983   -2.6066811377   -0.6148852424
 C   -1.3734576931   -2.0859590905    0.0980140373
 O   -0.5499246252   -2.6279230705   -0.9782352381
 H   -0.4335640495    1.5599340161   -0.7789376123
 H    0.7876823981   -0.4916708560   -0.4709380821
 H    0.4301928428   -0.1750199581    1.2383436876
 H   -1.9859809065   -0.1249145806    0.7631131176
 H   -2.5417271539   -0.8367982306   -3.0182356455
 H   -0.7632376764   -0.8648278449   -2.8965379613
 H   -1.7471690655   -3.2098650570   -2.6488294515
 H   -3.5446023433   -2.0010282095   -0.5751594088
 H   -2.8459833843   -3.6486959004   -0.3712590605
 H   -1.0918422113   -2.4727119432    1.0809180212