17

 O   -0.1519872392    1.5781476742    0.2414600686
 C   -0.0124666303    0.1860328252    0.0336846303
 C    0.9470121019   -0.2086186667   -1.1369909186
 C    1.9924566294   -0.5927218199   -0.0793336399
 O    3.1710115899   -0.7918774432   -0.1089115303
 C    0.9508567517   -0.5203401410    1.0498080759
 C   -1.4188226150   -0.3601752031   -0.0129943198
 C   -2.1490348348   -0.5567777052   -1.2671145751
 O   -1.5711684877   -1.6656705719   -0.5644797190
 H    0.7170468447    1.9604110249    0.4041778041
 H    0.5976703005   -1.0984559357   -1.6716357603
 H    1.2101701173    0.5754733969   -1.8509692373
 H    1.2179914543    0.0377579892    1.9514691535
 H    0.6072016446   -1.5200757169    1.3365672953
 H   -1.9927706311   -0.1770408716    0.8961241823
 H   -3.2366163589   -0.5244082074   -1.2676336197
 H   -1.6718740772   -0.3060015077   -2.2125259401