22

 C   -0.0096985697    1.5327630237    0.0213137551
 C   -0.0039205527   -0.0023701878    0.0071944924
 C   -1.4389276075   -0.5553987205    0.0202414113
 C    0.7291661775   -0.5032630918   -1.2563774816
 O    0.8987374214   -1.9108455530   -1.2392720318
 C    1.8499849444   -2.3349171652   -0.2769577649
 C    1.6501277992   -1.7011428512    1.0926495113
 N    2.1931279658   -0.3369392079    1.2573563310
 C    0.7365395680   -0.5353703517    1.2287258060
 H    1.0112346656    1.9232979578    0.0665421493
 H   -0.4929434465    1.9327430854   -0.8773919752
 H   -0.5589969190    1.9156195175    0.8888041957
 H   -2.0186666526   -0.1483998923   -0.8154031499
 H   -1.4328713361   -1.6447520529   -0.0707857182
 H   -1.9596984623   -0.2874412456    0.9463185490
 H    0.1330611218   -0.2777499648   -2.1465676621
 H    1.7016757430    0.0015278390   -1.3514969373
 H    1.7362285257   -3.4211637952   -0.2074000855
 H    2.8711079346   -2.1168876528   -0.6286020869
 H    1.7386880254   -2.3782379129    1.9389964850
 H    2.5130201004   -0.1947576475    2.2113286779
 H    0.1975252436   -0.4297228004    2.1698060593