18

 C    0.0435387021    1.5054617242    0.1214948075
 C    0.0257870551    0.0497801196    0.0932277538
 C    0.0228014672   -1.1558231413    0.0752780673
 C    0.0234470561   -2.5907398861    0.0443334257
 C   -0.6124501259   -3.3874833588    1.1757773622
 C   -1.2679639226   -3.3725809916   -0.1726688402
 C   -2.5712939696   -2.6230950174   -0.3897889766
 C   -3.7378987830   -3.4022268895    0.0269861530
 N   -4.6524863194   -4.0274953911    0.3554386020
 H    1.0708140868    1.8857200063    0.1417912912
 H   -0.4495000045    1.9316133869   -0.7593148646
 H   -0.4686049052    1.8929707588    1.0091218559
 H    0.9058092338   -3.0363332539   -0.4062171029
 H   -0.1131645883   -4.2926202589    1.5011916140
 H   -1.0787544030   -2.8163674319    1.9706931367
 H   -1.1691603061   -4.2731227590   -0.7702977023
 H   -2.5560712136   -1.6786798086    0.1640798932
 H   -2.6887524800   -2.3590663077   -1.4474132860