16

 O   -0.0841343819    0.6875326338   -1.4663907780
 C   -0.0124570771    1.3387546875   -0.4512605283
 C   -1.2204193619    1.6420951286    0.4322796688
 N   -1.3246826103    3.0499806644    0.8545448281
 C   -0.9323344443    3.4291490350    2.2075663905
 C   -0.0943381577    3.8210664625    1.0396275912
 C    1.2324415686    3.1565876732    0.8217287147
 O    1.4429504414    1.9108418426    1.4651614359
 C    1.2901948574    1.9013351676    0.0334400873
 H   -2.1136412557    1.3755344661   -0.1382408373
 H   -1.1602875663    0.9702543635    1.2998732249
 H   -1.5739465887    4.1579237944    2.6952082456
 H   -0.5207591023    2.6577139150    2.8546108836
 H   -0.1388032107    4.8394132521    0.6569830448
 H    2.1015420055    3.8139972980    0.8004128608
 H    2.1728393841    1.6358120658   -0.5425874726