19

 O    0.4891687914   -0.2403262792   -0.4563102509
 C    0.1400220559    0.8788228160   -0.1903385801
 C    1.0970617596    2.0460005345    0.0505194552
 O    2.3975801659    1.5967418748    0.3557741389
 C    3.2332516891    1.6573876358   -0.8092531591
 C    2.3427823341    2.1290046924   -1.9713735776
 C    1.2357466736    2.8660187829   -1.2327276149
 C    0.0955754048    3.5756497511   -1.9072970423
 C    1.1704209086    4.3708710290   -1.2027261025
 H   -0.9393626507    1.1556044252   -0.1340904173
 H    0.7107205484    2.6439046701    0.8874805469
 H    4.0480812632    2.3662297567   -0.6135311561
 H    3.6672375734    0.6685973075   -0.9861337162
 H    2.8766129096    2.7640517004   -2.6821811910
 H    1.9367981494    1.2698532645   -2.5150657668
 H    0.0748058997    3.5835207895   -2.9918881115
 H   -0.8874530205    3.5366345288   -1.4499709151
 H    0.9145352290    4.8579221892   -0.2674705909
 H    1.8819713854    4.9189447609   -1.8118238584