17

 O   -0.0266327870    1.3485732083   -0.3764255378
 C    0.0307392703   -0.0659958423   -0.2840243311
 C   -1.3529106566   -0.5375365101    0.1339772510
 C   -2.4357245141   -0.3658944899   -0.9679968799
 C   -2.3006864169   -1.8704443536   -1.3234721922
 C   -1.5669535462   -2.0899761348    0.0390935298
 C   -0.4050820953   -2.9634666086    0.0659916881
 N    0.5291253685   -3.6458124169    0.0704313191
 H    0.8408764658    1.6686138372   -0.6402843293
 H    0.3120669970   -0.5189078367   -1.2485791633
 H    0.7741927472   -0.3960303483    0.4571947705
 H   -1.5915556302   -0.1056773289    1.1085376770
 H   -3.4163652733   -0.1233205516   -0.5518553455
 H   -2.2006720584    0.3568682624   -1.7503512425
 H   -3.2153135935   -2.4467742787   -1.4709348232
 H   -1.6353232905   -2.0476081385   -2.1704930116
 H   -2.2695079668   -2.4213229888    0.8085126309