22

 C    0.0291326069    1.5954384814    0.0861220656
 C    0.0294655482    0.0671362653    0.0024446517
 C   -1.3823915074   -0.5295327449    0.0308928515
 C   -1.4032955322   -2.0634813204    0.0016057531
 N   -0.7473913202   -2.5859130052    1.1961624575
 C   -2.8678862712   -2.5956941883   -0.2014318602
 N   -3.5488957218   -2.2412335281   -1.4468304212
 C   -2.8589720655   -4.0640177230   -0.0753421562
 N   -2.7944285415   -5.2141812512    0.0194846002
 H    1.0479678829    1.9936665648    0.0581427541
 H   -0.5251233462    2.0433279834   -0.7467735892
 H   -0.4366350298    1.9420869786    1.0155826740
 H    0.5320335102   -0.2506687194   -0.9206207376
 H    0.6086639075   -0.3592146831    0.8267977936
 H   -1.9082457363   -0.1891648785    0.9364073383
 H   -1.9536695600   -0.1388167193   -0.8200061119
 H   -0.8217269356   -2.4089276828   -0.8650713360
 H   -1.2717181869   -2.3312587500    2.0295046090
 H   -0.7056338609   -3.6002852312    1.1718896348
 H   -3.4776635903   -2.2085866083    0.6268291907
 H   -3.7034495761   -1.2402030800   -1.4846342040
 H   -2.9751392437   -2.4919423297   -2.2469655878