14

 O   -0.1816762467    1.4390559281    0.1052205739
 C    0.0062993879    0.0540341465    0.0403288145
 C    0.7473001415   -0.3256091198   -1.2496559442
 O    1.1017335981    0.5210998819   -2.0276015087
 C    0.7649223724   -0.4822922152    1.1774078787
 C    1.4017435517   -0.9335229838    2.0916769986
 C    2.1629731774   -1.4629785106    3.2207937797
 C    1.9515599151   -2.9019680852    3.4247727290
 N    1.7942254548   -4.0333841636    3.5911142454
 H    0.2924016874    1.7984328550   -0.6629811410
 H   -0.9709563446   -0.4592319183    0.0041315740
 H    0.9368148156   -1.4038851503   -1.4060488662
 H    3.2371484173   -1.2886380356    3.0788235414
 H    1.8850489920   -0.9381803792    4.1438267849