16

 O    0.1677970291    0.0233699467    0.1133151117
 C    0.0793669800    1.2257958452    0.0544029900
 N   -1.0282993253    2.0023851447    0.3929361996
 C   -0.8585003601    3.3694757612   -0.0716782119
 C    0.6845954460    3.4931906227   -0.0911342630
 C    1.2272832604    4.0231481967    1.2641995049
 C    2.6846154354    3.9668549984    1.3163582932
 N    3.8384244658    3.8999397658    1.3143546669
 N    1.0620187120    2.1202188059   -0.3606246714
 H   -1.9267051196    1.5485505594    0.3429760137
 H   -1.2622189533    3.5283324100   -1.0810076783
 H   -1.3218820420    4.0944193152    0.6043164842
 H    1.0204984166    4.1608993239   -0.8890968807
 H    0.9043062026    5.0594353427    1.4148639128
 H    0.8135953893    3.4228333452    2.0818498603
 H    2.0247517232    1.8221084962   -0.3200255122