18

 C   -0.0426164473    1.4316259851    0.0785870714
 C    0.0697524672   -0.0775234539    0.0190745837
 C    0.7047246722   -0.6563100356   -1.2254765617
 C    1.4508295101   -0.6604036582    0.1151197441
 N    1.4414854853   -2.1500838254    0.1304405718
 C    0.7748611623   -2.1954202122   -1.2112139353
 C   -0.3449002277   -3.0976505265   -0.6342702824
 C    0.3408771781   -2.8410757040    0.7333645607
 O    0.0706341520   -3.0414671384    1.8792451026
 H    0.8247619560    1.9130727175   -0.3856014348
 H   -0.9366621892    1.7805779236   -0.4484573334
 H   -0.1031959758    1.7780024754    1.1150434761
 H   -0.7513387216   -0.6022629017    0.5019705658
 H    0.8897374299   -0.0442676080   -2.0995456776
 H    2.3188390418   -0.1073644981    0.4526330618
 H    1.3803853773   -2.6173591608   -2.0159864450
 H   -1.3681575058   -2.7188260106   -0.6787019981
 H   -0.3306417948   -4.1342302183   -0.9793691796