19

 C    0.0966091024    1.3019654287   -0.5343610664
 C   -0.0723292417    0.0352599521    0.2866895084
 O    0.8120745722   -0.3687971210    1.0192506496
 C   -1.3497349686   -0.6939554635    0.1404520847
 C   -1.7170987519   -1.7667673866    1.1492686834
 C   -1.4355844646   -2.2001984498   -0.2407648906
 C   -2.5415826664   -1.8727979693   -1.2722676071
 C   -3.7403758683   -1.1703021193   -0.6928832097
 C   -2.4665537318   -0.3998263934   -0.9034245477
 H    1.0553279213    1.7629961487   -0.2953758843
 H    0.0597923172    1.0719320074   -1.6055847644
 H   -0.7167942473    2.0080576293   -0.3318837333
 H   -0.9070335181   -1.9482583023    1.8472996702
 H   -2.7093141082   -1.8042207618    1.5820836467
 H   -0.5747565734   -2.8095546969   -0.4839749612
 H   -2.5546397408   -2.3128496445   -2.2604869800
 H   -4.5104522634   -0.9480809981   -1.4258756823
 H   -4.1405954744   -1.3951880286    0.2890764888
 H   -2.4188133344    0.4480893391   -1.5736609547