20

 C    0.1976047569    1.2037403143   -0.2136030913
 O   -0.1872516165   -0.0886702540    0.2299751415
 C    0.5304379027   -0.5581081661    1.3005796936
 C    0.6883774436    0.0008901686    2.7060917246
 N    1.8310288000   -0.9805106458    2.9021010398
 C    1.0945567122   -2.3086943064    2.8689835188
 C    0.7977584302   -2.0763291973    1.3988230106
 C    0.3213935176   -3.0340636987    0.3497914243
 C    1.9442831076   -1.0872390402    1.3653352616
 H    1.2644627692    1.2361607245   -0.4721143874
 H   -0.3979234124    1.4229060433   -1.1022734779
 H   -0.0034342706    1.9701618514    0.5465750098
 H    1.0845848730    1.0200203966    2.7256589930
 H   -0.1282782252   -0.0933159390    3.4310131810
 H    1.8069857350   -3.1226302103    3.0348618204
 H    0.2693999360   -2.3914048604    3.5869218143
 H   -0.6908166077   -3.3893137261    0.5751735926
 H    0.2872629823   -2.5503375631   -0.6303305376
 H    0.9773058907   -3.9088700376    0.2820100671
 H    2.8496042753   -0.9820422538    0.7843895413