18

 C    0.0631067643    1.5680625872    0.0207185804
 C    0.2477199598    0.0499254628    0.0563128436
 C    0.4440308187   -0.5593588813   -1.3362108010
 C    0.4598771608   -2.0860709769   -1.2991069621
 O   -0.2657690552   -2.7261057355   -0.5572266459
 N    1.3311442899   -2.6740230863   -2.1717004721
 C    1.4467017050   -4.1118481502   -2.3127100343
 H    0.9319446107    2.0695919609   -0.4210007519
 H   -0.8149465910    1.8472421583   -0.5727637385
 H   -0.0751360041    1.9721906607    1.0282710672
 H    1.1092377345   -0.2053651793    0.6856114381
 H   -0.6182672124   -0.4343657803    0.5165857511
 H   -0.3922336454   -0.2630044566   -1.9844857683
 H    1.3546175567   -0.1683677960   -1.8073471617
 H    1.9008879578   -2.0830381533   -2.7531344191
 H    0.7575866119   -4.5614670252   -1.5969224115
 H    1.1773685316   -4.4401520429   -3.3232602264
 H    2.4643540464   -4.4543341261   -2.0938652776