23

 C    0.0394761759    1.5975065407   -0.0783042857
 C   -0.0171006173    0.0636176762   -0.0523444777
 C    0.7840624104   -0.4903934091   -1.2407929274
 O    0.6291736219   -1.8713701305   -1.4822262547
 C    1.2999823988   -2.7220666800   -0.5652500593
 C    0.6023405335   -2.9148490109    0.7610140581
 C    0.2298830647   -1.9384149802    1.5922516492
 C   -0.4633737160   -2.2410520694    2.8949354203
 C    0.4793840428   -0.4676957083    1.3086132209
 H    1.0672888320    1.9582475691    0.0505209501
 H   -0.3350125733    1.9942295348   -1.0277086670
 H   -0.5641006206    2.0290268084    0.7262132887
 H   -1.0585536397   -0.2551916917   -0.1872019050
 H    0.4522654368    0.0052844585   -2.1600917545
 H    1.8534093927   -0.2451100277   -1.1025439041
 H    1.3853096237   -3.6869381662   -1.0740113350
 H    2.3285242703   -2.3495581792   -0.4069546216
 H    0.3993674630   -3.9453719272    1.0448672969
 H   -0.5816358571   -3.3158511953    3.0550348048
 H    0.0975273038   -1.8275607460    3.7435844309
 H   -1.4586071403   -1.7783664008    2.9296527484
 H    1.5587188031   -0.2615949014    1.3871249087
 H    0.0107980809    0.1265376562    2.1013481850