12

 O    0.0644865119   -0.0529993539    0.0018860474
 C   -0.0183063035    1.1385039760    0.0089564678
 C   -1.2123704462    2.0442214320    0.0313100205
 C   -0.8144254182    3.3309303397    0.0320039871
 C    0.6482749512    3.3627925614    0.0106529904
 C    1.7991262962    4.1006095249   -0.0027137369
 N    2.8681667887    3.2190492251   -0.0227475357
 N    2.4377423605    1.9979144500   -0.0225063734
 N    1.0836995314    2.0740053648   -0.0022793280
 H   -2.2181019636    1.6521021418    0.0441620381
 H   -1.4448373632    4.2085547188    0.0457799901
 H    1.9573738249    5.1660196193    0.0002842125