19

 O    0.0567919637    1.2257007802    0.2986744201
 C   -0.1326742642   -0.1859147946    0.3326724563
 C   -1.5638092123   -0.4419344255   -0.1516730952
 O   -1.7047709671    0.1134946710   -1.4481140731
 C   -1.8788640391   -1.9520983670   -0.2249315828
 C   -2.3540080175   -2.3518807552    1.1792756014
 C   -2.9064300930   -1.0607290955    1.8027760653
 O   -3.4795708017   -0.9866144838    2.8583776351
 C   -2.5991378341    0.1002595383    0.8586237575
 H    0.9859509934    1.4195219592    0.4494618098
 H    0.5657975578   -0.6934926068   -0.3472626612
 H    0.0183317477   -0.5828012934    1.3480343208
 H   -1.2763551986    0.9786393893   -1.4146733472
 H   -2.6832940428   -2.0738046743   -0.9568462704
 H   -1.0247920775   -2.5335339725   -0.5829183191
 H   -3.1124339271   -3.1387264525    1.1946152219
 H   -1.5309208243   -2.7017884622    1.8146624313
 H   -2.2827179430    0.9951388622    1.3979711453
 H   -3.5189148103    0.3461312031    0.3133732144