16

 O   -0.0783470490    1.3587339685    0.0428567974
 C    0.0291555604   -0.0108921137    0.0375604352
 C    0.7200578365   -0.9524594376    1.0529891979
 C    0.0502084929   -1.8856864165    0.0170205185
 C   -1.2038584201   -0.9665082077   -0.0145888624
 N   -1.7388853683   -1.0349843915   -1.3662956967
 C   -0.6128263777   -0.9062555396   -2.1816792131
 O   -0.5748326855   -0.7524866514   -3.3771511999
 C    0.5102786213   -0.9527145324   -1.1562940686
 H    0.8025747936    1.7470282420   -0.0008160551
 H    1.8127154171   -0.9499301872    1.0615886309
 H    0.3117036797   -0.9650442800    2.0680714737
 H    0.0486798386   -2.9726746283   -0.0054641499
 H   -1.9376008787   -0.9885980533    0.7894033394
 H   -2.5899202249   -0.5598351011   -1.6273263815
 H    1.5406655240   -0.9484028102   -1.5054931559