16

 C   -1.7607334162    1.7427807510    0.7302677935
 O   -2.1323700074    0.3753261168    0.9092465044
 C   -1.7104564566   -0.4690521198   -0.0587939018
 N   -1.0353322598   -0.1045073251   -1.0603026516
 N   -2.1658530992   -1.7532897359    0.2854016797
 C   -1.9543528482   -2.9123612553   -0.4347133670
 C   -2.5741014513   -4.1456537712    0.1984631402
 O   -1.3311908801   -2.9425062625   -1.4765906898
 H   -2.1761475723    2.2741667187    1.5874428611
 H   -0.6730041780    1.8469534253    0.7013529787
 H   -2.1710472800    2.1356356144   -0.2036201657
 H   -0.8325447985   -0.9078705313   -1.6524616174
 H   -2.6936541020   -1.8028584078    1.1434446619
 H   -2.3614317001   -5.0063599579   -0.4340756153
 H   -2.1615774731   -4.3185524405    1.1980210804
 H   -3.6580856372   -4.0281072187    0.3000138487