20

 C    0.0400176695    1.3601183094    0.1268909031
 N   -0.0490282242   -0.0254729420   -0.2873613212
 C    1.1491278595   -0.8226338446   -0.0897477945
 C   -1.2632082064   -0.6665407486   -0.0914259151
 N   -1.3337097321   -2.0002052367   -0.0380048262
 N   -2.6574081948   -2.2734029557    0.0939208158
 C   -3.0893321289   -3.6462409202    0.1865153116
 C   -3.4068023861   -1.1520289348    0.1427915728
 C   -2.5509349433   -0.0770324942    0.0306126556
 H    0.9841413357    1.7790661251   -0.2324371822
 H   -0.7702863041    1.9436641247   -0.3182746566
 H   -0.0006584627    1.4950024757    1.2216431747
 H    1.3432915917   -1.0513896190    0.9714586931
 H    1.0469987777   -1.7698768801   -0.6205652102
 H    2.0088898678   -0.2779306567   -0.4908044328
 H   -4.1758778398   -3.6690551229    0.2890581399
 H   -2.8015554250   -4.1997872965   -0.7125130991
 H   -2.6359677966   -4.1340933325    1.0551006644
 H   -4.4795139669   -1.1967552970    0.2524167262
 H   -2.8205845811    0.9649180668    0.0348244408