25

 C   -0.5637295236    1.4246069832    0.1881455398
 C   -0.0251590965    0.0125452193   -0.0187129206
 C   -1.1012393322   -0.8861272895   -0.6376948642
 C    1.3297412991   -0.1028718386   -0.7857267150
 C    1.8132800623   -1.1392109193    0.2601006450
 C    0.6714395751   -0.6767887032    1.2062340288
 C    1.1307941162    0.1289870994    2.4559575038
 C    0.9050662338   -1.1470806000    3.3087893550
 C    0.0109165124   -1.6982854399    2.1664611741
 H    0.1959041299    2.0910087322    0.6087094762
 H   -0.8915746275    1.8557880440   -0.7653014096
 H   -1.4273670939    1.4314524797    0.8643881411
 H   -1.4279151647   -0.4853346061   -1.6041963873
 H   -0.7351340425   -1.9038679076   -0.8077347321
 H   -1.9833333445   -0.9544339732    0.0086635755
 H    1.2806356276   -0.4270231365   -1.8292579921
 H    1.9033194789    0.8276453339   -0.7401267225
 H    1.6763445528   -2.1703094825   -0.0801416444
 H    2.8367536026   -1.0354446847    0.6314907237
 H    2.1340570557    0.5649528952    2.4358408027
 H    0.4163556292    0.9143516915    2.7208350945
 H    1.8234908451   -1.7296097132    3.4217156746
 H    0.4514715759   -1.0219058684    4.2948360532
 H   -1.0462946519   -1.4697120090    2.3391860318
 H    0.0981227906   -2.7584124969    1.9107472280