21

 C   -0.0343016158    1.5511422274    0.1118402091
 C    0.1149871915    0.0597419543    0.0354070627
 C    0.5700463086   -0.7318380787   -1.1981706030
 C    1.3229893006   -1.7411112826   -0.2690976838
 C    0.8574283482   -0.9454281522    0.9544032064
 C    1.6031130536   -0.7330535413    2.2459803191
 O    1.3074969411   -1.7253068367    3.2214561493
 C   -0.6451422512   -0.8888006704    0.9335571698
 O   -1.1860973347   -0.3750054458    2.1239697912
 H    0.8880833549    2.0630910244   -0.1840085460
 H   -0.8309258262    1.9011647888   -0.5577186066
 H   -0.2852178011    1.8703854356    1.1274883773
 H   -0.2301843587   -1.1421299254   -1.8248573292
 H    1.2517334858   -0.1649493029   -1.8373836035
 H    1.0024041623   -2.7873048301   -0.3138923027
 H    2.4063152889   -1.7039864515   -0.4082372816
 H    2.6823608302   -0.7955596665    2.0680976367
 H    1.3934599145    0.2733304122    2.6349177795
 H    0.3689877412   -1.6276486339    3.4195218074
 H   -1.2179889971   -1.7157279104    0.5027050781
 H   -2.0018361565    0.0926341859    1.9171713898