21

 C    0.2751947600    1.5401215427   -0.2195283981
 C    0.0419631637    0.0586874916    0.0853067655
 O    0.4724300710   -0.7344616527   -1.0214296443
 C    1.4074254641   -1.7162563114   -0.5917489684
 C    1.5931609487   -1.4808725473    0.8857483572
 C    2.5239107269   -2.3346148913    1.6880988978
 O    2.2238558797   -3.7251320925    1.5675456118
 C    0.8067176046   -0.4746431452    1.2784488477
 C    0.6151093142    0.1109000479    2.6414376580
 H    1.3447286841    1.7475404036   -0.3235697401
 H   -0.2216277823    1.8064911907   -1.1564068206
 H   -0.1319484291    2.1742498268    0.5749791861
 H   -1.0422804400   -0.0965407286    0.2342585298
 H    1.0259865892   -2.7267427247   -0.8014822797
 H    2.3499734621   -1.6094497238   -1.1530971139
 H    3.5494211045   -2.2366414161    1.3108795102
 H    2.5369389525   -2.0182551762    2.7408916921
 H    1.3148549088   -3.8470372628    1.8615032808
 H    1.1503267559   -0.4485863323    3.4122616982
 H    0.9636399416    1.1499659925    2.6824730526
 H   -0.4484674703    0.1281937992    2.9113633471