20

 C    0.1692934837    1.4744771644   -0.1769732625
 C   -0.1857347610    0.0157993773   -0.4115862881
 O    0.8930445572   -0.5912071093   -1.1069849090
 C    0.8397320589   -2.0029212929   -1.2550823162
 C   -0.4852711824   -2.5216676661   -1.8423390531
 O   -0.8746036412   -1.8641974524   -3.0277700919
 C    2.0334144286   -2.3200261167   -2.1593548790
 O    1.9229473731   -1.6304793578   -3.4034486211
 H    1.0815055864    1.5609166030    0.4202750962
 H    0.3329404938    1.9864468887   -1.1298343719
 H   -0.6430252650    1.9827272932    0.3509744015
 H   -0.3500479797   -0.4987449830    0.5489933487
 H   -1.1081421540   -0.0646992353   -1.0012217943
 H    0.9886995469   -2.4977914064   -0.2783468731
 H   -0.3746335918   -3.6110301660   -1.9850981257
 H   -1.2988072312   -2.3838374228   -1.1222317537
 H   -0.0851695004   -1.8262056474   -3.5870132270
 H    2.9650691846   -2.0437966932   -1.6464637406
 H    2.0700414152   -3.3888558761   -2.3886805741
 H    1.8058726082   -0.7022208214   -3.1601055748