23

 C   -0.2749787612    1.3715355710    0.2463517631
 C   -0.0073859484   -0.1209311034    0.0122444444
 C    0.6325110785   -0.3867936270   -1.3573016191
 C    0.8714018875   -0.6755222644    1.1280256779
 O    0.2991027055   -0.4912031417    2.4470129467
 C    0.4422458881   -1.8926096567    2.7817145154
 C   -0.8535815374   -2.5192397911    3.2561216189
 C    0.9561687576   -2.2141752356    1.3499256750
 O    0.1865855515   -3.0635084737    0.5355606492
 H    0.6551593912    1.9484667244    0.1805312599
 H   -0.9662241134    1.7658584891   -0.5053974330
 H   -0.7062076615    1.5371496217    1.2367218293
 H   -0.9755001498   -0.6416966829    0.0522983953
 H    1.6113321689    0.1018795687   -1.4312697587
 H    0.7713715170   -1.4579010020   -1.5268128747
 H    0.0054845026    0.0099306415   -2.1621116203
 H    1.8647010444   -0.2034931658    1.0726058898
 H    1.2213600824   -2.0257155244    3.5456221679
 H   -1.6522395534   -2.4117427207    2.5151708166
 H   -0.7135012171   -3.5845734560    3.4641151353
 H   -1.1880031483   -2.0273599503    4.1744501592
 H    1.9680960750   -2.6212681470    1.3146575772
 H   -0.7220147097   -2.7458960636    0.5245397144