21

 C    0.3009060327    1.4598580111   -0.4048902527
 C    1.5193766061    1.9392646460    0.4228344702
 C    2.1253049187    0.6725506480    1.0144503261
 C    2.3448131897   -0.4924482087    0.0828782671
 O    3.1394992908   -1.5593211373    0.5373792917
 C    2.6049595160   -2.0278403758    1.7780669084
 C    1.1120820700   -1.6352749867    1.8026953539
 C    1.0708096454   -0.4321481208    0.8843356873
 C   -0.1870210754    0.1686907606    0.2918256341
 H   -0.4802068887    2.2209330875   -0.4774920732
 H    0.6122656546    1.2290195332   -1.4290552590
 H    2.2267950718    2.5156718020   -0.1836061329
 H    1.1918368780    2.5925132265    1.2405207869
 H    2.7608057717    0.7585490097    1.8902700886
 H    2.4139610636   -0.3708072824   -0.9935740259
 H    2.7765066159   -3.1066717666    1.8311515645
 H    3.1384294014   -1.5603792681    2.6175882567
 H    0.4851897435   -2.4346388749    1.3896547336
 H    0.7653548695   -1.4321232250    2.8212878160
 H   -0.8938489912    0.4074035723    1.0973470459
 H   -0.7040986144   -0.5068484807   -0.3994955375