23

 C    0.0256342347    1.3382828913   -0.3146361367
 C    0.0724559778   -0.1905386481   -0.2555685216
 O    0.8994852002   -0.7223247937   -1.2940013574
 C    0.6995167898   -0.6780998004    1.0427392738
 C   -0.0618862518   -0.6398513413    2.4068546423
 C   -0.8910884532   -1.8661140739    1.9224184361
 C    0.5799514263   -2.1646604543    1.5088038831
 C    0.9762888660   -1.6829686039    2.9470213817
 C    2.4009447474   -1.3086666379    3.3290848802
 H    1.0313693872    1.7568476499   -0.2050719625
 H   -0.3834213455    1.6798858845   -1.2729430886
 H   -0.6097236500    1.7438120428    0.4795286200
 H   -0.9507869364   -0.5747473584   -0.3699143147
 H    0.5697826327   -0.3877487885   -2.1341054256
 H    1.7162073000   -0.2783555377    1.0720879494
 H   -0.4351758874    0.2430942137    2.9312055976
 H   -1.3100616996   -2.5032375792    2.7065717735
 H   -1.6190613096   -1.7054512672    1.1275539407
 H    0.9521779503   -3.0449706452    0.9828988758
 H    0.5513501238   -2.3200906634    3.7317704627
 H    2.9058331696   -0.6748031594    2.5967127615
 H    2.4089567408   -0.7772196685    4.2874843844
 H    3.0074138071   -2.2126565413    3.4543114944