20

 C    0.0753300254    1.5623091381    0.2397508889
 C   -0.0427644817    0.0427341162    0.0251395449
 C    0.6594131609   -0.4517582998   -1.2037542441
 C    0.0733910013   -0.7656509198   -2.3931695739
 N   -1.2655202556   -0.7215911607   -2.7935936038
 O    1.0138311658   -1.1984129527   -3.2933329481
 C    2.2140917062   -1.1587981394   -2.6493908412
 C    2.0732987891   -0.7026873828   -1.3778909316
 C    3.1562044416   -0.5307902295   -0.3586906910
 H    1.1202114283    1.8739218465    0.3376675902
 H   -0.3542082461    2.1089776262   -0.6057133769
 H   -0.4531823710    1.8711333508    1.1476093791
 H    0.3549016071   -0.4734511407    0.9085190181
 H   -1.1008821867   -0.2292636915   -0.0501484496
 H   -1.4920319912    0.1233801315   -3.3098527361
 H   -1.5016758202   -1.5144197102   -3.3811344963
 H    3.0651843809   -1.4997155263   -3.2168651401
 H    3.2767558408    0.5176869693   -0.0620284353
 H    2.9432269450   -1.0974012303    0.5555154680
 H    4.1185798400   -0.8774130646   -0.7462097713