23

 C    0.0426898406    1.5481028972    0.1477921959
 C   -0.0084176737    0.0157383610    0.1946761638
 C   -1.4019070061   -0.5391567264   -0.0242824553
 C   -2.0169685542   -0.4363830313   -1.4523002086
 C   -2.3044477462   -1.9701070372   -1.4574670074
 C   -1.7221800139   -2.0791083129   -0.0233046848
 O   -0.6806668119   -2.9938895815    0.1886597134
 C   -2.7473895897   -1.8763458829    1.1236755769
 C   -2.4560305506   -0.3434418250    1.1064763066
 H    1.0614367362    1.9138969217    0.3093037575
 H   -0.2973650312    1.9288513036   -0.8214038878
 H   -0.5960005140    1.9920655290    0.9191028911
 H    0.6675028659   -0.3993648186   -0.5637502642
 H    0.3713529411   -0.3366837285    1.1621275321
 H   -2.8948543608    0.2095508343   -1.5375834192
 H   -1.2954120228   -0.1311477013   -2.2150309563
 H   -3.3483430895   -2.2732627225   -1.5819008058
 H   -1.6902338546   -2.5139786607   -2.1793722192
 H   -1.0483490118   -3.8845316669    0.1583360633
 H   -3.7767406462   -2.1825465594    0.9144376968
 H   -2.4152538284   -2.3605383886    2.0453307238
 H   -2.0259389137    0.0234540679    2.0424137338
 H   -3.3043313444    0.2962579891    0.8488791436