14

 O   -0.7439936221    1.1835695692   -0.6533213828
 C   -0.2234508747    0.0087272889   -0.2424790899
 C    0.6867493572   -0.7699159989   -0.9111871061
 N    0.8877191157   -1.8527129496   -0.0685486062
 C    0.1129170955   -1.6727249507    1.0259944850
 C    0.0477297231   -2.6337061098    2.1814090268
 C    0.9165338154   -3.7919141299    1.9852665401
 N    1.6179266472   -4.6880764365    1.7858171798
 N   -0.5768851044   -0.5495111294    0.9532456558
 H   -1.3490164891    1.4713436650    0.0408429755
 H    1.1853659789   -0.6657733626   -1.8575397733
 H    1.4993387845   -2.6360443354   -0.2354053656
 H    0.3339259679   -2.1255216492    3.1099424163
 H   -0.9827176650   -2.9801029511    2.3244964145