19

 C   -0.0794939194    1.5465355588    0.0509226047
 C    0.0691425575    0.0271747207    0.0575603419
 C    0.9895877822   -0.5688981595   -1.0684052318
 C    2.0021403224   -1.3744084952   -0.2188565303
 C    2.3274573848   -0.3528022837    0.9185500788
 C    0.7983578794   -0.5453345057    1.2960207036
 O    0.2397189637   -0.2359949468    2.5192440000
 C    1.0810016235   -1.9854541460    0.8488499323
 O    0.8709978371   -3.0618572336    1.3314659327
 H    0.8890810329    2.0539485403    0.1044860718
 H   -0.5754479488    1.8780742882   -0.8676328780
 H   -0.6812798543    1.8784544949    0.9019552406
 H   -0.9310771773   -0.4172849837    0.0104705983
 H    0.4401404486   -1.1959734539   -1.7750200742
 H    1.4938910355    0.2191976085   -1.6361649528
 H    2.7715291432   -1.9532173297   -0.7228951760
 H    3.0029909334   -0.7444002271    1.6811647099
 H    2.6321767656    0.6457534036    0.6014094870
 H    0.3714078500   -0.9911350100    3.1054594313