23

 C   -1.6653798808   -0.1518132729   -0.1320595751
 C   -0.1533644966    0.0086479785    0.0716634999
 C    0.6546845347   -0.5527046368   -1.0896068639
 C    2.2010907046   -0.5825478637   -1.1082772294
 C    2.8013007725   -0.9532705186    0.2526909069
 C    2.4016229619   -2.4087470152    0.6137655727
 C    1.0695598023   -2.8589231519   -0.0442604060
 C    0.8482760420   -2.0703548273   -1.3402068614
 O    2.1474900070   -1.7813281611   -1.9396240869
 H   -1.9946994794    0.3482386778   -1.0494925508
 H   -1.9470850703   -1.2072899168   -0.2144827640
 H   -2.2274559259    0.2774712704    0.7028150266
 H    0.0865801366    1.0745805618    0.1828853994
 H    0.1385828015   -0.4643167190    1.0155233482
 H    0.3139984427   -0.0973366940   -2.0258354231
 H    2.7292735437    0.2376840732   -1.6033083762
 H    3.8926230078   -0.8739539886    0.2157353045
 H    2.4638323419   -0.2353741775    1.0093054238
 H    3.1900369500   -3.0683304964    0.2448799293
 H    2.3646411228   -2.5450068853    1.6986345125
 H    1.1138679057   -3.9311124367   -0.2612479009
 H    0.2131918177   -2.7145404113    0.6248781562
 H    0.1776284176   -2.5735942587   -2.0423672722