19

 C   -0.0103602806    1.5257369626    0.0265322624
 C    1.4424835293    1.9554627615   -0.0531785827
 C    2.4131885406    1.2836209957    0.9093624029
 C    1.9613994361    0.6007774128    2.1956408709
 C    1.1870174854   -0.7083790469    2.0087970914
 O   -0.0375618278   -0.5841017807    1.2996936416
 C    0.0594769626   -0.0207570662    0.0064798818
 O    1.2779730186   -0.3520698797   -0.6322913881
 C    2.1838274658    0.7190312211   -0.4754880774
 H   -0.5418975742    1.8616521038    0.9200118052
 H   -0.5534171170    1.8887705119   -0.8522240282
 H    1.6805596362    2.9360209670   -0.4480680501
 H    3.3547296433    1.8187278849    1.0043994561
 H    2.8493636740    0.3587027900    2.7922653175
 H    1.3643594063    1.2974962515    2.7980275394
 H    1.8328142449   -1.4446264549    1.5147342413
 H    0.9036794767   -1.1090711422    2.9864051499
 H   -0.7526261515   -0.4782054130   -0.5649757988
 H    2.9726643313    0.6877382809   -1.2171451251