18

 C   -0.3053653753    1.5093280021   -0.1874023733
 C   -0.1023574381    0.0341845810   -0.1747908315
 N   -0.4820607535   -0.7997319762   -1.0530036965
 C   -0.0051434909   -2.1130886986   -0.6126472784
 C    1.4142079743   -2.4836686761   -1.1421275363
 C    1.9694058664   -2.4062038023    0.3210202712
 O    3.0858400919   -1.6071458436    0.5914612077
 C    0.5934567249   -1.8774465808    0.8071805657
 O    0.5762382272   -0.4400187878    0.9291319574
 H    0.6590718694    2.0275155931   -0.1762289006
 H   -0.8609242564    1.7945495976   -1.0798463278
 H   -0.8525452525    1.8238633648    0.7066376558
 H   -0.7750189678   -2.8763220273   -0.7307338200
 H    1.5121793782   -3.4567140983   -1.6282067274
 H    1.8230509281   -1.7136272149   -1.8001843750
 H    2.1769458438   -3.4020822176    0.7250297975
 H    2.7679968759   -0.6967360052    0.6407531279
 H    0.1532586545   -2.3078988100    1.7087336336