19

 C   -0.1168568883    1.3757289647   -0.0067451699
 C   -0.0727237975   -0.0797673826    0.0207846127
 C    0.0060131808   -1.2836158093    0.0631886839
 C    0.0155255449   -2.7163276024    0.0726141445
 C   -0.5096781533   -3.4974404208    1.2818400923
 C   -1.3311519938   -3.4275000991    0.0316397344
 O   -2.4911255505   -2.6422873645    0.0624172579
 C   -1.5192335161   -4.6295231426   -0.8649073559
 O   -2.6460961789   -5.3909761442   -0.4769566794
 H    0.8773117080    1.8017952989    0.1675160956
 H   -0.4737308039    1.7508708342   -0.9723044873
 H   -0.7838646913    1.7670022981    0.7692314818
 H    0.8216292260   -3.1842050320   -0.4863853446
 H   -0.0029269762   -4.4240959020    1.5279166041
 H   -0.8574327299   -2.9149522378    2.1263558467
 H   -2.2535548800   -1.7445175394   -0.2072850855
 H   -1.6109660247   -4.2837472021   -1.9079717853
 H   -0.6486116270   -5.2908774668   -0.8052717482
 H   -3.3757460484   -4.7640603704   -0.4039707578