19

 O   -0.0905344724    1.4103615423    0.0164033826
 C   -0.0530150673    0.0144583302    0.0566045366
 C   -0.6125351638   -0.7176023718    1.2564701541
 C   -1.3700170488   -0.6848876388   -0.0439118112
 C   -2.6859209426    0.0272495201   -0.3633056191
 C   -2.8549145451   -0.9252250177   -1.5968934080
 C   -1.7112944036   -1.8219166574   -1.0093751924
 C   -4.1953281640   -1.5843860480   -1.7441779681
 O   -4.8669353165   -1.5941238293   -2.7436976571
 H    0.5553708981    1.7470410210    0.6460599738
 H    0.7956881798   -0.4388450791   -0.4585556129
 H   -0.1395213558   -1.6449655273    1.5656317258
 H   -0.9995040750   -0.1076621121    2.0674549444
 H   -3.4584065529   -0.1372577092    0.3962090431
 H   -2.6224848188    1.0936585866   -0.5833431153
 H   -2.5780607507   -0.4497646094   -2.5388232520
 H   -0.9398591789   -2.1406379611   -1.7147866184
 H   -2.1053787893   -2.7071448376   -0.4969218096
 H   -4.5467009420   -2.0936761113   -0.8126481064