16

 O   -0.0181037365   -0.0723015705    0.0043009055
 C   -0.0023786363    1.1555054173    0.0099356393
 C   -1.2410846798    1.9589530089    0.0306378677
 C   -1.2452213382    3.3170959972    0.0371055691
 N   -0.0434993157    3.9544337721    0.0234874485
 C    0.5451326727    5.2995528363    0.0230760420
 C    1.9448373892    4.5859849684    0.0004309403
 C    1.1534468858    3.2867690620    0.0043178839
 C    1.2435240119    1.9413985477   -0.0031621000
 H   -2.1762352144    1.4124538683    0.0408247384
 H   -2.1393630723    3.9296683251    0.0521978237
 H    0.3009135114    5.8895736272   -0.8650498635
 H    0.3249445018    5.8795287899    0.9240151402
 H    2.5381906030    4.7701131697   -0.8970717298
 H    2.5623136016    4.7607620599    0.8834066107
 H    2.1907832658    1.4173259505   -0.0182873560