22

 C    0.7056634537    0.9857208332   -1.0041768910
 C   -0.0497905990    0.1214467862   -0.0089416996
 O    0.8813635863   -0.4687899672    0.8745640659
 C    0.2833949072   -1.2929975973    1.8486498509
 C    1.3799469470   -1.8534636979    2.7532179844
 C    2.1388482146   -0.7484022920    3.4878329187
 O    0.7096335928   -2.7435375354    3.6338127432
 C    1.5499303001   -3.6477362069    4.3101166433
 H    1.4176043541    0.3818387460   -1.5740206486
 H    0.0103415471    1.4571753055   -1.7050839719
 H    1.2619775704    1.7715491610   -0.4851659322
 H   -0.7778529556    0.7274487235    0.5566862225
 H   -0.6239674963   -0.6614578754   -0.5329482804
 H   -0.4405558095   -0.7257045603    2.4578667000
 H   -0.2610047703   -2.1292214346    1.3826900037
 H    2.0841066683   -2.4198890666    2.1207900695
 H    2.9736051718   -1.1467194358    4.0713070091
 H    2.5370559999   -0.0352689576    2.7621881272
 H    1.4638899242   -0.2174601599    4.1676025655
 H    2.1637131347   -4.2349161380    3.6085422694
 H    2.2241814316   -3.1497909343    5.0218287340
 H    0.9042824771   -4.3312113862    4.8677151563