23

 C   -0.0106161800    1.4657448391    0.2719144621
 C   -0.0720630444   -0.0406984712    0.0072004790
 C    0.7398724117   -0.4687546163   -1.2220528612
 C    0.6760113425   -1.9798908387   -1.4721088938
 C    1.5183609665   -2.4819630858   -2.6738860980
 C    0.9838038470   -2.0014581354   -4.0265705246
 O    2.8991820368   -2.1635963496   -2.5051589864
 C    1.4801431930   -4.0092582112   -2.6147915349
 O    0.5534591324   -4.6775077521   -2.9912524511
 H    1.0202535722    1.7969533278    0.4402085823
 H   -0.4055364262    2.0344297428   -0.5773603121
 H   -0.5957678529    1.7389762451    1.1553293365
 H    0.2937355683   -0.5847122663    0.8876411919
 H   -1.1169864196   -0.3490121291   -0.1269380908
 H    0.3722855934    0.0795653723   -2.0989180967
 H    1.7856935056   -0.1653354417   -1.0768729595
 H    1.0296416974   -2.4982908503   -0.5711473948
 H   -0.3618150973   -2.2956934845   -1.6303257348
 H    0.9238854350   -0.9095653879   -4.0670503899
 H    1.6460391671   -2.3384035926   -4.8288570944
 H   -0.0119235399   -2.4143735473   -4.2043911422
 H    3.0066775569   -1.2169982746   -2.6374471894
 H    2.3910655944   -4.4545883324   -2.1573843872