16

 O   -0.1490656351    1.3948520423   -0.0142836449
 N    0.0698876354    0.0114174079    0.0440700061
 C   -1.0213382540   -0.6212598475    0.0399743010
 C   -2.5023354633   -0.3446773117   -0.0249581735
 O   -2.7544254757   -1.7721097324   -0.0297861327
 C   -1.3389159212   -2.0984186387    0.0641928981
 C   -0.8459371020   -2.9506880945   -1.1063949768
 C   -1.5273170066   -4.3054227551   -1.1417164566
 O   -0.9416101331   -5.3572498881   -1.1608544387
 H    0.7476223940    1.7476865107   -0.0030674935
 H   -2.9284260690    0.1558204652    0.8532636008
 H   -2.8605859879    0.1544268736   -0.9334431304
 H   -1.1151936707   -2.5920444751    1.0198281715
 H   -1.0786063454   -2.4240085921   -2.0409861387
 H    0.2362193765   -3.0937551622   -1.0405391247
 H   -2.6375396121   -4.2604705125   -1.1508052968