23

 C    0.4045667120    0.8110279436    0.8972211367
 C    0.2261575683   -0.1290824665   -0.2969978856
 C   -1.2417124105   -0.4279010969   -0.5782471790
 O    0.7565306147    0.4751074072   -1.4883371523
 C    2.1448908616    0.3050435871   -1.6852939466
 C    2.4876663686   -1.0161511622   -2.3533795040
 C    1.7938953888   -1.2982922648   -3.6657167572
 C    3.7794039895   -1.6450004086   -2.0419435232
 O    2.5747988181   -2.1389821734   -1.4528309439
 H    1.4595848016    1.0450564161    1.0696140967
 H   -0.1293298347    1.7507218967    0.7224953035
 H    0.0129889790    0.3527767384    1.8112796137
 H    0.7579445097   -1.0692037680   -0.1050978560
 H   -1.7741957489    0.4946564354   -0.8316535512
 H   -1.3410929086   -1.1221941655   -1.4168642638
 H   -1.7201283781   -0.8729546781    0.2994250433
 H    2.4664166495    1.1285315601   -2.3354940223
 H    2.7024363284    0.3853808826   -0.7417279701
 H    2.1025811596   -0.5751018311   -4.4286177359
 H    2.0336121755   -2.3042920185   -4.0175728518
 H    0.7110391509   -1.2120204979   -3.5444277521
 H    4.2437249301   -2.3022211986   -2.7762154304
 H    4.4732732149   -1.1613352370   -1.3544956386