14

 N    0.0936758156   -1.1399392959    0.0295322012
 C    0.0570686468    0.0153756258    0.0142025369
 C   -0.0389296885    1.4544446595   -0.0141546552
 C    0.3703518341    2.2363941800   -1.2287014388
 N    1.2156839331    2.2633391374   -0.0416929064
 C    0.9812891921    3.4099635619    0.8688184802
 C   -0.4384263851    3.2669583801    1.3683737707
 C   -0.9981317667    2.1549726588    0.8970890353
 H    0.8082598031    1.7191722920   -2.0774429263
 H   -0.2468436077    3.1003053068   -1.4666825971
 H    1.7093156141    3.3686002966    1.6884428858
 H    1.1558244772    4.3501247581    0.3315086039
 H   -0.9181150916    3.9955176603    2.0106179016
 H   -1.9910727865    1.7782741986    1.1016917882