18

 C   -0.1128064581    1.3282210450    0.0035458862
 O    0.0664498872   -0.0923336481   -0.0649001866
 C    0.6156722780   -0.5488554045   -1.2083641754
 O    0.9468282045    0.1452464796   -2.1300858179
 C    0.7348967208   -2.0589957750   -1.1183946751
 O    1.3120707270   -2.5279788666   -2.3223831278
 C    1.4933627999   -3.8640290799   -2.4154671723
 C    2.1123334737   -4.2052211672   -3.7453719581
 N    1.1578852121   -4.6359906775   -1.4652007521
 H    0.8472938991    1.8424175892   -0.0872745109
 H   -0.7722669388    1.6722544262   -0.7971998839
 H   -0.5604172701    1.5240786553    0.9777355230
 H    1.3462192568   -2.3351111578   -0.2523306358
 H   -0.2528219523   -2.5031050691   -0.9534550125
 H    2.2668034218   -5.2810631629   -3.8396678482
 H    1.4674510520   -3.8601656545   -4.5590167590
 H    3.0719481822   -3.6914494354   -3.8555228048
 H    1.3626785341   -5.6043045067   -1.7000865190