19

 C    0.0650094889    1.4898023630   -0.2164758800
 C   -0.0115007922   -0.0364400961    0.0119519800
 C    0.7184277315   -0.4209319801    1.3218545872
 O    2.0682988367   -0.0195938593    1.3479214305
 C   -1.4764528278   -0.5168803866    0.1240014709
 C   -2.4248352761   -0.2439055955   -1.0221825038
 O   -2.1334506749    0.2191678050   -2.0960777346
 C    0.6716978811   -0.7173695884   -1.1721834113
 O    1.7033593957   -1.3455761865   -1.0906167282
 H    1.0981626521    1.8226833631   -0.0981371423
 H   -0.3001352540    1.7704330439   -1.2062592273
 H   -0.5451941716    2.0078884513    0.5316986494
 H    0.2244753124    0.0797425693    2.1630561231
 H    0.6191250466   -1.5065802869    1.4802476951
 H    2.5038385783   -0.5438332487    0.6626782601
 H   -1.5217237738   -1.6026079927    0.3060401033
 H   -1.9345048110   -0.0721734489    1.0206041071
 H   -3.4781282670   -0.5269610811   -0.7956792213
 H    0.1658560749   -0.5843809448   -2.1473279478