14

 O    0.1012304684    1.3546492319    0.1090948081
 C    0.0676550966    0.0033699725    0.0393896891
 C    0.0702728991   -0.6974784138   -1.1641271198
 C    0.0336699054   -2.0965383875   -1.1283418739
 N   -0.0041608783   -2.8040619944    0.0138859801
 C   -0.0057319303   -2.1063973758    1.1513304295
 C    0.0285707153   -0.7203774115    1.2315646647
 C    0.0358789813   -2.8292145576   -2.3584341610
 C    0.0388238959   -3.4147152773   -3.4096712299
 H    0.1259591585    1.7214122039   -0.7817202057
 H    0.0999331438   -0.1804643240   -2.1178122698
 H   -0.0365519441   -2.6943129045    2.0656385031
 H    0.0255484428   -0.2033244041    2.1832209718
 H    0.0408227756   -3.9494054079   -4.3273448264