21

 C    0.5239163232    1.3194257898    0.2418821118
 C   -0.2656893914    0.0435789918   -0.0507444767
 O   -1.6510671007    0.3046279525   -0.2557856322
 C    0.2155394016   -0.6042914130   -1.3310198511
 O    1.4721287765   -1.2812406280   -1.2759854257
 C    0.2916962182   -2.0539239284   -1.5633870023
 C   -0.1027253422   -3.1213676405   -0.5748693943
 C    0.8236198249   -4.3317459064   -0.6510587913
 O    0.3516723081   -5.2924907547    0.2807184700
 H    1.5879063656    1.0911385247    0.3542067159
 H    0.4024229418    2.0416651418   -0.5720506472
 H    0.1783343539    1.7859019561    1.1716911480
 H   -0.1221143653   -0.6588999286    0.7824173920
 H   -1.9590794306    0.8560333395    0.4701881181
 H    0.0839437855    0.0359610864   -2.2065323856
 H    0.2398029254   -2.3716501324   -2.6078392681
 H   -0.0881671699   -2.7363591702    0.4475235912
 H   -1.1288437114   -3.4450739723   -0.7870673440
 H    0.8250984223   -4.7365113112   -1.6768297040
 H    1.8523361174   -4.0158070934   -0.4210957144
 H    0.9541022471   -6.0417631835    0.2704289700