20

 C    0.2852505686    1.6771940067   -0.1346984667
 C    0.1272957425    0.1580587394    0.0079335627
 C    0.6104579894   -0.5792465483   -1.2536050745
 O   -0.1231099474   -0.2127056290   -2.4134664184
 C    0.7962763142   -0.3982956055    1.2610988996
 C    2.3010949620   -0.2752131899    1.3878538424
 C   -0.0103979712   -0.5397296891    2.4834897365
 O    0.2763411378   -1.6785458830    1.6680074683
 H    1.3389478239    1.9635854971   -0.2208243760
 H   -0.2213491063    2.0159897243   -1.0414036587
 H   -0.1396315643    2.2071898620    0.7235313103
 H   -0.9425705384   -0.0718947611    0.1130094423
 H    1.6504566457   -0.3156778842   -1.4751541994
 H    0.5710008490   -1.6642391442   -1.0801350036
 H   -1.0212136917   -0.5427287421   -2.3074060471
 H    2.6165335016    0.7727131723    1.3802123257
 H    2.6369701885   -0.7303235934    2.3225650471
 H    2.8108963375   -0.7857748160    0.5646419202
 H    0.4775961274   -0.5287120414    3.4576788803
 H   -1.0512187189   -0.2168350044    2.4876030290