16

 O    0.1485928509    1.4017517913   -0.1001513780
 C    0.1026617838   -0.0118013295   -0.0524393163
 C   -1.3340048006   -0.5379169975    0.1391907877
 C   -1.4103532374   -2.0177962725    0.1976793111
 C   -1.7224319281   -2.8937153465    1.1631858336
 N   -1.5859914720   -4.1682952974    0.6098159925
 C   -1.1899431445   -4.0770947547   -0.7046236063
 O   -0.9720278977   -4.9389275230   -1.5105003610
 O   -1.0790186860   -2.7184279334   -0.9533099094
 H   -0.2425043978    1.6850477957   -0.9326782209
 H    0.5468573818   -0.4682415250   -0.9478858104
 H    0.7153337372   -0.3081238491    0.8048785490
 H   -1.7469199952   -0.1214359490    1.0629752948
 H   -1.9570757731   -0.1711505614   -0.6884339950
 H   -2.0276497292   -2.7309568750    2.1822657193
 H   -1.7612643422   -5.0502093431    1.0567622894