20

 C   -0.0604940256    1.4826634046   -0.0062993759
 C   -0.0148640226   -0.0474673938   -0.0604965646
 C   -1.3808501393   -0.6626955348    0.1955972037
 O   -2.3457642600   -0.3235801512   -0.8344832409
 C   -2.4773494934   -1.6941575504   -1.2517090054
 C   -1.5815096157   -2.1812965779   -0.0937568038
 N   -0.4447561887   -3.0013862553   -0.4185460278
 C   -0.0956673796   -4.1114039409    0.2946980649
 O   -0.6851435340   -4.5342644593    1.2645602736
 H    0.9172856992    1.9164476779   -0.2345533945
 H   -0.7846270955    1.8664323711   -0.7302463654
 H   -0.3598354288    1.8328438957    0.9874912181
 H    0.3516200002   -0.3672059146   -1.0447872986
 H    0.6895226525   -0.4393862783    0.6841671065
 H   -1.7510029304   -0.3505674979    1.1815659837
 H   -3.5182095935   -2.0364792859   -1.2403054164
 H   -2.0587312554   -1.8678574166   -2.2535790938
 H   -2.1174604005   -2.7006608692    0.6991232685
 H    0.1351221548   -2.7461841190   -1.2024862927
 H    0.8068278665   -4.5977668342   -0.1252336395