18

 N    0.7197087507   -1.1313815923   -0.7075341308
 C    0.5634838252   -0.0005862682   -0.5275693845
 C    0.3187119452    1.4209565528   -0.3583227151
 C    0.2054805694    1.9499008716    1.1043927845
 O    1.6353643768    1.6257117599    1.2823523919
 C    1.5508390966    2.3154705948   -0.0208609453
 C    0.6123900820    3.3904217508    0.6326501566
 C   -0.3331839495    4.2286058127   -0.2254424580
 C    1.2684677484    4.2626898237    1.7006142007
 H   -0.3966529328    1.7777251074   -1.0976702253
 H   -0.4872821897    1.6282127046    1.8825741758
 H    2.4719653113    2.4322987790   -0.5925642334
 H   -0.8448876809    3.6789451642   -1.0169717011
 H   -1.1014953997    4.6855450255    0.4073072276
 H    0.2214247751    5.0460640980   -0.6983354638
 H    1.8281682346    5.0793127556    1.2316624254
 H    0.5042412416    4.7188270076    2.3393384539
 H    1.9483791358    3.6848236624    2.3252646507