16

 O    0.1467118544    1.3881561179   -0.2542348761
 C    0.0526630268   -0.0139634785   -0.0300065935
 C    0.6636493498   -0.5039343084    1.2708045382
 C   -0.1736632765   -1.2944847841    1.9465874489
 C   -1.4970093626   -1.4106474641    1.2587421001
 C   -2.2662828243   -0.0930362278    1.1612390297
 C   -1.3794912033   -0.5591667342    0.0285699583
 O   -1.9703614270   -0.9741197664   -1.1622293045
 H   -0.2800273512    1.8262199513    0.4909478399
 H    0.5572860465   -0.4600257576   -0.8967398748
 H    1.6639041828   -0.2178041625    1.5742298601
 H    0.0362258084   -1.7722073569    2.8973250333
 H   -2.0554756108   -2.3389965039    1.2567304863
 H   -3.3307992290   -0.1656838000    0.9650205582
 H   -1.9657602954    0.7226151088    1.8125034682
 H   -2.1343010385   -0.1856309637   -1.6926992424