19

 C    0.0256017943    1.4844789253    0.0458452626
 C    0.0267814970   -0.0062414189   -0.0240513031
 N    0.0360342192   -0.7292019040   -1.1230541125
 C    0.0403112421   -2.0521601064   -0.7196869576
 C    0.0224731001   -3.1661090782   -1.7169157285
 C   -1.3108108620   -3.2491450430   -2.4778115903
 O   -1.3286540995   -4.2930416778   -3.4391496273
 C    0.0312246637   -2.1190906498    0.6483368031
 N    0.0229966453   -0.8083092830    1.0820729412
 H    0.9103058958    1.8711381986    0.5651484596
 H    0.0241742441    1.8797244239   -0.9705994717
 H   -0.8583106134    1.8695666139    0.5674590339
 H    0.8295749520   -3.0129394046   -2.4463844508
 H    0.2109340441   -4.1252563315   -1.2234321868
 H   -2.1213927482   -3.4740874856   -1.7766780996
 H   -1.5303784699   -2.2719910489   -2.9308190304
 H   -0.6830976423   -4.0732703321   -4.1183525436
 H    0.0336159430   -2.9484530599    1.3361877675
 H    0.0259930345   -0.5022720080    2.0404297044