19

 C    0.1244021078    1.9615843255    0.6383265822
 N   -0.2815192451    0.5649780294    0.5611343852
 C    0.3951870690   -0.3289904387   -0.3809260101
 C    0.5660851021   -0.5048802638    1.0885518721
 C    1.8963096611   -0.2425981328    1.7570044404
 C   -0.3006260927   -1.5779199005    1.7911075385
 O   -1.6210813676   -1.5665258372    1.3205635780
 C    0.2870293966   -2.9145114077    1.5817418155
 N    0.7873370070   -3.9447753369    1.4315344581
 H    1.1876628379    2.1292721604    0.4186490061
 H   -0.4654249436    2.5345130040   -0.0830958628
 H   -0.0901200724    2.3496209493    1.6385165541
 H   -0.2506458664   -0.9937239607   -0.9471407552
 H    1.2464707233    0.0711387326   -0.9289578000
 H    2.5055204275    0.4679015702    1.1953379363
 H    1.7596725347    0.1477264689    2.7718765370
 H    2.4627312585   -1.1761410640    1.8319709708
 H   -0.2653384207   -1.3790176028    2.8768159009
 H   -1.7454463069   -0.6445591052    1.0207189529