21

 C    0.0422455602    1.5325808642   -0.1046750281
 C    0.0160210919    0.0187032670    0.0741178862
 O    0.6301077897   -0.3837317366    1.2978559367
 C   -1.4156094046   -0.5571368961   -0.0155969163
 O   -2.0762523323   -0.1336469484   -1.1958769267
 C   -1.4070462621   -2.0816866233    0.0540170863
 C   -2.7603115828   -2.8213599250   -0.0033637164
 C   -2.1799961781   -3.4988055617   -1.2579806312
 O   -1.0186696239   -2.6329121383   -1.2413770442
 H    1.0703840523    1.9029882907   -0.0714891053
 H   -0.4153798896    1.8153377754   -1.0547003844
 H   -0.5270073218    2.0242624208    0.6958817413
 H    0.6184415919   -0.4551796753   -0.7112330298
 H    0.2516322074    0.1533525288    2.0030158603
 H   -1.9983148990   -0.1691842158    0.8334913865
 H   -1.7483772038   -0.7299536359   -1.8850420693
 H   -0.7283399140   -2.4182885662    0.8438250005
 H   -2.9970318802   -3.4702542512    0.8404340639
 H   -3.6001290817   -2.1567602398   -0.2118806378
 H   -1.8920617514   -4.5487080866   -1.1239265988
 H   -2.7501936582   -3.3997870666   -2.1878213735