16

 O    0.9117513760    1.0751275753   -0.0418806294
 C    0.3846494056   -0.1689835091   -0.0932147200
 C    0.0829808539   -1.0268682876   -1.1307994135
 C    0.2499902867   -0.7749351741   -2.6089039663
 C    1.2505986341    0.2455157603   -2.9262358915
 C    2.0660006509    1.0991846530   -3.1644288072
 C   -0.4630444270   -2.2054923505   -0.5257201833
 C   -0.4773574966   -2.0232503915    0.8309246311
 N    0.0467556766   -0.7690697690    1.0851641936
 H    1.2565934198    1.2829335440   -0.9237456275
 H    0.5409530082   -1.7085492426   -3.1083622659
 H   -0.7027080726   -0.4790162694   -3.0736115474
 H    2.7958266233    1.8310716269   -3.4098667728
 H   -0.8070880774   -3.0847309719   -1.0500238791
 H   -0.8072082493   -2.6592471459    1.6348962619
 H    0.1956152478   -0.3505294080    1.9864900474