16

 C   -0.3347117543    1.2033652827   -0.3921577715
 N    0.8453195609    1.3847141748    0.4613336676
 C    0.3457590641    0.0161201877    0.1777399122
 C   -0.2350095901   -0.7104431774    1.3299589481
 N   -1.2843826663   -0.3988921788    1.9718686634
 C   -1.4201889241   -1.3844371355    3.0533549423
 C   -0.2481210384   -2.3769007615    2.8299390520
 O    0.4693356009   -1.8149303334    1.7083077591
 H   -1.2684760414    1.5201421149    0.0598074227
 H   -0.2468696283    1.3698648846   -1.4624245767
 H    1.6674987115    1.5563127202   -0.1130267595
 H    0.9402209386   -0.6100167235   -0.4805261590
 H   -1.3621633570   -0.8807683794    4.0245437092
 H   -2.3993384052   -1.8712624369    2.9988222998
 H    0.4397029797   -2.4450083265    3.6768087215
 H   -0.5754181207   -3.3848828720    2.5577958588