19

 C   -0.0898164895    1.4844234474   -0.2997192879
 C    0.0064547636   -0.0274932303   -0.0712984609
 C   -1.3538064460   -0.6517379433    0.1773915660
 O   -2.2649318294   -0.5426377733   -0.9514706825
 C   -2.5838285331   -1.9450944178   -0.9033280291
 C   -1.7633678468   -2.7714867757   -1.9220293540
 C   -0.6857821073   -2.9472464080   -0.8285091319
 O    0.3714587584   -3.5048413632   -0.7879157730
 C   -1.5276590511   -2.1948959075    0.2182093720
 H    0.8962331416    1.9156680504   -0.4939972283
 H   -0.7337090968    1.7027025450   -1.1564081460
 H   -0.5114565492    1.9915824332    0.5751919665
 H    0.4767176494   -0.5095724463   -0.9354257796
 H    0.6442532866   -0.2450302568    0.7952244692
 H   -1.8190960621   -0.1920097643    1.0614478394
 H   -3.6534306461   -2.1393940740   -0.8097550666
 H   -2.2199767523   -3.7343121553   -2.1798568431
 H   -1.4668787477   -2.2553430980   -2.8380055063
 H   -1.6916646321   -2.6704160722    1.1841317062