19

 O    0.0800849998    1.3909184328   -0.0158775838
 C    0.0348724154   -0.0076386782   -0.0411285087
 C   -0.4493568821   -0.7182205659    1.2288571122
 O   -0.9006682727    0.1326322517    2.2589736455
 C   -1.2758358850   -0.7203723734   -0.0112778373
 C   -2.7139171485   -0.2303149340   -0.2716306926
 C   -2.5116011290   -0.7152375176   -1.7410934431
 C   -1.9203972140   -1.8473778563   -0.8454219106
 C   -3.1750268500   -1.6823315068    0.0663362836
 H   -0.4095187040    1.6537293370    0.7760953049
 H    0.8746429688   -0.4219460453   -0.5930089867
 H    0.0389091820   -1.6327958299    1.5649924199
 H   -0.1422727796    0.3461919048    2.8150881240
 H   -3.1602875139    0.7043840582    0.0651444725
 H   -3.4202031428   -0.9646625305   -2.2962809822
 H   -1.8038398993   -0.1482961932   -2.3492426428
 H   -1.4503672936   -2.7764864762   -1.1705743177
 H   -3.0732903720   -1.9981313915    1.1069025709
 H   -4.1296778095   -1.9986017257   -0.3636686581