17

 C    0.0729089590    1.4281410042    0.0731888179
 C   -0.0728162796   -0.1066642668   -0.0043373008
 C    0.7356316227   -0.6923235602   -1.2071788315
 N    2.0388071232   -0.9080413039   -0.6026819323
 C    1.9210645111   -1.1173599947    0.7681335734
 O    2.7828578213   -1.5104338926    1.5194020215
 N    0.6152026273   -0.7790407843    1.1020281209
 C   -1.4881427858   -0.4754078444   -0.0696796383
 C   -2.6576541258   -0.7441536456   -0.1266793112
 H    1.1316116585    1.7009584553    0.0535438645
 H   -0.4360098123    1.9059377589   -0.7686238683
 H   -0.3736100422    1.8055937459    0.9973687991
 H    0.2686286437   -1.6217865684   -1.5561422818
 H    0.7756924427    0.0177287497   -2.0373700279
 H    2.7450976537   -1.4455072593   -1.0802318077
 H    0.4311872584   -0.5086957699    2.0557256717
 H   -3.6888015659   -0.9951531139   -0.1729454292