17

 O   -0.0719162217    0.0695820984   -0.6387309062
 C   -0.0601207536    1.1874720488   -0.1861588317
 C   -1.2651087958    2.0445527127    0.0772592079
 C   -1.4782315850    2.5234659953    1.5053559336
 C   -0.7923170805    3.4217893948    0.5297993695
 C    0.7381987089    3.3939449252    0.5827878324
 O    1.3054991486    3.1840928391    1.9040678394
 C    1.8375123314    1.8958040017    1.5266531420
 C    1.2039581763    2.0012182773    0.1197789537
 H   -2.1378026026    1.8828459658   -0.5433571679
 H   -2.5044258181    2.7513456379    1.7696509149
 H   -0.8898782955    2.1014426382    2.3107953214
 H   -1.2890032698    4.3217886005    0.1880191523
 H    1.1789832515    4.2702187230    0.0986744277
 H    2.9333253880    1.8939952443    1.5262375938
 H    1.4779543043    1.0850532009    2.1710407010
 H    1.8992240537    1.9299065860   -0.7169879239