13

 N   -0.1306732471    1.3275344970    0.0082437577
 C    0.0142938359    0.0636144739    0.0009786737
 N   -1.1542767805   -0.7327325543    0.0029263683
 C   -1.0919125903   -2.0738770896   -0.0043348355
 N    0.0169059792   -2.7477990666   -0.0135442104
 C    1.1529341655   -1.9499540255   -0.0152639012
 N    1.2070664287   -0.6477725183   -0.0088217586
 C    2.3913708210   -2.6702829276   -0.0253780628
 C    3.4242440408   -3.2853468893   -0.0338931328
 H    0.7894795526    1.7644286165    0.0057602683
 H   -2.0357646140   -0.2388972434    0.0100226578
 H   -2.0431120530   -2.6016678007   -0.0021529466
 H    4.3405052311   -3.8232408118   -0.0414046578