16

 O   -0.2751559590    0.1580178716   -0.3998410502
 C   -0.0207563499    1.2457778473    0.0584604467
 C    1.3277768696    1.8294461016    0.1025957016
 C    1.8994114164    2.6854622933    1.1862782053
 C    3.2679284207    2.1834699276    1.4822531091
 C    3.6778854483    1.3889530160    0.4855842070
 C    2.6382699846    1.3992356281   -0.6070415338
 C    2.6179869510    2.8724976034   -1.1526013230
 N    1.5824947257    3.3018064154   -0.1604356705
 H   -0.8066321779    1.9103905555    0.4824978691
 H    1.2606117392    3.1032129798    1.9555696473
 H    3.8308577927    2.4844431226    2.3558087863
 H    4.6609019557    0.9488020476    0.3730331106
 H    2.6252852761    0.5785410581   -1.3191654110
 H    3.5556129423    3.4351002704   -1.1230820880
 H    2.1599177844    2.9413495917   -2.1409045265