14

 N   -0.0042244319    1.4162397187    0.0764186664
 C   -0.0322226167    0.0225171947    0.0302588731
 C   -1.0786875819   -0.8453306716    0.0368362416
 O   -0.5917530330   -2.1532301761    0.0329449651
 C    0.7486033167   -2.0636690041    0.0363174911
 O    1.4512503345   -3.2125784309    0.0158063749
 C    1.1754874165   -0.7727088770    0.0276420558
 N    2.4835094469   -0.2270804902   -0.0536655851
 H    0.8596273147    1.7666851893   -0.3222813258
 H   -0.8025143463    1.8582498673   -0.3583119815
 H   -2.1487438808   -0.7474585130    0.0531554756
 H    0.8303290226   -3.9377496149   -0.1199683689
 H    3.1138408231   -0.8618344009   -0.5311332738
 H    2.8778668656   -0.0485767312    0.8658554015