16

 C    0.0100725289    1.5354534972   -0.0815265224
 C   -0.0221903163    0.0157364781    0.0783903910
 N   -1.3910002953   -0.5174452928    0.0472885484
 N   -1.9564938241   -0.7566931168    1.2214191311
 C   -3.1778944256   -1.2203729567    1.2059004896
 C   -3.8444001320   -1.4604978239   -0.0276770428
 N   -3.3056844761   -1.2257785415   -1.1860217504
 C   -2.0193760425   -0.6983255829   -1.2172357029
 O   -1.4261179135   -0.3993566368   -2.2299682514
 H    1.0453484344    1.8866635913   -0.0438338113
 H   -0.4177047786    1.8256761708   -1.0433452600
 H   -0.5477919258    2.0235163450    0.7230592724
 H    0.5224833426   -0.4638559484   -0.7369147586
 H    0.3993139910   -0.2944586566    1.0357502663
 H   -3.6372143420   -1.4177978450    2.1665971397
 H   -4.8561692651   -1.8674580809   -0.0189877887