13

 C    0.0873505163    1.3553858775    0.0088488789
 N    1.3550373392    1.8062736595   -0.0007663219
 N    2.0854081676    0.6941342725   -0.0137357575
 N    3.4125412751    0.7118397422   -0.0263005761
 C    3.9601984790   -0.4815668820   -0.0379425994
 C    3.2021699608   -1.6848455293   -0.0371681385
 N    1.8896704386   -1.6892647509   -0.0246791350
 C    1.3015919502   -0.4811037917   -0.0125800160
 C   -0.0142296025   -0.0392381727    0.0023493774
 H   -0.7156745923    2.0778628988    0.0203823972
 H    5.0441851516   -0.4981123972   -0.0483675391
 H    3.7102071193   -2.6450993945   -0.0471732296
 H   -0.8988825329   -0.6527274922    0.0074915997