16

 C   -0.0517830359    1.5687238560   -0.0581341408
 C    1.5009989684    1.3593682501    0.0353532101
 N    1.1468528721    0.1956806557    0.9428534650
 C   -0.0090315499    0.0005697500   -0.0193268725
 C    0.7157089701   -0.2746211876   -1.3256383898
 N    0.7057896789   -1.0274578296   -2.4031252228
 N    1.7837966293   -0.5551196748   -3.0973771682
 C    2.4532184894    0.4644762727   -2.4584367406
 C    1.7719275246    0.6708935618   -1.2927364132
 H   -0.4667232018    1.9889162979    0.8594339419
 H   -0.4512163595    2.0497384858   -0.9512620867
 H    2.1762176228    2.1176191856    0.4272712845
 H    1.8298700666   -0.5607197528    0.8750699933
 H   -0.8477678715   -0.6127797486    0.3025690249
 H    2.0379731628   -1.0059582804   -3.9592233536
 H    3.3237768036    0.9174243383   -2.9062234214