20

 C   -0.0783865350    1.4808868525    0.0164388904
 C    0.0170121456   -0.0340071553   -0.0519977671
 C    0.8301031388   -0.5936510942   -1.2057957386
 C    2.0530895695   -0.5689399158   -0.3239256707
 N    1.1022440083   -0.5466107075    0.8935309110
 C    1.0141648775   -2.0690465919    0.7631162512
 C   -0.2753227138   -2.7756602926    1.1461798075
 C    1.4842404806   -1.8997696503   -0.6756405751
 O    2.0567203674   -2.8307493459   -1.5172572789
 H    0.8966443896    1.9453867393   -0.1598328977
 H   -0.7790459402    1.8596166069   -0.7356946316
 H   -0.4314689276    1.7909396334    1.0046938418
 H   -0.9690450863   -0.4702204547    0.1407988254
 H    0.7743563020   -0.4062360777   -2.2723592486
 H    3.0367245927   -0.1262380140   -0.3778090371
 H    1.8392774718   -2.4648365988    1.3659117632
 H   -1.1009041915   -2.5631202466    0.4621331628
 H   -0.1164524031   -3.8592364012    1.1459553866
 H   -0.5819469368   -2.4846104201    2.1567759989
 H    1.3556264803   -3.2691943855   -2.0117521534