18

 C    0.3485162166    1.5652242453    0.2831161143
 C    1.1523903319    0.5065177326   -0.4243433234
 C   -0.2698302439    0.2167646753   -0.0017198271
 C   -0.6319177337   -0.7012104609    1.1408706722
 C   -0.9726602732   -2.2088356078    0.9473064968
 C    0.5154424410   -2.5400252160    0.6966888541
 C    0.3957830316   -1.5857763949    1.9113190250
 O   -0.7393524010   -2.4032246384    2.3979820139
 H    0.6099728423    1.7880965569    1.3127860456
 H    0.0027455645    2.4231417125   -0.2826035090
 H    1.3583321023    0.6312365268   -1.4819451567
 H    1.9592151764    0.0363423279    0.1275058522
 H   -1.0005039963    0.2122757452   -0.8075719914
 H   -1.3433241267   -0.2343275036    1.8287350720
 H   -1.8676170771   -2.6624138038    0.5187494664
 H    0.8043011151   -3.5611437445    0.9483156861
 H    0.9837527923   -2.1717232235   -0.2163308883
 H    1.1502606478   -1.2965207790    2.6443782674