17

 O    0.8670158048   -0.3168115255   -0.1061422354
 C    0.4008579910    0.7913303682   -0.0655011369
 C    1.1904131122    2.0714276798    0.0720838887
 C    0.9677284866    3.0318901690   -1.1356930395
 C    0.9104400447    4.3945929962   -0.5005174146
 C    0.8009553759    4.3353910683    0.8340914494
 C    0.7651826127    2.8935504312    1.3215110446
 C    0.6841020794    5.4246622210    1.7293578916
 C    0.5860109609    6.3154035743    2.5351133647
 H   -0.7029172259    0.9541426600   -0.1324559857
 H    2.2474415205    1.8054523279    0.1426596132
 H    1.7630042669    2.9331734745   -1.8817257250
 H    0.0264232882    2.8128452364   -1.6634274251
 H    0.9197023335    5.3121977846   -1.0763428617
 H   -0.2494039942    2.6375394467    1.6581876122
 H    1.4285653874    2.7178603527    2.1727702539
 H    0.4992717753    7.1124747548    3.2313115355