20

 C    0.0400348529    1.4288799166    0.3996408812
 C   -0.1280278378   -0.0200056962    0.0000571177
 C    0.4999080476   -0.6261520759   -1.2387684390
 C    1.4166874735    0.1173831798   -2.1933578212
 O    2.3855897481   -0.7452141589   -2.7405480503
 N    0.9609133008   -0.9764834442    0.0884571335
 C    2.2316158275   -0.8902846827    0.6058318831
 C    2.3044783370   -0.5759148481    2.0865714506
 O    3.2290508307   -1.1294125650   -0.0594125631
 H    1.0148213985    1.8309654882    0.1160356809
 H   -0.7330608481    2.0373152870   -0.0808846108
 H   -0.0754771896    1.5468319516    1.4820170605
 H   -1.0901806388   -0.4403975843    0.2935895504
 H   -0.0579340686   -1.4268235327   -1.7237886198
 H    0.8198987949    0.5029977746   -3.0282430628
 H    1.8762629177    0.9820840891   -1.6925569104
 H    2.9072025718   -1.0590573603   -1.9816066756
 H    2.2110449173    0.5047784097    2.2404753586
 H    1.4975487781   -1.0633668719    2.6384839419
 H    3.2736380067   -0.8956446464    2.4698473845