18

 C   -0.0992432532    1.5264380434    0.0297264171
 C    0.0171862080    0.0080087546   -0.0169795540
 C    0.8656648932   -0.5998265495   -1.1810576730
 C    2.1212722868   -0.4235486208   -0.2771582075
 C    1.1162388188   -0.6245479472    0.8837710930
 O    0.8466553684   -2.0303676381    1.0536796503
 C    0.6121959236   -2.7713356084   -0.0757136865
 O    0.4710537612   -3.9645297026   -0.0157423446
 N    0.5435854115   -2.0206902596   -1.2256827616
 H    0.8642418406    2.0325817671   -0.0809129659
 H   -0.7542959253    1.8851929988   -0.7710034994
 H   -0.5335684104    1.8481271930    0.9820289806
 H   -0.9680934303   -0.4520350664    0.0982190018
 H    0.8243216740   -0.1675640420   -2.1813783024
 H    2.9256272599   -1.1540128840   -0.3799900971
 H    2.5239545061    0.5890677943   -0.2971575652
 H    1.3178589672   -0.2346623772    1.8815725223
 H    0.5603208100   -2.5397117853   -2.0875146677