16

 N   -0.0019028220    1.4229106975    0.2052674974
 C    0.0095094322    0.0295151698    0.0717083830
 C   -1.0874869022   -0.7922947446    0.0190565910
 N   -2.4708124608   -0.5311001221    0.0311167953
 N   -0.6105879256   -2.1214216229   -0.0277555399
 C   -1.3875423624   -3.2702841595   -0.0776994736
 O   -0.9309253502   -4.3870601654   -0.1285361991
 C    0.7715718005   -2.1012167663   -0.0133414621
 C    1.1823910734   -0.8031592299    0.0524750958
 H    0.7828657735    1.8720639502   -0.2478968210
 H   -0.8657279015    1.8394157526   -0.1187445296
 H   -2.8094790919   -0.0663797928   -0.8043097186
 H   -2.7732615345   -0.0087455013    0.8451706353
 H   -2.4612006204   -3.0309714520   -0.0642609466
 H    1.3139860496   -3.0303704989   -0.0521525832
 H    2.2061269522   -0.4612242643    0.0876746159