25

 C   -0.0525131529    1.6439797730    0.3462285385
 C    0.0314682551    0.1333191593    0.1001725502
 C   -1.3425940245   -0.5253625705   -0.0593660130
 C   -2.1118951937   -0.1532176357   -1.3748364524
 C   -2.5430755159   -1.5264895889   -1.9420671369
 C   -1.2921379876   -2.2298420154   -2.5180075197
 C   -0.4862610731   -2.6203271551   -1.2364768895
 C   -1.3678586536   -2.0770018898   -0.0885277111
 C   -2.7829490121   -2.3367472359   -0.6488239470
 H    0.9427817058    2.0851552095    0.4595142125
 H   -0.5499780367    2.1570350851   -0.4837360227
 H   -0.6204777988    1.8641499028    1.2572992853
 H    0.6416295953   -0.0507117087   -0.7928688507
 H    0.5635709131   -0.3387129376    0.9371206545
 H   -1.9511010687   -0.2133050664    0.8000312691
 H   -2.9794408221    0.4800354060   -1.1656333770
 H   -1.4779408521    0.3937492720   -2.0818096813
 H   -3.3788388536   -1.4723657881   -2.6429274666
 H   -1.5717644752   -3.1174078146   -3.0941419938
 H   -0.7279841342   -1.5740589027   -3.1884847476
 H   -0.3876560547   -3.7070988287   -1.1517800487
 H    0.5265387204   -2.2108484317   -1.2288097598
 H   -1.1447347192   -2.5253447957    0.8828912909
 H   -3.5789643162   -1.9257156286   -0.0195172824
 H   -2.9899117948   -3.3960413938   -0.8334344107