14

 O   -0.1547006130   -0.0432679099   -0.0653999435
 C   -0.1049502786    1.1547450763   -0.0280401855
 C    1.1861462164    1.8680871724    0.1211586731
 N    2.1695176755    2.4644708501    0.2428748280
 C   -1.3197669021    2.0953853785   -0.0987812735
 O   -2.4765519981    1.3874918734   -0.4621145454
 C   -3.3765237045    1.3093166838    0.6480819717
 C   -2.7767137203    2.2074219685    1.6915714321
 C   -1.6078337605    2.6768565157    1.2716584539
 H   -1.0933020259    2.8690584262   -0.8505317291
 H   -4.3718541581    1.6373556844    0.3195468439
 H   -3.4645900577    0.2690805495    0.9942795133
 H   -3.2553475745    2.4188772181    2.6389122369
 H   -0.9292222187    3.3392630130    1.7909599642