18

 N   -0.0582583354    1.4466145850   -0.0343279173
 C   -0.0505010050   -0.0104963904   -0.0140022853
 C    0.4073911245   -0.5865553212    1.3716176379
 N   -0.7932930528   -1.3247243579    1.8575881216
 C   -1.1951806124   -2.0267204865    0.5788692945
 C   -1.4860829712   -0.6001257615    0.0289132076
 C   -1.8739168006   -0.3235259549    1.5113456999
 C   -2.3465314124   -0.3279956254   -1.0992952695
 N   -3.0348093998   -0.1071662944   -2.0025791279
 H    0.8819790927    1.8006505316    0.1127769423
 H   -0.3539749119    1.7845739090   -0.9461806107
 H    0.5093585902   -0.4644226296   -0.8455235625
 H    1.2542316712   -1.2714658782    1.2895393414
 H    0.6589460888    0.2153596699    2.0698695000
 H   -0.4102217021   -2.6175199160    0.0989477757
 H   -2.0934267299   -2.6267327832    0.7310129452
 H   -2.8566294474   -0.7112882200    1.7827351014
 H   -1.7206773466    0.6886535038    1.8859851657