22

 C   -0.2562021001    1.5175923636    0.4080080190
 C    0.0043593401    0.0579992757    0.0767106001
 O    0.7129962216   -0.5279058634    1.1496019399
 C    1.0104298722   -1.8918904259    0.9413197768
 C    1.7558076646   -2.3886209856    2.1532163725
 N    0.9711523099   -3.0195747620    3.2274543312
 C    1.9674436838   -3.8216870261    2.4884127245
 C    1.3878460089   -4.9867397012    1.7175652449
 O    0.9131563463   -5.9868600730    2.6024701984
 H    0.6866667083    2.0512322659    0.5580308063
 H   -0.8041842749    2.0017896747   -0.4058081950
 H   -0.8472038367    1.6024040457    1.3242629669
 H   -0.9462125842   -0.4771406625   -0.0883470049
 H    0.5869896703   -0.0297379451   -0.8567744939
 H    0.0877813006   -2.4726273537    0.7963595437
 H    1.6319132849   -2.0150205606    0.0363808983
 H    2.5505886717   -1.7083308152    2.4552090038
 H    1.3299228048   -2.7474095848    4.1380447819
 H    2.8919134328   -4.0604115088    3.0121776463
 H    0.5906949353   -4.6418042430    1.0440904487
 H    2.1617828813   -5.4586365923    1.1028529396
 H    0.2874624087   -5.5419817123    3.1868919210