19

 O   -0.1092884073    1.4220071110   -0.4649169497
 C   -0.0311167181    0.0124734103   -0.4767155861
 C   -1.2479894299   -0.5909482973    0.2287250859
 O   -2.4268436178   -0.0080541195   -0.3485870812
 C   -3.2047308631   -0.9920781080   -1.0341472881
 C   -2.2984950784   -2.2098163901   -1.2094241960
 C   -1.4204693478   -2.1249542811    0.0617754933
 C   -0.1850827549   -2.8899248742    0.0057128434
 C    0.8303038408   -3.5316744345   -0.0417299659
 H   -1.0102943432    1.6316750002   -0.7421130161
 H    0.0353343756   -0.3813173305   -1.5045765662
 H    0.8869163155   -0.2722094013    0.0451725618
 H   -1.2205709472   -0.3049492623    1.2863503302
 H   -4.0907299030   -1.2414054769   -0.4321225137
 H   -3.5483938929   -0.5692439192   -1.9833750243
 H   -2.8492628549   -3.1502115188   -1.2753574680
 H   -1.6743714462   -2.1148528868   -2.1019949237
 H   -2.0155326221   -2.4855831419    0.9103421776
 H    1.7293928249   -4.0954459990   -0.0817323232