18

 C    0.0120156583    1.7939581913   -0.1827864831
 N   -0.0463169163    0.3591393374    0.0193452813
 C   -1.0209296364   -0.3026043610    0.8889548935
 C    0.0579246376   -1.4004733678    1.1800044267
 C    1.0868034880   -0.3711104589    0.6222487660
 C    2.1150131836   -0.8348171349   -0.2958763009
 C    2.9706303209   -1.2214086033   -1.0467866800
 C   -1.4368152255    0.3794520689    2.1770405140
 O   -0.8637650891    1.3067446746    2.6932448708
 H    0.7917745505    2.0071768519   -0.9215039727
 H   -0.9408705363    2.1366912246   -0.6002220058
 H    0.2159516767    2.3656794861    0.7322353404
 H   -1.9281727046   -0.6491826538    0.3746446357
 H    0.1932979897   -1.7088842204    2.2165790663
 H   -0.0548272000   -2.2713885822    0.5358413475
 H    1.5577254477    0.1866819821    1.4473450600
 H    3.7241472380   -1.5609284523   -1.7136969500
 H   -2.3379479829   -0.0764660722    2.6543789101