19

 O   -0.0446030897    1.3936804119   -0.6998738666
 C    0.0181325606    0.0972402012   -0.1198653715
 C   -1.3687712144   -0.4897604961    0.0750577020
 C   -1.9751293804   -1.2545955771   -1.0804292252
 C   -1.5298427351   -1.9840901211    0.1637254655
 N   -2.3056539326    0.3002389258    0.8427470031
 C   -1.9729448986    0.4052198902    2.2636633941
 C   -3.0331791094    1.1076823412    2.9934203375
 N   -3.8563007852    1.6771542575    3.5697062526
 H   -0.4231887734    1.2989240456   -1.5809425233
 H    0.6372441636   -0.5889238770   -0.7171659461
 H    0.5266635195    0.2351276343    0.8409166727
 H   -3.0407320443   -1.1398887828   -1.2358542796
 H   -1.3858873165   -1.3782878239   -1.9835270013
 H   -0.6401184040   -2.6021849947    0.1114601251
 H   -2.3054496470   -2.3573725025    0.8223483771
 H   -2.3490955624    1.2330184247    0.4418729202
 H   -1.8825083100   -0.6065963890    2.6749279033
 H   -1.0224290505    0.9208662517    2.4796166104