16

 O   -0.2125983829    0.1034196039   -0.4915055456
 C   -0.1100942600    1.2450369974   -0.1796017038
 N   -1.0586615622    2.3005687162   -0.0599938137
 C   -0.1730677198    3.0485478440    0.8518462249
 C    0.8470215838    4.2573542405    0.7654726764
 C    1.9218645160    3.1369812266    1.2014164818
 C    1.0027243029    2.3032548655    0.2544751774
 O    1.2710085282    2.9464406960   -1.0188595146
 C    1.1224186290    4.3476573330   -0.7241636121
 H   -2.0470452733    2.1325561033    0.0745023577
 H   -0.3439858584    2.7912266865    1.8999735051
 H    0.7099076692    5.1740991923    1.3377598603
 H    2.9542277520    3.2898991368    0.8837846222
 H    1.8570132894    2.8770602514    2.2572397562
 H    0.2858779952    4.7689553564   -1.2937572464
 H    2.0405790209    4.8895843202   -0.9771707058