17

 O    0.2420765716    0.1303903029    0.6815873479
 C    0.1678343763    1.2777224235    0.3032000472
 N    1.1334322043    1.9274713764   -0.4318826116
 C    2.6147735407    1.7128365213   -0.2437314539
 C    2.8120223463    2.9630066457   -1.1557347539
 C    1.6669267378    3.3205350107   -0.1649539893
 C    2.5393913014    2.6961945903    0.9502148022
 C    2.4294299352    2.5336395508    2.4008683272
 N    3.5443937383    3.3145930099    1.7745729862
 H   -0.7425971296    1.9001321781    0.4256187330
 H    3.0630980570    0.7238844469   -0.3096244726
 H    3.7431707782    3.5154823411   -1.0318197845
 H    2.5127649575    2.8373730086   -2.1962879750
 H    1.0212275616    4.1970207956   -0.1432681972
 H    1.7329706437    3.1344217772    2.9788303153
 H    2.6525581672    1.5591927884    2.8262121063
 H    4.4038389726    2.7697505825    1.7833814226