20

 C    0.0946740994    1.6995687105    0.1499931619
 C   -0.0187215647    0.1755287546    0.0601186868
 C    0.8449234358   -0.4124995699   -1.0588476590
 O    2.2423093288   -0.0859427513   -0.9074024999
 C    2.9445222975   -1.3013237339   -0.7024921479
 C    2.4629369432   -2.0172121934    0.5776522759
 N    1.4651979989   -2.8301150103   -0.2070871492
 C    2.1818709548   -2.4086286763   -1.4712420687
 C    0.8194557236   -1.9273820985   -1.2111219814
 H    1.1296854941    1.9960701503    0.3394124533
 H   -0.2231868259    2.1747365458   -0.7849197114
 H   -0.5309429072    2.0951477785    0.9555276414
 H    0.2482680654   -0.2804868276    1.0185346798
 H   -1.0588357394   -0.1138081575   -0.1402749666
 H    0.5107077193    0.0293695600   -2.0108968005
 H    4.0082772535   -1.1275026673   -0.8601651108
 H    3.2040750151   -2.7097986877    0.9862665324
 H    2.0605021275   -1.3930268014    1.3802300856
 H    2.5169367496   -3.0978142425   -2.2361294110
 H   -0.0393158995   -2.3885621721   -1.6863177606