17

 O    0.0279533224   -0.0581831681    0.1173954228
 C    0.0543258529    1.1283393610   -0.0947941422
 C    1.3219002893    1.9490827844   -0.1101487500
 C    1.3595992838    2.8086111207    1.1854680340
 O    2.5803939170    3.5104971906    1.2820200013
 C    3.6919913429    2.6231838208    1.3137373807
 C    3.7437001239    1.7915497918    0.0314755812
 N    2.4891588696    1.0975067206   -0.2517922101
 H   -0.8824036662    1.7094134576   -0.2441433854
 H    1.2736474442    2.6484476667   -0.9588181923
 H    0.5630334749    3.5592398947    1.1927681543
 H    1.2286010527    2.1460251063    2.0586718060
 H    4.5824896224    3.2495728152    1.4234138220
 H    3.6184040300    1.9622828728    2.1946843162
 H    3.9634534818    2.4630992986   -0.8094161058
 H    4.5520664065    1.0550077003    0.0820159312
 H    2.3670495318    0.2666561862    0.3180589760