19

 O    0.2381838708    1.3479358199   -0.2032186677
 C    0.1343761998   -0.0320651796   -0.0851668370
 C    1.0506751977   -0.9476778116   -0.8526715068
 C    0.2463972710   -2.0751687675   -1.4841454457
 C   -1.0823310387   -2.0446456074   -0.7368116602
 C   -1.0257432402   -2.0014113829    0.7756075068
 C    0.3572143201   -1.9995615398    1.4200786965
 C    1.1138906664   -0.9113145397    0.6725168236
 C   -1.2246092205   -0.7201815891   -0.0109820207
 H    0.0391466020    1.7373571472    0.6552391089
 H    1.8981477150   -0.5282211338   -1.3831633534
 H    0.0884750001   -1.8787200310   -2.5512860736
 H    0.7488624967   -3.0473923573   -1.4040000251
 H   -1.9462662992   -2.5187497639   -1.1903211959
 H   -1.8513442780   -2.4492041934    1.3186613071
 H    0.2827385614   -1.7517869444    2.4861583733
 H    0.8477076228   -2.9789184089    1.3509542228
 H    2.0054969016   -0.4754373506    1.1106071949
 H   -2.1337136390   -0.1328612762   -0.0013551379