19

 C   -0.1753127172    1.5174099603    0.2086362962
 C   -0.1254558255    0.0134480590    0.2624373262
 O    1.0960920177   -0.6129212600   -0.1788857534
 C    0.7391993891   -0.7171178173    1.1895653928
 C    1.6486840885   -0.2387415972    2.3357219592
 C    1.3401101578   -1.5600515793    3.0952816304
 C    0.0077823917   -1.5827628019    3.8668552725
 O   -0.7319961077   -2.0135165465    2.6977315296
 C    0.4684929202   -2.0493072520    1.8988875487
 H    0.7462320362    1.9543079215    0.6019108605
 H   -0.3051538744    1.8624809576   -0.8223560169
 H   -1.0204752639    1.8911636152    0.7967923725
 H   -1.0249891142   -0.4990580574   -0.0824558469
 H    2.6915981860   -0.1672347255    2.0156714589
 H    1.3700432211    0.6912411113    2.8403007872
 H    2.1783235981   -2.1140373745    3.5128802280
 H   -0.0494888024   -2.3326774431    4.6650613230
 H   -0.3462831748   -0.6191860964    4.2553917361
 H    0.5872817737   -2.9758536437    1.3313695856