20

 C   -0.3297850889    1.5484601760    0.1669271385
 C   -0.0962294616    0.0469133058    0.1335149124
 O   -1.2440884609   -0.6732345293    0.5513770047
 C    0.3777133357   -0.5717598449   -1.1913945718
 N    1.6876118160    0.0488599946   -1.4985612628
 C    1.6132067829   -1.1047578098   -0.5639533857
 C    1.2247798632   -0.5383392243    0.8054297265
 C    2.2027894479    0.3731284304    1.5161871885
 O    1.5610893108    0.8401816678    2.7022063712
 H    0.4917576353    2.0753228184   -0.3236443412
 H   -1.2627421715    1.7880219021   -0.3530284704
 H   -0.3961630275    1.9017746736    1.2008311442
 H   -1.4520111252   -0.3861079487    1.4475713662
 H   -0.2538882864   -0.9896209519   -1.9655090945
 H    1.9852177703   -0.3156705665   -2.4027609729
 H    2.1577339709   -2.0181004854   -0.7710494012
 H    0.9096069393   -1.3410945579    1.4780666617
 H    3.1196743269   -0.1886323320    1.7607110134
 H    2.4892122228    1.2037294602    0.8586292503
 H    2.1257834899    1.5050301318    3.1067965527