19

 C    0.0600302621    1.5462916854   -0.1328386744
 C   -0.0462474867    0.0252255335    0.0106044146
 C   -1.4585344891   -0.4934029491    0.0863803390
 C   -2.6033132704    0.0552710587    1.0032350835
 C   -3.4010994929   -0.5419480617   -0.1868976405
 O   -2.3060641375   -0.1706904428   -1.0581589445
 C   -3.1540557060   -2.0659531007    0.0219831877
 O   -2.2638291405   -2.6322828753   -0.9412915096
 C   -1.7091616381   -2.0313427667    0.2311501419
 H    1.1022639605    1.8507896560   -0.2640867795
 H   -0.5103888599    1.8905027929   -0.9994475184
 H   -0.3276480308    2.0604491390    0.7524696959
 H    0.4366919369   -0.4652093977   -0.8440752237
 H    0.4917832098   -0.3144144370    0.9052578264
 H   -2.7341216589   -0.3794758673    1.9990305304
 H   -2.6411044062    1.1452375919    1.0315541194
 H   -4.3786270210   -0.1874035316   -0.5101772046
 H   -3.8600257959   -2.7286186452    0.5098965063
 H   -1.1370124353   -2.6655034123    0.8998981300