17

 C    0.4084424644    1.4204191949   -0.0172006558
 C    0.1190491460   -0.0450015357   -0.0719548738
 C   -0.0451809706   -0.8909712712   -1.1539566529
 N   -0.3058112028   -2.0940299724   -0.5698397358
 N   -0.3011924053   -2.0154708312    0.7686998169
 N   -0.0435952312   -0.7757672366    1.0716610800
 C   -0.0138467605   -0.7244621581   -2.6201200840
 C    0.8990626412    0.2559781028   -3.2607226062
 N    1.1649680981   -1.1821535150   -3.4021454379
 H    1.4850986649    1.6269233707   -0.0386708128
 H   -0.0500655946    1.9534546493   -0.8539337618
 H    0.0167215037    1.8318487993    0.9158432810
 H   -0.4892312784   -2.9799579212   -1.0152792248
 H   -0.9505454449   -0.9443124979   -3.1293419077
 H    0.5844759335    0.7561805504   -4.1717252452
 H    1.5495050488    0.8440509161   -2.6211531764
 H    1.9055544477   -1.4462817542   -2.7553319827