21

 C   -0.0776689270    1.5350743599   -0.0195502770
 O    1.1545784513    0.8154637316    0.0095026682
 C   -0.0683987908    0.0628575217    0.0174120587
 C   -0.3782960860   -0.6651826915    1.3142405243
 C    0.6812174354   -1.6995285879    1.7469480323
 C    1.2678428533   -2.5882298811    0.6276762681
 C    0.3662748704   -2.8575603269   -0.5839308162
 O    0.4167279196   -1.8090536254   -1.5398694774
 C   -0.3820274720   -0.6781258811   -1.2747983775
 H   -0.3214940374    2.0899355112    0.8857749549
 H   -0.2913246683    2.0581526418   -0.9513919865
 H   -0.5000209480    0.0632392122    2.1225264362
 H   -1.3529111359   -1.1544076182    1.1964030238
 H    1.5071207207   -1.1701407038    2.2319699129
 H    0.2270448238   -2.3291698906    2.5206690546
 H    2.1760339668   -2.1265662718    0.2258371639
 H    1.5720261046   -3.5484233271    1.0606016068
 H    0.7315130895   -3.7418224175   -1.1161358550
 H   -0.6753900369   -3.0630600082   -0.2854137220
 H   -1.4514834408   -0.9550840047   -1.2582569076
 H   -0.2184182725   -0.0073340427   -2.1228410054