22

 C   -0.0818802085    1.5155477641    0.0380910952
 C    0.1386660869    0.0162915747    0.0426346272
 C    1.4470299388   -0.6874273454   -0.2748618605
 C    2.6361881850    0.0608258473    0.3354991510
 C    1.9747007195   -0.0357359236    1.7479301624
 C    0.7869135893   -0.7790857564    1.1310859416
 N    0.1081295561   -1.8049067267    1.8530734157
 C   -0.4394986602   -2.9309210915    1.1084209054
 C    0.7677618040   -3.1054648384    1.9626531138
 H    0.7631390431    2.0643953099    0.4618861054
 H   -0.2336194985    1.8831865915   -0.9828944647
 H   -0.9702872301    1.7789444021    0.6224743018
 H   -0.7013640190   -0.5322255193   -0.3827504776
 H    1.5125345144   -1.4100072829   -1.0810074834
 H    3.5676564044   -0.5068064058    0.2780223708
 H    2.8265432655    1.0684566819   -0.0487395199
 H    2.5457874647   -0.6764201030    2.4240231351
 H    1.7474306016    0.8999180878    2.2683001563
 H   -1.4110103068   -3.2876268352    1.4380832642
 H   -0.2831995213   -2.9602984742    0.0315989354
 H    1.7167879712   -3.2369504499    1.4464400942
 H    0.6950363896   -3.5915379869    2.9309965605