19

 O   -0.1273719322   -0.0679907265   -0.0737096712
 C    0.0011406771    1.1299465785   -0.0888776133
 C    1.3103426008    1.8729102084   -0.0648546327
 C    1.3422903825    3.0981639356    0.9109320317
 C    1.9306667001    3.9792766221   -0.2208300063
 C    1.6045278483    2.8690725296   -1.2601832709
 C    2.7873510200    2.2773180848   -2.0477229288
 C    3.3215077729    1.2130774121   -1.1144393646
 C    2.5305813761    0.9931960800   -0.0648094854
 H   -0.8926093250    1.7994986755   -0.1221651618
 H    0.3354669962    3.4091358381    1.2083309299
 H    1.9440901264    2.9669401100    1.8129304966
 H    1.4481529898    4.9463896110   -0.3787766847
 H    3.0061653478    4.1453747137   -0.1174780405
 H    0.7394683910    3.1067907346   -1.8829241070
 H    2.4790663154    1.8412597155   -3.0075563602
 H    3.5353106438    3.0453053572   -2.2844706032
 H    4.2451254904    0.6798119349   -1.3133129344
 H    2.7027616786    0.2548967750    0.7094194767