24

 C    0.0418621916    1.5290830123   -0.4905598281
 C    0.0016659054    0.0577137321   -0.1362136674
 C    1.2374982782   -0.7752532626   -0.1275585129
 N    0.5283777222   -0.4913780837    1.1193695412
 C    1.1747355003    0.3789535765    2.0811790563
 C    0.2645753294    1.0072250624    3.1669230901
 C    1.3663313038    0.6942269754    4.2195995061
 C    0.9510407957    0.2137933333    5.6012584273
 C    1.9624111190   -0.3314772407    3.2125144234
 H    1.0080839462    1.9884072273   -0.2694842149
 H   -0.1454431638    1.6560159345   -1.5622449888
 H   -0.7317351359    2.0874665444    0.0481136448
 H   -0.9242004747   -0.4325058132   -0.4359291711
 H    1.2254463737   -1.8094412207   -0.4625870532
 H    2.1794330099   -0.2550898879   -0.3039050984
 H    1.8061457116    1.1507989747    1.6144561649
 H   -0.0525215948    2.0454284315    3.0379522326
 H   -0.6185940180    0.3787925864    3.3200177385
 H    2.0403276342    1.5534573909    4.3149420706
 H    0.2769309702   -0.6473084214    5.5301270058
 H    1.8201774292   -0.0914760596    6.1951988701
 H    0.4290822797    1.0010912039    6.1572504727
 H    1.5511425590   -1.3321577503    3.3773257232
 H    3.0494500380   -0.3999198957    3.1212435774