19

 O    0.3974911669   -0.0600482051   -1.3971971991
 C   -0.0233047782    0.1062272060   -0.0491806100
 C   -1.4014848448   -0.5199664909    0.0626851768
 C   -1.5044171449   -2.0744725683   -0.0531475884
 C   -1.1384638939   -2.1417342289    1.4581797483
 C   -1.9382257388   -0.7942947600    1.5153444384
 C   -3.3298728608   -1.3103423272    1.1683223814
 O   -4.3874329949   -1.0425962593    1.6701472610
 C   -3.0317139675   -2.2746181285   -0.0056484557
 H    1.2440690112    0.3830616955   -1.5059487946
 H    0.6925105683   -0.3539629000    0.6469353745
 H   -0.0944634672    1.1726740721    0.2178361214
 H   -2.0780541194    0.0376326539   -0.5948716709
 H   -0.9417771830   -2.6189121210   -0.8090904263
 H   -1.5230949075   -2.9837806114    2.0407903197
 H   -0.0766829150   -2.0121437818    1.6637693267
 H   -1.8652294587   -0.0784312125    2.3321081676
 H   -3.5527478594   -1.9609517322   -0.9154613257
 H   -3.3418030324   -3.2966710104    0.2332575949