21

 C   -0.2640941718    1.2807477703   -0.0738443439
 O    0.2543114174   -0.0329512522   -0.1525542263
 C    0.7798352440   -0.5561815766    1.0745290692
 C   -0.3102816162   -0.7688296864    2.1265400741
 C    1.4777121005   -1.8772242341    0.7549504709
 O    0.5701011556   -2.8831387939    0.2575466089
 C    1.1751915146   -2.8678715483   -1.0553739555
 C    2.3257594447   -1.9632533809   -0.5512404239
 O    2.6547100941   -0.8000357229   -1.2464305779
 H    0.4613281119    1.9754011455    0.3755322741
 H   -0.4747936283    1.6018316595   -1.0967276389
 H   -1.1957770979    1.3241418746    0.5034188219
 H    1.5426130538    0.1431777931    1.4571501623
 H   -1.0491651204   -1.4785291250    1.7468209733
 H    0.1287116881   -1.1795750165    3.0409075090
 H   -0.8105368633    0.1653617393    2.3930459114
 H    1.9844851388   -2.2181203423    1.6680552923
 H    1.4375952327   -3.8752846002   -1.3972949913
 H    0.5321961483   -2.3799614875   -1.7985140835
 H    3.2567537305   -2.5150433278   -0.4001376590
 H    1.8458350428   -0.2669904478   -1.2566302072