20

 C   -0.0648469208    1.5427059274   -0.0715393012
 N    0.1020445457    0.0971911296   -0.0091622845
 C    0.6643908106   -0.5916132333   -1.1336543084
 C    2.2659178004   -0.6141828819   -1.1285113888
 C    2.9500468414    0.3346724423   -0.2277846875
 C    2.3650540258    0.3132156835    0.9828540638
 C    1.1431635294   -0.5606912179    0.9001704747
 C    1.4283024963   -1.5505161514   -0.2873696826
 C    1.4871866133   -3.0457192629   -0.2452597497
 H    0.8378457452    2.0938493561   -0.3729326853
 H   -0.8563727526    1.7602809899   -0.7974737765
 H   -0.3928407715    1.9149747926    0.9046702301
 H    0.1243206004   -0.7116862402   -2.0674414766
 H    2.7224693579   -0.9825610592   -2.0405627739
 H    3.7587816117    0.9856025538   -0.5387722313
 H    2.5927185014    0.9629367800    1.8187956693
 H    0.7093731837   -0.9318987420    1.8298215053
 H    0.5774125455   -3.4685632208    0.1953905778
 H    1.5907775140   -3.4573629595   -1.2548138742
 H    2.3424878023   -3.3939435862    0.3451027096