18

 C   -0.3216079851    1.0741141410   -0.1373402307
 O    0.5072362161   -0.0519479919    0.1132136407
 C    0.9605145697   -0.6639079622   -1.0377380519
 C    1.4909308065   -2.0433489879   -0.9171360636
 C    0.1541361035   -1.8392091499   -1.6349387971
 C   -1.1036823886   -2.3332268999   -0.9278042133
 O   -1.1912101043   -3.7431658343   -0.8766205662
 C    0.1356796789   -1.9679851868   -3.0659551628
 N    0.0947202517   -2.0798100796   -4.2180526462
 H    0.2068390355    1.8304556131   -0.7339721599
 H   -1.2414910534    0.7894705321   -0.6653699748
 H   -0.5793491767    1.4994653922    0.8341053931
 H    1.4213528125    0.0054375109   -1.7647460035
 H    2.3562004756   -2.3223979979   -1.5057060965
 H    1.4147218017   -2.5207450733    0.0531226981
 H   -1.0720775729   -1.9877749653    0.1078376811
 H   -1.9893720499   -1.8918041521   -1.4068641589
 H   -1.2870181307   -4.0709670780   -1.7775563175