16

 C   -0.0657855440    1.3559636905   -0.0699378848
 N    0.1480112354   -0.0827246311   -0.0621201215
 C    0.6421049443   -0.6124386558    0.9571166984
 C    1.2051999849   -0.1906528010    2.3261398101
 O    0.3240645294    0.5431515835    3.1425859191
 C    1.4032024419   -1.6914267718    2.5639182795
 C    0.1591990187   -2.4359291651    2.3178434644
 N    0.9606817867   -2.0198655189    1.1317623756
 H    0.5018090667    1.7936463989   -0.8988690548
 H   -1.1238342608    1.5534131833   -0.2737222341
 H    0.2078919556    1.8620235016    0.8639892691
 H    2.1709494320    0.3203916138    2.2042814779
 H    0.7839517122    0.7833651963    3.9540607533
 H    2.2959592525   -2.1492335601    2.9739735705
 H    0.1728399280   -3.5097435324    2.4710315895
 H   -0.7989181036   -1.9542474319    2.4912992278