17

 C    0.2174027996    1.3476514935   -0.2209042269
 O   -0.2313798095    0.0455826444    0.1510156756
 C    0.5217255641   -0.5444711870    1.1271680834
 C    1.9269813021   -1.0586844363    0.9282686703
 C    0.8406790137   -1.9988122237    1.3818003978
 N    0.6898016790   -1.8432908699    2.8495571268
 C    0.1953207274   -0.4365476309    2.6377824845
 C    0.8714273428    0.5886714231    3.4322174211
 N    1.4055768701    1.4208204981    4.0310206221
 H    1.2570471181    1.3222738847   -0.5702928891
 H   -0.4321727548    1.6821351026   -1.0316480407
 H    0.1426029435    2.0527545543    0.6165297614
 H    2.1947050377   -1.1560222240   -0.1191955516
 H    2.7375964944   -0.8021313127    1.6045683761
 H    0.5568227823   -2.9036262104    0.8606806118
 H   -0.0695298345   -2.4158936792    3.2053954608
 H   -0.8869345162   -0.3454241266    2.7718517565