23

 C   -1.5339080040   -0.5112776880   -0.0784611519
 C   -0.1008473426    0.0333139174   -0.0144665037
 C   -0.1022719821    1.5651023921    0.1078833696
 C    0.7123422570   -0.5743143510    1.1312323327
 O    0.0338180736   -0.4826187734    2.4147781574
 C    0.0941423220   -1.9111132806    2.6189629552
 C    0.8197896765   -2.0942357983    1.2919376715
 C    0.6850239904   -3.1872408419    0.2769876810
 C    1.9966520444   -2.9716900537    0.9980371840
 H   -2.0688709506   -0.2732648290    0.8453806439
 H   -2.0796556693   -0.0606148771   -0.9132835514
 H   -1.5535526731   -1.5963116002   -0.2115379376
 H    0.4253673467   -0.2380874948   -0.9424395288
 H   -0.5646852222    1.8703641086    1.0523578557
 H    0.9148774438    1.9705328195    0.0852274348
 H   -0.6668557480    2.0248053024   -0.7093728360
 H    1.6892793059   -0.0699059950    1.1841742068
 H    0.6675796187   -2.1722689976    3.5183374515
 H   -0.9071804854   -2.3567314714    2.6887237609
 H    0.0897793585   -4.0563354149    0.5404600199
 H    0.6285394629   -2.9131762781   -0.7716208969
 H    2.8230135235   -2.5452623591    0.4372409113
 H    2.2951139832   -3.6957298960    1.7498633000