18

 O    0.0797677797    1.3023031721   -0.4681527469
 C    0.0479685854    0.0442131500    0.1870439373
 C   -1.3520492378   -0.5183249120    0.2243391761
 C   -2.3960448268    0.1141651082    1.1547792922
 C   -3.3977426184   -0.9894007466    1.4662016721
 O   -4.0954516728   -1.5166740921    0.3250806299
 C   -2.9583909362   -2.2390712151    0.8244655838
 C   -1.6830446683   -1.9667476767    0.0445684629
 N   -1.8066630340   -1.0308662283   -1.0815408186
 H   -0.2673701367    1.1466244190   -1.3546608468
 H    0.7115147481   -0.6819561473   -0.3053897337
 H    0.4265410145    0.2172224045    1.2002581638
 H   -1.9150410617    0.4361833018    2.0856545260
 H   -2.8719063198    0.9977852377    0.7171120814
 H   -3.9865586152   -0.9555408879    2.3796729330
 H   -3.1665354688   -3.2313430171    1.2121649481
 H   -0.9446304688   -2.7559597047   -0.0521599702
 H   -2.7985457424   -0.8359107954   -1.2139931203