17

 O   -0.8493214638    0.1465893911    0.6983948450
 C   -0.4601598998    1.2296064694    0.3840792703
 C   -1.1105000859    2.6013419192    0.1396643913
 N    0.2533000739    3.1888049936    0.1546050823
 C    0.9256097355    1.8565677617    0.1005854215
 C    2.0429076720    1.6306171366    1.0782877454
 C    2.9659351425    0.4516246887    0.8961598193
 C    3.4789210539    1.8479629010    0.6616933985
 H   -1.6404992773    2.6325389454   -0.8234510363
 H   -1.7819072378    2.9742371100    0.9207632544
 H    0.4585970415    3.7929815372   -0.6318821593
 H    1.2522282772    1.5633453375   -0.9117070326
 H    1.7901650632    1.9022861829    2.0985342780
 H    3.2909842928   -0.0801361377    1.7827993171
 H    2.8088187704   -0.1862366563    0.0328384409
 H    3.6703715232    2.1552881484   -0.3614495418
 H    4.1587149084    2.2789296711    1.3879133260