14

 N   -0.0030462262    1.3790221419    0.0325033782
 C   -0.1053591128   -0.0033489288   -0.0013245970
 C   -1.1579827991   -0.8443384421    0.0601466998
 C   -0.6411352988   -2.1924043728   -0.0081149598
 C   -1.3284026485   -3.4207732238    0.0355269482
 N   -1.8614435061   -4.4512168180    0.0744656305
 C    0.7273016692   -2.0567107500   -0.1212743549
 N    1.7224907100   -2.9764860050   -0.3002669331
 O    1.0798185167   -0.7652650016   -0.1160760229
 H    0.4805197927    1.7253192302    0.8549983065
 H    0.4470376022    1.7642074949   -0.7914563113
 H   -2.1921425308   -0.5552357244    0.1486222051
 H    1.4656744776   -3.9257237927   -0.0710946690
 H    2.6312357239   -2.7044767176    0.0451889194