20

 N   -0.1139812286   -1.1158541145   -0.0827305652
 C   -0.0656040518    0.0385951626   -0.0790469435
 C    0.0213413691    1.4959937787   -0.0720865360
 C    1.4768773053    1.9959816055   -0.0284377673
 N    1.4940376967    3.4485906595    0.0030288683
 C    2.8262990048    4.0202775106    0.1798259377
 C    2.7678134050    5.5263967718    0.1291336388
 C    3.9498017084    6.3125554437   -0.2917507825
 N    2.7688426931    6.2266782210   -1.1713181647
 H   -0.4821603822    1.8787309944   -0.9682721279
 H   -0.5237658685    1.8909553120    0.7911424416
 H    1.9529118045    1.6258839013    0.8866618352
 H    2.0388819114    1.5594436849   -0.8731965150
 H    1.0831095295    3.8195845551   -0.8491942659
 H    3.2036437502    3.6959565867    1.1590702531
 H    3.5572641671    3.6617820250   -0.5722005933
 H    2.0813188772    5.9673736060    0.8483682054
 H    4.1314273597    7.2930477245    0.1381312703
 H    4.8485743555    5.7700468941   -0.5748032092
 H    2.9612088437    5.5614539570   -1.9184777297