20

 N    0.0609713828   -1.2247569318    0.4187045881
 C    0.0446128448   -0.0829832876    0.2360024402
 C    0.0283454487    1.3651721884    0.0021802123
 C   -0.6756698112    2.1082267419    1.1665934002
 C    0.4393681465    2.2604585922    2.2108825579
 C    1.6850060222    2.6210153626    1.3746901863
 C    1.4543213922    1.9661013426    0.0003338004
 C    2.5669839469    1.3053770148   -0.7678000785
 C    1.9871004984    2.6074941070   -1.2579729986
 H   -0.4802096613    1.5345347715   -0.9519121317
 H   -0.9942642147    3.0909269692    0.8017105241
 H   -1.5583300481    1.5804386120    1.5335379200
 H    0.2074773098    3.0082374375    2.9732054754
 H    0.5906707846    1.3044046058    2.7241039678
 H    1.7636734817    3.7086246393    1.2640617770
 H    2.6105970000    2.2780238660    1.8454305884
 H    3.5574479503    1.3178466738   -0.3249629756
 H    2.3397967788    0.3991158271   -1.3196204596
 H    1.3690116422    2.5884573136   -2.1502794564
 H    2.5809669154    3.5094490141   -1.1476133877