23

 O   -0.1454146232    1.5101950868   -0.1295180550
 C    0.0086845143    0.1054093394    0.0405318132
 C   -1.3613879822   -0.5363084395   -0.1129496677
 C   -2.0175948156   -0.3595227251   -1.4966540827
 C   -3.1836732005   -1.3664643058   -1.4701986180
 C   -2.6424018864   -2.5827404165   -0.6962284767
 C   -1.6928866619   -3.5294789549   -1.4866418239
 C   -0.4692524946   -2.9659011878   -0.7129050958
 C   -1.4151217574   -2.0555556022    0.1335199603
 H    0.7243663243    1.9160955719   -0.0734274164
 H    0.7066359377   -0.3036613850   -0.7066226635
 H    0.4201909502   -0.1289183690    1.0362317005
 H   -2.0170982023   -0.0600145437    0.6298798689
 H   -2.3342872782    0.6687482120   -1.6822846274
 H   -1.3004328363   -0.6211053148   -2.2863923644
 H   -4.0301968938   -0.9299389551   -0.9264540309
 H   -3.5467154256   -1.6319603566   -2.4688124670
 H   -3.4266398402   -3.0989425989   -0.1382205167
 H   -1.8795910861   -4.5920127569   -1.3117528793
 H   -1.6788235671   -3.3647720246   -2.5686014378
 H    0.0832733011   -3.7053057097   -0.1280609053
 H    0.2515987104   -2.4301957749   -1.3361464361
 H   -1.4108369366   -2.2988835890    1.1987274417