18

 C   -0.0960114738    1.5027966854    0.0271631543
 C   -0.1060383465   -0.0151768191   -0.0123446920
 O   -0.1977000139   -0.6736569971    1.0022020547
 N    0.0001297622   -0.6553884973   -1.2529670720
 C   -0.0169102334   -2.1250735407   -1.2716618856
 C   -1.4145598703   -2.6974477865   -1.0611985040
 O   -2.2510001962   -2.2098221762   -2.0965705414
 C    0.1386084856    0.0184388133   -2.4616520050
 O    0.3070181074   -0.5200137257   -3.5268396351
 H    0.8323418256    1.9152987639   -0.3784512714
 H   -0.9295559464    1.9294860325   -0.5384818704
 H   -0.1884431784    1.7925018373    1.0733859374
 H    0.3640837138   -2.4213436895   -2.2489734584
 H    0.6443506394   -2.4902887040   -0.4838237736
 H   -1.3324626558   -3.7959451815   -1.0851220292
 H   -1.7833513180   -2.4082699072   -0.0691216401
 H   -3.1545764149   -2.4751203103   -1.9040214608
 H    0.0923208935    1.1118914625   -2.3527532675