14

 N   -0.0020645196    1.2358275384    0.0072385197
 C   -0.0285536031   -0.0162006782    0.0008152476
 C   -1.2776502959   -0.9177751631    0.0029883354
 C   -0.6543944798   -2.2818300415   -0.0077693429
 C    0.6965557742   -2.0933782261   -0.0143605926
 N    1.3204744623   -3.2787510301   -0.0242303509
 N    0.3982833971   -4.2930125589   -0.0244426993
 C   -0.7900278550   -3.6858077512   -0.0145341651
 O    1.1478685367   -0.8129610746   -0.0100807253
 H    0.9530488308    1.5952003424    0.0037661613
 H   -1.8824764090   -0.6916155709    0.8874640740
 H   -1.8923373225   -0.6822456743   -0.8721954770
 H    2.3015418922   -3.4961303272   -0.0308772668
 H   -1.6836530484   -4.2922401546   -0.0127655980