19

 C    0.6128021993    1.2858803074   -0.5237415890
 C    0.0406400291    0.0202639348    0.0926952997
 O    0.2148432810   -1.1260099346   -0.7824199166
 C    0.9448996341   -1.8442542638    0.2432664032
 C    2.4361444900   -1.8633172444    0.0252130357
 C    3.0662162646   -1.0485201711    0.8715654304
 C    2.1257458168   -0.3290030654    1.8196662786
 O    2.3872056883    1.0590174961    1.9703457886
 C    0.7260541086   -0.7244947726    1.2826577985
 H    1.6621791610    1.1554304954   -0.8060844046
 H    0.0616979471    1.5159294486   -1.4413808372
 H    0.5119008269    2.1371508362    0.1568845699
 H   -1.0278447850    0.1747817848    0.2922510874
 H    0.5096726185   -2.8343805975    0.4191423767
 H    2.9050697215   -2.4731660919   -0.7391266630
 H    4.1383971573   -0.8876123243    0.9225829209
 H    2.2415436805   -0.7222002706    2.8378739796
 H    2.4566582551    1.4459033585    1.0927492684
 H    0.0245051354   -0.9387789457    2.0883136426