23

 C    0.7163408315    1.3734196849    0.1013453012
 C    0.0385853935    0.0227099568    0.0381003136
 C    0.0998905531   -0.6954434537   -1.0900576021
 C   -0.4613654954   -2.0455742153   -1.4549078432
 C   -1.2621829578   -2.8058378781   -0.4020101110
 C   -2.3727890531   -1.9550307429    0.2756238168
 C   -1.3846831118   -1.6742238233    1.4428438227
 C   -0.5515658631   -2.9017165956    0.9772431174
 C   -0.6506705353   -0.3409676314    1.3364919262
 H    1.4702289931    1.4024322221    0.8991268761
 H    1.2103530706    1.6262897552   -0.8400547759
 H   -0.0046079278    2.1690825613    0.3311202275
 H    0.6526995177   -0.2422677835   -1.9135739417
 H   -1.0884244177   -1.9182775419   -2.3513148268
 H    0.3757771959   -2.6793789747   -1.7872270880
 H   -1.5913189250   -3.7570644034   -0.8311365437
 H   -2.7539469392   -1.0928257112   -0.2797169141
 H   -3.2192210081   -2.5684689901    0.5964780272
 H   -1.8118521979   -1.7515212770    2.4473605137
 H   -0.8284891452   -3.8111890255    1.5174971582
 H    0.5381220787   -2.8040668412    0.9885391614
 H    0.1032195372   -0.2925857426    2.1382166232
 H   -1.3596203339    0.4678125709    1.5746489213