19

 C    0.4109813882    1.7951433322   -0.2007763847
 C   -0.0723629971    0.3443834032   -0.0289700315
 C    0.4958415190   -0.3208802765    1.1781007448
 C   -0.0479738663   -0.8391507206    2.3180133437
 C   -1.4629426231   -0.9598389742    2.7842585277
 C   -1.9404376362   -2.4177266411    2.8859384124
 N    1.0112754198   -1.3088284811    3.0702223849
 N    2.1063570031   -1.1146298322    2.4872972160
 O    1.8241891918   -0.4699837111    1.2422916724
 H    1.4998917920    1.8332636005   -0.2847695850
 H   -0.0199675798    2.2338132765   -1.1048125298
 H    0.1152144248    2.4107120754    0.6537023041
 H   -1.1637082068    0.3138140306    0.0423918319
 H    0.2022032907   -0.2397522218   -0.9157310385
 H   -1.5558704416   -0.4793253532    3.7654135177
 H   -2.1117810241   -0.3993185167    2.1028325492
 H   -1.9136953599   -2.9094910355    1.9085947380
 H   -1.2980346008   -2.9848006239    3.5650402634
 H   -2.9658922536   -2.4633368306    3.2642513533