22

 C   -0.0779998996    1.5972049669   -0.0125732124
 C    0.0925728181    0.0763807027   -0.0080667882
 C    0.7018162339   -0.4582058507    1.2943168683
 O   -0.0840130915   -0.1038636169    2.4327857625
 C    0.9253387310   -1.9677924063    1.2525586055
 C    2.0150487786   -2.6002439607    0.3396626509
 N    2.6264086737   -3.3611778822    1.4890399840
 C    3.0975601942   -2.3269110567    2.4259331407
 C    1.6556986192   -2.6374277155    2.4159275705
 H    0.8924777086    2.1015229520    0.0522119684
 H   -0.5718623709    1.9394503804   -0.9267896460
 H   -0.6746737463    1.9183544790    0.8451251812
 H   -0.8818290845   -0.4112200820   -0.1621784896
 H    0.7235668649   -0.2363987386   -0.8498194568
 H    1.6616988213    0.0452187352    1.4662249045
 H   -0.9488826208   -0.5173355003    2.3289422620
 H   -0.0390413116   -2.4597379062    1.0750504570
 H    1.6263823164   -3.2901067892   -0.4112389429
 H    2.7149486515   -1.9078689196   -0.1428335044
 H    3.6854075765   -2.7332026176    3.2433289936
 H    3.4693232691   -1.3837114617    2.0305433866
 H    1.1757904384   -3.1509731218    3.2425189047