20

 C    0.2945859031    1.4525608977   -0.1951862742
 C   -0.1157050846    0.0112930715    0.1264494620
 O    0.0552649212   -0.7867121022   -1.0613562064
 C    0.9863901432   -1.7688259787   -1.1765583007
 N    1.0161704832   -2.5281461136   -2.1910259431
 C    2.0162080362   -1.9276630812   -0.0814915636
 C    1.5705966309   -1.4242816298    1.2660938163
 C    2.2994769457   -1.9537439240    2.4669022038
 C    0.5862855255   -0.5321797204    1.3333428288
 H    1.3702257397    1.5112156316   -0.3857258988
 H   -0.2409988439    1.8089863001   -1.0792830704
 H    0.0577095610    2.1118810100    0.6457549497
 H   -1.1989817232   -0.0050503093    0.3075916982
 H    0.2645951831   -2.2757000912   -2.8362909664
 H    2.2919485256   -2.9852805434   -0.0474204051
 H    2.9303010026   -1.3972916959   -0.3880944415
 H    3.3773605202   -1.7618176212    2.3886546147
 H    1.9378127806   -1.4991658172    3.3927636232
 H    2.1833661896   -3.0418695993    2.5479790222
 H    0.2577302702   -0.1296377937    2.2879592913