23

 C    0.0517295305    1.5414111249   -0.0137552462
 C   -0.0319779183    0.0408483629   -0.0143565498
 C    0.0346012755   -0.6889090066   -1.1333176720
 C   -0.0016131030   -2.1714836724   -1.1481567412
 C    0.9939025219   -2.9568802842   -0.2965659539
 C   -0.4541794436   -2.8904954202    0.1085981194
 C   -1.2853573709   -4.1480359535   -0.0490298882
 C   -0.8889350878   -1.9953673175    1.2591368830
 C   -0.1646099735   -0.6390464990    1.3317422453
 H    0.8952215465    1.8940900235    0.5953045171
 H    0.1763045623    1.9409459577   -1.0241441266
 H   -0.8506331662    1.9903168969    0.4226505448
 H    0.1402126124   -0.1897434755   -2.0940378987
 H   -0.2722351790   -2.6241153418   -2.0975938657
 H    1.3653130626   -3.8980861205   -0.6893318866
 H    1.7322071897   -2.3816268922    0.2512091374
 H   -0.9633162087   -4.7335402676   -0.9160203338
 H   -1.2014132203   -4.7914350024    0.8354818298
 H   -2.3466381393   -3.9069472358   -0.1832043228
 H   -1.9649035995   -1.8076105491    1.1412807852
 H   -0.7734878874   -2.5256436581    2.2128740463
 H    0.8328444342   -0.7667368866    1.7763439374
 H   -0.7036350579    0.0156747271    2.0278696198