18

 C   -0.0987372891    1.6292999953    0.2473780994
 C   -0.0101008195    0.1217259611   -0.0630803997
 C    0.8778089263   -0.6108019868    0.9627885997
 C   -1.3428200499   -0.4799419585   -0.1277009444
 C   -2.4483085722   -0.9571185407   -0.1724898298
 C   -3.7645031980   -1.5794882543   -0.1840159353
 C   -3.8385603635   -2.7961902441    0.7411382204
 O   -4.8010798860   -3.0740664732    1.4028408478
 H    0.9014788369    2.0740448265    0.2492111228
 H   -0.7076763160    2.1497662649   -0.4963242167
 H   -0.5497524840    1.7939932307    1.2307422149
 H    0.4578585371    0.0098765603   -1.0512121245
 H    1.8824119265   -0.1762993157    0.9716672816
 H    0.4564089746   -0.5227132157    1.9688589899
 H    0.9631324552   -1.6738736735    0.7228120899
 H   -4.5612175513   -0.8850214532    0.1024444341
 H   -4.0066378508   -1.9406524456   -1.1959499596
 H   -2.9198008562   -3.4224127674    0.7433353697