18

 C   -0.1821220829    1.4257222643   -0.1008424663
 N    0.0510031890   -0.0064954442    0.0269211773
 C    1.4067326055   -0.4921384470   -0.1487487868
 C    0.7609741816   -0.5119116261    1.2050843163
 C    1.2662611620    0.3257885277    2.3383200841
 C    1.1947869600   -0.3330123316    3.5003499368
 C    0.5624370100   -1.6746214014    3.2933799513
 O   -0.7941893532   -1.5833133250    2.7974509738
 C    0.2655157004   -1.7823530148    1.8572767244
 H    0.6815834153    2.0522667940    0.1719716932
 H   -0.4391710285    1.6432739607   -1.1422500418
 H   -1.0301570436    1.7097085334    0.5288450339
 H    1.5196541172   -1.4161177652   -0.7124287209
 H    2.2034822826    0.2362386174   -0.3005926850
 H    1.6194217227    1.3414277508    2.2118972930
 H    1.5059668020    0.0433504939    4.4664289907
 H    0.7661523699   -2.5235338618    3.9382157627
 H    0.2366826602   -2.7143448350    1.3000760033