14

 N   -0.0171215122    1.3171269169    0.1197275085
 C   -0.0239606538   -0.0604620076   -0.0020285542
 N   -1.0898626886   -0.8130406185   -0.0071469525
 C   -0.6136977248   -2.1151933235   -0.0642328376
 O   -1.4772506299   -3.1447197531   -0.0834974988
 C    0.7408044950   -2.1667823583   -0.1096007255
 N    1.1413649991   -0.8129569563   -0.0513626914
 C    2.4445307549   -0.3510108343    0.0523484917
 O    3.4136160910   -1.0642497795    0.0109464890
 H    0.5639020250    1.8077274682   -0.5471350998
 H   -0.9635521061    1.6745913071    0.1064854858
 H   -2.3625480038   -2.7625946512   -0.0489722339
 H    1.4609723366   -2.9598202199   -0.1690215430
 H    2.4898873976    0.7430382101    0.1871714216