20

 C    0.1727143552    1.1772438622   -0.0576559836
 C   -0.1005854717   -0.2816559255    0.1764423138
 C   -0.5519452043   -0.7031607151    1.5619177086
 O   -0.7695937389   -2.0740009848    1.7219705376
 C    0.3787607464   -2.8572734271    2.0497839108
 C    0.2619470790   -4.1831527231    1.3139993641
 O    0.4204978533   -4.0387676451   -0.0772107200
 N    0.0081304084   -1.1837019862   -0.7186090184
 O    0.4229640985   -0.6579696285   -1.9478127153
 H    1.2143766051    1.3261369013   -0.3596337582
 H   -0.4484178586    1.5554349494   -0.8751429701
 H   -0.0227350651    1.7667560699    0.8414331819
 H    0.1727980277   -0.3113466382    2.2963182906
 H   -1.5040747929   -0.1960744376    1.7749164960
 H    1.2992811619   -2.3478156146    1.7366408952
 H    0.4161821352   -3.0149959599    3.1383501493
 H    1.0440784940   -4.8639896289    1.6733456548
 H   -0.7114974960   -4.6335028898    1.5722338546
 H    0.0111361597   -3.1936296176   -0.3268497779
 H    0.4784663733   -1.4436900109   -2.5028221038