16

 C   -0.2391704938   -1.2581245399   -0.2179265540
 C   -0.1247449663   -0.0704554378   -0.0791855927
 C   -0.0049829199    1.3617289157    0.1144619340
 C   -0.4742362531    1.8494336988    1.5115550831
 O    0.2030272015    3.0738012329    1.7104343012
 C    1.5403770029    2.8402401046    1.3239624898
 C    1.4563887238    1.9627928373    0.0328444530
 C    2.5323027736    0.9833136332   -0.0374750439
 N    3.4128078018    0.2360015693   -0.0776585890
 H   -0.3257968414   -2.3088905079   -0.3466485704
 H   -0.6017424931    1.8786696378   -0.6432952641
 H   -1.5484177643    2.0346214450    1.5591018720
 H   -0.1994936435    1.1088473035    2.2773717291
 H    2.0253100559    3.8023718701    1.1508915913
 H    2.0908207270    2.2964373584    2.1050022056
 H    1.5241930189    2.5960722292   -0.8550607950