16

 N    0.0699412937   -1.1497823577   -0.0138691860
 C   -0.0019835392    0.0068461204    0.0031178206
 C   -0.0324200896    1.4273237427    0.0146559565
 C   -1.1623148040    2.1503314537    0.0586886261
 C   -1.0578753343    3.6562215669    0.0434800123
 C    0.4212624811    4.0595058606   -0.0577612122
 C    1.1667937812    3.2789220358   -1.1644329878
 C    1.2686378749    2.2311289677   -0.0326960674
 O    1.1625461520    3.3013953313    0.9443812911
 H   -2.1391406789    1.6813456966    0.1130691508
 H   -1.6355428521    4.0716465415   -0.7931472417
 H   -1.4993147139    4.0697657302    0.9595917851
 H    0.5776319695    5.1364824568    0.0351883242
 H    0.6389450478    3.0075671622   -2.0800832856
 H    2.1335204938    3.7315302618   -1.3873549207
 H    2.1656002778    1.6243188896    0.0920341846