16

 C   -0.1933055389    1.6115238809    0.5434589136
 C   -0.0751958663    0.1363267927    0.1014390116
 C    0.8280301737   -0.6073137404    0.9745861014
 C    1.5907870984   -1.1927640594    1.6951579119
 C   -1.4685238595   -0.5100509519    0.0318965191
 C   -1.7535830445   -1.8887726786    0.4754468790
 O   -2.1228411920   -0.7629525909    1.2726556673
 C   -2.3238221898    0.0564411044   -1.0016424414
 N   -2.9719769767    0.5170223249   -1.8403421283
 H    0.7937142112    2.0778204646    0.5609395073
 H   -0.8309499098    2.1668322527   -0.1497543081
 H   -0.6248392800    1.6694311315    1.5454510147
 H    0.3300811321    0.1102198789   -0.9192477108
 H    2.2674364159   -1.7084841404    2.3313249850
 H   -2.5804589625   -2.4305915427    0.0215922522
 H   -0.9283539613   -2.4808373261    0.8614174255