15

 C   -0.1055041771    1.5347293408   -0.0032664530
 C   -0.0146117315    0.0182128620    0.0115672485
 C    1.2451064899   -0.6173472862   -0.6807049026
 O    2.0175361172   -0.2405385063    0.5074508310
 C    0.7847089845   -0.6265535246    1.2013029226
 C    0.6891372629   -2.1224685300    0.8606781272
 C    1.0063145128   -2.1161036330   -0.4365298811
 H    0.8618936066    1.9819604082    0.2356365903
 H   -0.4234121938    1.8952876080   -0.9878401730
 H   -0.8429224679    1.8869067286    0.7265527599
 H   -0.9718986751   -0.4545203148   -0.2249335526
 H    1.6622226138   -0.2673881968   -1.6247865547
 H    0.7181117678   -0.2862629041    2.2345085555
 H    0.4169629980   -2.9298519278    1.5239877118
 H    1.0727497719   -2.9166927439   -1.1580353898