21

 C   -0.0423836738    1.6159581403    0.0512109436
 C    0.0167453670    0.0986465465   -0.0236888192
 C    1.0283898954   -0.6342767865   -1.0497088184
 C    1.0495528653   -1.7881175635    0.0167037147
 C    1.7114622313   -2.4493312289    1.2859350458
 C    2.8854726509   -1.5565651592    1.6884611521
 C    2.1387659885   -0.2023871030    1.5323218370
 C    0.7733113447   -0.7517167353    1.0408397192
 O    0.5822983161   -1.8417186646    2.0592245611
 H    0.9430534167    2.0556981775    0.2308672739
 H   -0.4278077032    2.0341722560   -0.8851782184
 H   -0.7087241590    1.9413558383    0.8573316608
 H   -0.9813595096   -0.3135968872   -0.1978429313
 H    0.6261174118   -0.8868001233   -2.0329065583
 H    1.9560297535   -0.0731154057   -1.1720291877
 H    0.1265915078   -2.3537662978   -0.1331928842
 H    1.7747314748   -3.5304259365    1.4158035194
 H    3.2064460318   -1.7547336210    2.7131145225
 H    3.7477027721   -1.6635471367    1.0238233443
 H    2.0015697647    0.3180272224    2.4828754063
 H    2.6284824133    0.4828993482    0.8378770667