18

 C   -0.1117530872    1.5496233413    0.1215470121
 C   -0.0086634844    0.0480398702   -0.0034493497
 C   -1.2778752137   -0.8249738849    0.2781344302
 O   -1.7180923248   -1.6777946126   -0.7522238840
 C   -0.4283216172   -1.5804863229    1.3199581446
 N    0.7893506711   -0.7533300899    1.0320043797
 C    1.6426230859   -1.3531771083   -0.0450528720
 C    0.8918182782   -0.5318331630   -1.1048789805
 O    0.9946671537   -0.3464726251   -2.2809139426
 H    0.8787620490    2.0130700366    0.1489582819
 H   -0.6552734109    1.9599888093   -0.7369473869
 H   -0.6443776859    1.8306990084    1.0357380496
 H   -2.1051426207   -0.2357450813    0.6979850475
 H   -2.0838345210   -1.1415865182   -1.4645591176
 H   -0.7584385672   -1.4634565760    2.3551720997
 H   -0.3203131575   -2.6461462902    1.0969306871
 H    2.6997642143   -1.0836582097    0.0569270630
 H    1.5679895582   -2.4405146636   -0.1572819422