16

 O    0.0905544985    0.1121772571   -0.7632008941
 C    0.0236311605    1.1824358962   -0.2329991920
 C   -1.1209360973    2.0037722310    0.3781928362
 C   -0.1000585702    3.1501030150    0.6585991556
 C    0.3061178500    3.3240023124    2.1242006416
 O    1.1241666810    2.1988276114    2.4257597357
 C    1.9553554363    1.9879951471    1.2930091063
 C    1.0655299854    2.2743823472    0.0684561206
 H   -1.9218870899    2.2386316833   -0.3288217049
 H   -1.5644812138    1.5433998681    1.2672672762
 H   -0.3161807907    4.0910665387    0.1536418023
 H    0.8702970331    4.2618888094    2.2573209500
 H   -0.5340158246    3.3209396799    2.8240800903
 H    2.8133361351    2.6792860877    1.3016933204
 H    2.3300733368    0.9620968545    1.3317843144
 H    1.6258531097    2.6327955808   -0.7971343485