15

 N    0.4629118671    0.1314819438   -0.6984091385
 C   -0.2817783809    0.2045297421    0.4337498155
 O   -0.1136082080    1.0324192153    1.3059872365
 C   -1.4355210070   -0.8198783893    0.5175460831
 C   -1.0904281891   -2.2160390005    0.0939785032
 N   -0.8820589384   -2.4955530971   -1.1748310739
 O   -0.5488149405   -3.8438880059   -1.2249438922
 C   -0.5782922750   -4.3388321331    0.0190798850
 C   -0.9100235328   -3.3707179965    0.9093668556
 H    1.2241297245    0.7801059491   -0.8096233750
 H    0.3278006551   -0.6079884958   -1.3703724154
 H   -1.7827703524   -0.8069370594    1.5503974483
 H   -2.2466557071   -0.4397586082   -0.1134315596
 H   -0.3461044520   -5.3884852156    0.1117786789
 H   -1.0136271437   -3.4524639588    1.9782541786