17

 C   -0.0174527771    1.5051583300    0.0539318815
 C   -0.0186286096    0.0075630067   -0.0418777541
 C   -0.0620280233   -0.6358409129   -1.2209971598
 C   -0.0788824643   -2.1012489516   -1.3565283668
 O   -0.2166054732   -2.6561281685   -2.4261287752
 C    0.1088758877   -2.9077599240   -0.0658474226
 C   -0.4131305556   -2.1915411926    1.1623569286
 O   -1.1184302995   -2.7176031882    1.9868575163
 C    0.0172933804   -0.7333754207    1.2745948803
 H    0.8551032596    1.8565948362    0.6189049208
 H   -0.0069665778    1.9761041211   -0.9311836955
 H   -0.9014236427    1.8571234213    0.6001315959
 H   -0.1053186375   -0.0853460303   -2.1559349643
 H   -0.3405732409   -3.8961678239   -0.1674980354
 H    1.1944339670   -3.0353843100    0.0625705146
 H    1.0446944502   -0.7111284007    1.6713127415
 H   -0.6094694836   -0.2415221521    2.0252043142