19

 C   -0.1463789517    1.3428546610    0.0240910684
 O    0.2352927529   -0.0161415295   -0.0054258562
 C    0.8248203600   -0.5309843544    1.1609541660
 C    2.1574422296    0.1486681896    1.4508827885
 C   -0.2322088816   -0.8534754062    2.3153838017
 O   -0.7440961107   -1.9088640730    1.4505903136
 C    0.6649905787   -2.1031661318    1.1251847768
 C    1.2425442372   -2.5115769675    2.4842986055
 C    0.6288247136   -1.6489566298    3.3014074744
 H    0.7147361910    2.0253770565    0.0387619000
 H   -0.7173904612    1.5257313055   -0.8891885939
 H   -0.7876175150    1.5721911780    0.8871766805
 H    2.0081974267    1.1964326995    1.7300489871
 H    2.7002433571   -0.3362468087    2.2605438291
 H    2.7751838353    0.1307694138    0.5472192480
 H   -0.9821522305   -0.1493527797    2.6738724782
 H    0.8528187302   -2.6881141754    0.2262152229
 H    1.9817565737   -3.2732917254    2.6831811324
 H    0.7204303446   -1.4948541624    4.3665806473