14

 O   -0.1301076390    1.4850562199    0.0011635653
 C   -0.0471130152    0.1223353942   -0.0639793798
 C   -1.1693192051   -0.8787303769   -0.1028476388
 N   -0.4697138276   -1.6286369690   -1.1469989874
 C    0.6362164547   -0.7463187256   -1.1286539972
 O    1.6700182330   -0.7358129352   -1.7268387000
 C   -0.3409302004   -0.7881825402    1.1687404316
 C    0.5121618138   -1.8472598149    1.6172870982
 C    1.2265385205   -2.7447867203    1.9798151103
 H    0.7192253032    1.8294064695    0.3017313250
 H   -2.2370429297   -0.7110628019   -0.1463059175
 H   -0.3361271508   -2.6328313018   -1.0877265227
 H   -0.8186345992   -0.1994353843    1.9501797217
 H    1.8648183517   -3.5290543235    2.3045200312