18

 C    0.1365526132    1.5306323480    0.0590072665
 C   -0.0124428979    0.0211093733    0.0276742029
 C    0.1095356725   -0.6546827027   -1.4176430211
 C   -1.3202840614   -1.3108689216   -1.2889721638
 O   -1.3241960881   -2.6777993217   -0.6795589453
 C   -0.8644002701   -2.0152231342    0.4472877619
 N    0.2372722592   -2.1572445009    1.0518308066
 C    0.7234823747   -0.7461117099    1.1766560644
 C   -1.4056065316   -0.6435529649    0.0874282978
 H    1.1817556612    1.8232054450   -0.0956974711
 H   -0.4600508495    2.0126133353   -0.7225176502
 H   -0.1815887988    1.9401235215    1.0242683962
 H    0.1069317145    0.1069514986   -2.2015863170
 H    0.9365503693   -1.3450931862   -1.5890735596
 H   -2.0334994243   -1.2603127356   -2.1090734444
 H    1.8106587515   -0.7625684817    1.0456735080
 H    0.5145327955   -0.2941983672    2.1571718727
 H   -2.3040810898   -0.2504053051    0.5591731656