19

 C    0.2926483103    1.2468189770    0.2469637721
 N   -0.2811836369    0.0719533366   -0.3743598967
 C    0.5015946682   -0.6976079768   -0.9860365195
 O    0.0337755815   -1.8171926693   -1.5851962165
 C    0.9828455006   -2.5676814605   -2.3034031419
 C    1.9332982762   -3.4650608722   -1.5507040142
 C    0.7768048272   -4.0519735311   -2.3369144129
 C   -0.3925600583   -4.6914474853   -1.6212412928
 H    1.3824354437    1.3422227967    0.1087199238
 H   -0.1847815442    2.1467490660   -0.1574336587
 H    0.0834592846    1.2337370108    1.3228321471
 H    1.5874698058   -0.5515882148   -1.0887185997
 H    1.3335460434   -2.0692854440   -3.2044279758
 H    2.9468010095   -3.5781476386   -1.9196905281
 H    1.8393524612   -3.4700676688   -0.4695639725
 H    1.0417628637   -4.5208439246   -3.2807975323
 H   -0.6514232629   -4.1368651271   -0.7166877887
 H   -1.2805411678   -4.7116283998   -2.2614562493
 H   -0.1559559059   -5.7224757842   -1.3387708333