19

 C    0.0407472756    1.4464106688   -0.0111486350
 C   -0.0099530286   -0.0429676953    0.0468522225
 O    0.8946459185   -0.7748404529   -0.8063586424
 C   -0.0502680428   -1.9106287432   -0.8023470786
 C    0.4623717717   -2.9353302111    0.1974675058
 C    0.6120782090   -2.0852042175    1.4949863913
 O    1.9491227719   -1.6768098501    1.7325935684
 C   -0.3376994194   -0.9018435969    1.2563726123
 C   -1.0984095450   -1.0642535047   -0.0524500763
 H    1.0109461022    1.8137003000    0.3413191190
 H   -0.1097601574    1.8022925444   -1.0351584761
 H   -0.7353629175    1.8783626371    0.6272257313
 H   -0.2611260412   -2.2494644619   -1.8174813076
 H   -0.2766974319   -3.7354015598    0.3222370879
 H    1.4181911828   -3.3839028258   -0.0859954312
 H    0.3190746250   -2.6530948399    2.3817648964
 H    2.2215078097   -1.2163456323    0.9280563771
 H   -0.8176920720   -0.4060886842    2.0924464561
 H   -2.1655682905   -0.9940301947   -0.2111682211