17

 C    0.0615881386    1.4844824417   -0.2932979782
 C    0.0636877367    0.0072058748   -0.0022969461
 O    1.3367452003   -0.6422376012    0.1078694394
 C    0.5196494207   -0.5482842076    1.2788687577
 C    1.0057103095    0.1999295224    2.5013347315
 C    1.1041514606   -0.9237413811    3.5523851343
 O    0.2483341988   -1.9912325706    3.0977346997
 C   -0.0432064884   -1.8651623203    1.7785372785
 O   -0.6564005896   -2.6843520778    1.1593437477
 H    0.8128474269    2.0111628992    0.3000369742
 H    0.2762693291    1.6604369334   -1.3520472618
 H   -0.9229512496    1.9122817741   -0.0764419309
 H   -0.6725868889   -0.5904275915   -0.5405217114
 H    1.9618998610    0.6953948019    2.3284578219
 H    0.2742698454    0.9537710193    2.8088148971
 H    2.1221156478   -1.3171510659    3.6393949225
 H    0.7574639211   -0.6250933709    4.5431538239