13

 O    0.0909479900    1.3599217598   -0.1509046741
 C    0.0871645830   -0.0161056368   -0.0858241470
 C   -0.0256850477   -0.6689815196    1.3303581664
 O   -1.4420874020   -0.2001236161    1.3708983013
 C   -1.3327425886   -0.7218366174   -0.0177592594
 C   -2.4889488705   -0.6158857635   -0.9415135892
 O   -3.5294245730   -0.0813388840   -0.6574259330
 C   -0.5868461212   -1.9300712186    0.6512476576
 O   -0.5736463764   -3.1115448622    0.6839544141
 H   -0.5825719560    1.6690091281    0.4733422068
 H    0.8254883734   -0.4149270257   -0.7841893708
 H    0.5762068529   -0.5204344017    2.2239202149
 H   -2.3032496738   -1.0740559623   -1.9370262976