20

 C   -0.0868683834    1.5815190911    0.0294963072
 C   -0.0244376625    0.0515218234    0.0130361544
 C    0.7183324241   -0.5258133554   -1.2135763060
 C    2.2341802023   -0.2316687266   -1.1717303649
 O    2.7979904094    0.8361626968   -1.0623690727
 N    2.8517932866   -1.4611099867   -1.2687454885
 C    1.9126006795   -2.5025403782   -1.3661792724
 C    0.6584118306   -2.0377368652   -1.3440670146
 C   -0.6031702817   -2.8286018627   -1.4517565173
 H    0.9158257188    2.0119852171   -0.0018708216
 H   -0.6405564903    1.9584633580   -0.8380473071
 H   -0.5964405802    1.9370699768    0.9305386274
 H    0.4612308092   -0.3174241828    0.9247903421
 H   -1.0407793056   -0.3597757432    0.0196338777
 H    0.3129218656   -0.0446103647   -2.1159475565
 H    3.8518347680   -1.5686197320   -1.2418397418
 H    2.2580599182   -3.5231506484   -1.4576686323
 H   -0.3899475209   -3.8956986835   -1.5655672796
 H   -1.2402591091   -2.7101188669   -0.5662219789
 H   -1.2054990786   -2.5143628269   -2.3142410547