19

 C    0.0801866505    1.6619572013   -0.0650536251
 C    0.0261108204    0.7385882136   -1.2841322923
 C    0.4982988694   -0.6837307355   -0.9657082492
 N    0.5094324987   -1.5013626877   -2.1751807181
 C   -0.0666900186   -2.6090442852   -2.1779376958
 C   -0.2857217855   -3.7037864060   -3.2019445504
 C   -1.0516111120   -4.3933229653   -2.0547943036
 O   -0.7596764337   -3.2718207841   -1.1693740481
 H   -0.5532373025    1.2884180217    0.7474190955
 H    1.1008839739    1.7455033982    0.3252047974
 H   -0.2625126010    2.6704922756   -0.3156762816
 H   -0.9978402452    0.6922852062   -1.6747641014
 H    0.6467443889    1.1383594541   -2.0941350814
 H    1.5274217379   -0.6389924775   -0.5835882155
 H   -0.1224305377   -1.1166290432   -0.1690935854
 H   -0.8793763739   -3.4089625047   -4.0687704192
 H    0.6241540094   -4.2038945816   -3.5379415847
 H   -2.1290298636   -4.5118165321   -2.1948995286
 H   -0.6176561054   -5.3191671477   -1.6690450927