19

 C    1.6621210718    1.1507778981   -2.1163161189
 C    1.4673306134   -0.3590077854   -2.0686471776
 O    2.3321045066   -1.1400444710   -2.4187936865
 N    0.2477068402   -0.7669782195   -1.5947766517
 C   -0.0658408598   -2.1523716414   -1.3465188122
 C    0.6342355726   -2.7645167015   -0.1489809621
 C   -1.4789933188   -2.5620167784   -1.6819284191
 C   -0.3323158181   -3.0044124128   -2.5593922382
 H    0.7214950494    1.7077312831   -2.1462928486
 H    2.2246177344    1.4693300200   -1.2323128542
 H    2.2595985136    1.3970373226   -2.9954009867
 H   -0.3706057062   -0.0717403410   -1.2072516883
 H    0.3776976937   -2.2304645178    0.7732141308
 H    0.3460389408   -3.8124992372   -0.0235786278
 H    1.7176897007   -2.7198329327   -0.2886510325
 H   -1.9560316804   -3.2932326913   -1.0385760130
 H   -2.1482539509   -1.8031248259   -2.0733595990
 H   -0.2250436126   -2.5358146351   -3.5294437790
 H   -0.0198391604   -4.0417320026   -2.5211741955