17

 C    0.0249501332   -1.2381668183   -0.0881576138
 C    0.0137008703   -0.0366830941   -0.0314560423
 C    0.0122077495    1.4101169501    0.0679431263
 C   -0.2190564899    2.0648444563    1.4826324380
 C    1.1314399580    2.7721704405    1.3705383520
 C    2.2312385187    1.7759308998    1.1785113968
 C    1.3833735272    2.1410605976   -0.0188861222
 C    1.9065800716    2.7163150199   -1.2081359116
 C    2.3234103433    3.1994008864   -2.2292927716
 H    0.0318329151   -2.2980274300   -0.1525720037
 H   -0.6811894692    1.8372223861   -0.6607035122
 H   -1.0737320606    2.7430123542    1.4741869991
 H   -0.3234919944    1.3658250004    2.3164329896
 H    1.3304684301    3.7947215030    1.6650653167
 H    3.2360930464    2.1822055139    1.1538775449
 H    2.1532300041    0.7754876265    1.5968333840
 H    2.6982812268    3.6234595677   -3.1273733700