20

 C   -0.0346301236    1.5354295986    0.0842785044
 C    1.5195224198    1.5232582412    0.0094854975
 C    1.4696097101    0.0462529724    0.5066993086
 C   -0.0053912301   -0.0189937640    0.0191435311
 C   -0.1300829156   -0.6135773657   -1.3897839027
 O    0.9826703120   -0.3885019956   -2.2384697219
 C    1.2599125292    0.9746005140   -2.5114244205
 C    2.0753056844    1.6743033546   -1.4132200764
 H   -0.3855776879    1.8824732249    1.0601316738
 H   -0.5887138270    2.0748196095   -0.6904651069
 H    2.0357858994    2.2233755000    0.6725958106
 H    2.1732586087   -0.6577400963    0.0566380923
 H    1.5405612137   -0.0149997509    1.5959348202
 H   -0.7216299395   -0.5317782698    0.6691310241
 H   -0.2096657118   -1.7037283697   -1.3195464912
 H   -1.0528681316   -0.2405843078   -1.8676633403
 H    1.8295644777    0.9872373215   -3.4469792864
 H    0.3201708552    1.5178969517   -2.6993611948
 H    2.1326766687    2.7391551775   -1.6767892400
 H    3.1030451882    1.2902662941   -1.4324367817