20

 C   -0.5208281659    1.5785601829   -0.1253054739
 C    0.0768650995    0.1728409627   -0.0029045373
 C   -1.0477156493   -0.8750419368    0.0615137397
 C    1.0320911040   -0.1699175243   -1.1906203393
 C    2.1504782331   -0.9469963118   -0.5581028867
 C    2.1301342070   -0.8442637015    0.7777878045
 C    0.9865290377    0.0292597615    1.2579355361
 C    3.0721045849   -1.4315561938    1.6655958367
 N    3.8213382480   -1.8969650796    2.4170981937
 H    0.2630608729    2.3419525542   -0.1726798891
 H   -1.1320968481    1.6689694492   -1.0300317000
 H   -1.1629796569    1.8102273766    0.7314386820
 H   -1.6663663036   -0.8419230385   -0.8417801922
 H   -0.6400349701   -1.8872355222    0.1541944951
 H   -1.7009651388   -0.6955346130    0.9220177997
 H    0.5239620501   -0.7318348721   -1.9831360006
 H    1.4291255602    0.7382259232   -1.6669376144
 H    2.8956990703   -1.4954973709   -1.1221713091
 H    1.3720248415    0.9998772385    1.5957082346
 H    0.4526166236   -0.4088974644    2.1074926505