14

 C   -0.1594655135    1.4525833989    0.0112901249
 C    0.0449918706   -0.0396672687    0.0010763164
 O    1.0987986910   -0.6195743119   -0.0122492263
 O   -1.1513045520   -0.6857296918    0.0090982519
 C   -1.0451067634   -2.1176496142    0.0002357684
 C   -2.3840657610   -2.6788454474    0.0101803242
 C   -3.4818103130   -3.1797041814    0.0181098359
 C   -4.7263396714   -3.7418572162    0.0271341465
 N   -5.7842035080   -4.2210515576    0.0346747052
 H    0.8096723149    1.9492295333    0.0045469013
 H   -0.7432382248    1.7560024389   -0.8621530436
 H   -0.7259901627    1.7462978665    0.8992893849
 H   -0.4926507917   -2.4466285199   -0.8874141707
 H   -0.4755335850   -2.4562652084    0.8733268709