13

 N    0.0564721977    1.4065010572    0.1446316276
 C    0.0264996521    0.0152978122    0.0264391234
 C   -1.0551254789   -0.8119676315    0.0071922231
 O   -0.6466375125   -2.1274258450   -0.0263625400
 C    0.6884681286   -2.1311146643   -0.0399266456
 C    1.1854206706   -0.8534930959   -0.0039283973
 C    2.5980645802   -0.4914889620    0.0263546899
 O    3.5153366116   -1.2834251148   -0.0217672435
 H    0.7735914190    1.8464794025   -0.4163218000
 H   -0.8362004474    1.8436038924   -0.0413864518
 H   -2.1191430146   -0.6507014411    0.0231700885
 H    1.1778399568   -3.0904851858   -0.0707564304
 H    2.7992660968    0.6005604563    0.1070306660