18

 O    0.3663997332    1.1877967755   -1.3105767667
 C    0.2045574715    1.5101167582   -0.1522383902
 N    1.1418596611    1.3797397690    0.8239106304
 C    2.4740039762    0.8598877380    0.5490143394
 C    3.4344228554    1.9134277490    0.0040390023
 C    3.8763082577    3.0560841738    0.9735181059
 C    5.3353158186    2.7287052357    0.6104586870
 O    6.3794759030    3.2778382698    0.8036590632
 C    4.9213820015    1.4671707026   -0.1650185735
 H   -0.7415385273    1.9395679655    0.2331062974
 H    0.9287965871    1.7319679347    1.7428575066
 H    2.8697342111    0.4273405422    1.4751929167
 H    2.3657911721    0.0522710346   -0.1808489417
 H    3.0264351277    2.3122730551   -0.9267677618
 H    3.5487382381    4.0751560892    0.7537212710
 H    3.6678378007    2.8474638711    2.0303148463
 H    5.1705385031    0.5519376858    0.3860168354
 H    5.3184356193    1.3751888804   -1.1787767978