20

 C    0.0347559295    1.5383051751    0.0281010179
 C    0.0248874187    0.0047924361   -0.0149407287
 C   -1.3674851117   -0.5762706005    0.0024899752
 C   -2.2940723930   -0.4355019755    1.2510523912
 C   -2.9583285303   -1.7239929949    0.7777786144
 C   -2.9956266882   -1.6804014143   -0.7584843942
 C   -2.3535740418   -0.3660899632   -1.1894624933
 C   -1.7488712978   -2.1213065383   -0.0320609335
 H    1.0576672707    1.9264782934    0.0141649613
 H   -0.4946655865    1.9628122672   -0.8315297212
 H   -0.4516780669    1.9129621019    0.9350050365
 H    0.5492388963   -0.3406147675   -0.9159819760
 H    0.5918701069   -0.3901298397    0.8386941843
 H   -1.7365595017   -0.5937703222    2.1798402145
 H   -2.8980795178    0.4761503806    1.3356833165
 H   -3.6252170407   -2.3749883095    1.3287625217
 H   -3.6893007550   -2.3000573004   -1.3125255366
 H   -2.9598084582    0.5480093144   -1.1926234423
 H   -1.8421535209   -0.4704804689   -2.1517836067
 H   -1.1657573717   -3.0301369540   -0.0720120110