17

 O   -0.0577654848    1.3582923976   -0.0009723894
 C    0.0236871407   -0.0301999597   -0.0161919372
 C    1.0067398356   -0.7001676835   -0.9849352382
 O    0.2724749285   -1.7306396999   -1.6499450102
 C   -0.7849651792   -2.1311238448   -0.7571994830
 C   -0.1719805807   -2.9616021593    0.3651890441
 C    0.0839777952   -2.1929083617    1.4273099580
 C   -0.4450308217   -0.8104693133    1.2329840765
 C   -1.2323718063   -0.8321713458   -0.0577124690
 H    0.6819373839    1.6993525689    0.5129544702
 H    1.3427772806    0.0238462182   -1.7333132319
 H    1.8839247694   -1.1196037158   -0.4729629549
 H   -1.5382478019   -2.6359143529   -1.3640535524
 H    0.1613374434   -3.9810132258    0.2151511504
 H    0.6358445534   -2.4945786296    2.3105138241
 H   -0.7788927770   -0.2068742615    2.0696792253
 H   -2.2127802591   -0.3914066211   -0.1770508125