17

 C    0.0769244215    1.7025307055   -0.0274729966
 C    0.1816053729    0.1862208759   -0.0118133168
 O    1.0285259603   -0.2426489277   -1.1139012986
 C    2.0906513313   -0.8755726243   -0.5571069432
 N    3.0043776504   -1.3256901192   -1.4645384824
 N    2.1331201120   -1.0376632015    0.7095253712
 C    0.8857292012   -0.4820171610    1.2249949058
 C    1.1449268218    0.4275043339    2.4207452843
 O    0.3038573414    1.1073374945    2.9516284474
 H    1.0569611972    2.1667690807    0.1209562954
 H   -0.3211746257    2.0356299699   -0.9896924844
 H   -0.5850713783    2.0416298799    0.7716654034
 H   -0.8017459817   -0.2584118567   -0.1838217136
 H    3.0473702853   -0.8189184293   -2.3344444851
 H    3.8927835092   -1.5893489872   -1.0692877613
 H    0.2439180039   -1.2865372130    1.6178392195
 H    2.1937338872    0.3889856297    2.7874959049