19

 C    0.2443479618    1.5577899232    0.0186066991
 C    0.0912884581    0.0500314142    0.0344201415
 O   -0.8735831798   -0.4271063684    1.0030854831
 C    0.5120642162   -0.7245594834    1.2100646709
 C    0.9186678016   -2.1857457441    1.0898980614
 C    2.0808186617   -2.4070794661    0.1551264621
 C    2.0532275597   -2.0721900163   -1.1424213931
 C    0.9288884664   -1.4403562855   -1.8310835533
 C    0.0413205058   -0.5733927955   -1.3201475769
 H    1.1896020995    1.8479756501   -0.4514028193
 H   -0.5698438639    2.0184063608   -0.5517189784
 H    0.2149070555    1.9553765265    1.0362112265
 H    0.9635436262   -0.1744260926    2.0368460369
 H    1.1349565153   -2.5951487359    2.0808289288
 H    0.0396860825   -2.7179177154    0.7049139253
 H    2.9661769626   -2.8956753778    0.5526230565
 H    2.9060689999   -2.3311547089   -1.7662164513
 H    0.8202849027   -1.7043920853   -2.8821078955
 H   -0.7388322518   -0.1839774096   -1.9722229441