16

 C   -0.2774521950    1.3788683353   -0.0443462593
 N   -0.2642711603   -0.0722487028   -0.1741052858
 C    0.5311758975   -0.6246796554   -0.9556249347
 O    1.5009270010   -0.0803500029   -1.8091373510
 C    2.0183544763   -1.3952800075   -2.1458412104
 C    3.3664960400   -1.6019110748   -1.6260311139
 N    4.4269591427   -1.7734945888   -1.2010615880
 C    0.8640515003   -2.0704986043   -1.3228979267
 N    1.2159050147   -3.0588685051   -0.3458884963
 H    0.5369792027    1.8807804253   -0.5784406726
 H   -1.2328600351    1.7613642533   -0.4195055860
 H   -0.2224119810    1.6388327313    1.0173330988
 H    2.0000060245   -1.5628657990   -3.2252056412
 H    0.1144159984   -2.4883186710   -2.0001052925
 H    1.7425306748   -2.6541330227    0.4215578210
 H    0.3846458086   -3.4867351809    0.0449693788