17

 C   -0.1023941957    1.5433526083    0.0157196674
 C   -0.0788337719    0.0135802743   -0.0072597684
 C    0.7477008027   -0.5597020724    1.1481602516
 N    0.7810341422   -2.0105486898    1.1551924496
 N   -0.2734827791   -2.7589729545    1.5723389451
 N    0.0255014714   -3.9886292762    1.4497865729
 N    1.2849200995   -4.0578617156    0.9439375357
 C    1.8356191413   -2.8061508531    0.7269115170
 O    2.9199865299   -2.4832711665    0.2943778719
 H    0.9071231928    1.9589311579   -0.0738203992
 H   -0.6985916676    1.9367994911   -0.8120949750
 H   -0.5368700907    1.9211895727    0.9477303591
 H   -1.0978958818   -0.3835374454    0.0588321260
 H    0.3421355386   -0.3447153056   -0.9536512328
 H    1.7924771122   -0.2435351589    1.0756978174
 H    0.3522846903   -0.2254350721    2.1123758974
 H    1.7173421262   -4.9497792042    0.7739222042