18

 C    0.0437694387    1.5090469687   -0.0588586878
 C    0.0522481810   -0.0064614579    0.0537862857
 O    0.6577598599   -0.5025213634   -1.1521162953
 C    1.0807716038   -1.7885398530   -1.2433341468
 O    1.4731690037   -2.2264613874   -2.2957612875
 N    1.0248754009   -2.5375559756   -0.0951683351
 C    0.7384764905   -2.0627820810    1.2439589806
 C    0.8008501607   -0.5355210281    1.2771980613
 O    2.1247945232   -0.0407884282    1.2091870986
 H    1.0665142716    1.8896556296   -0.0650916247
 H   -0.4536979276    1.8095653350   -0.9838710504
 H   -0.4943742118    1.9489400650    0.7864234295
 H   -0.9792857457   -0.3841171054    0.1055882679
 H    1.3769348501   -3.4719582463   -0.2219430589
 H   -0.2569730017   -2.3887346609    1.5809576074
 H    1.4668664853   -2.4809819372    1.9510691326
 H    0.2847978053   -0.1807276879    2.1824578840
 H    2.6234789822   -0.3931232862    1.9524237988