17

 C   -0.1929781571    1.3775159533   -0.0725631433
 N   -0.2080029397   -0.0741612119   -0.1768594703
 C    0.6136370954   -0.6173699561   -0.9601335759
 N    1.6129382314   -0.1969049527   -1.8342912363
 C    1.9453208404   -1.5419395648   -2.3140681803
 C    0.8682163863   -2.1069050764   -1.3133882050
 O    1.3233472048   -2.9529550293   -0.3211558243
 C   -0.3365998440   -2.6992088023   -2.0147871864
 O   -0.8092083935   -3.7527066878   -1.6673701787
 H    0.8012303019    1.8196479232   -0.2392733053
 H   -0.8879402172    1.8264962955   -0.7954575619
 H   -0.5324176496    1.6713849839    0.9246233758
 H    1.6624840349    0.6650560940   -2.3537031878
 H    1.7471656978   -1.7192840477   -3.3776669757
 H    2.9552773985   -1.8746768965   -2.0608760700
 H    0.6872020201   -3.6865483815   -0.2863051715
 H   -0.7576641504   -2.1101917029   -2.8530549630