20

 C    0.0947401183    1.4541376608    0.2047638335
 C    0.0739235840   -0.0646827414   -0.0067776382
 C   -1.3547329649   -0.6108874653    0.1183432194
 C    0.7099395461   -0.4495824142   -1.3788788661
 C    2.0736031877    0.0791817336   -1.4842013379
 N    3.1485139440    0.4952542362   -1.5700986670
 C    0.6827791653   -1.9567027857   -1.6289698656
 C    1.8244025843   -2.7375062919   -2.1192614900
 O    1.4423834320   -2.7641569551   -0.7379268481
 H    1.1076311736    1.8603199431    0.1415462120
 H   -0.5221355311    1.9636990197   -0.5453751205
 H   -0.3087285389    1.7049857583    1.1902650986
 H    0.6948411069   -0.5377329498    0.7626116885
 H   -1.9954166290   -0.2392116259   -0.6907849573
 H   -1.3867166929   -1.7031445606    0.1072191689
 H   -1.7963881799   -0.2806447129    1.0631683655
 H    0.1185868679    0.0243395408   -2.1758476410
 H   -0.3162135216   -2.3371611345   -1.8401645556
 H    1.6387495388   -3.6583210244   -2.6697531999
 H    2.7688961594   -2.2413030109   -2.3279813691