19

 C    0.0946549837    1.4526156779   -0.0497683585
 O    1.1952884759    0.5430422278   -0.0908280795
 C   -0.1266046913    0.0039129594    0.0627557188
 C   -0.4358314589   -0.6551540820    1.3490789411
 C    0.0167705713   -0.2378377593    2.7479569381
 C   -0.4319437332   -1.6541798724    3.1994667835
 C   -1.9755985057   -1.6333185871    3.0169283383
 C   -1.6890937010   -1.5403850590    1.5198773963
 C   -0.3101156729   -2.1271542953    1.6924250375
 H    0.0358227304    2.0736971849    0.8429938038
 H   -0.1290805146    1.9646042066   -0.9851826182
 H   -0.4907439847   -0.5188394307   -0.8240514842
 H    1.1025578291   -0.1190438864    2.7762946337
 H   -0.4660085906    0.6199565595    3.2324657436
 H    0.0240701645   -2.1344430409    4.0622523965
 H   -2.4270999580   -2.5967966280    3.2695831028
 H   -2.5318215260   -0.8250133110    3.5063446411
 H   -2.3745628933   -1.6885973006    0.6943488989
 H    0.2071840252   -2.9354522233    1.1963403966