18

 C   -0.0527577079    1.5820704610    0.0327457025
 C   -0.0203228639    0.0423977318    0.0337956802
 C    0.7477643423   -0.5369481907    1.2435541692
 N    2.1494085481   -0.1400345021    1.1846079808
 C    2.8936844393   -0.5148657471    2.3827163718
 C    4.3028267709   -0.1312183363    2.2629226495
 N    5.4176760680    0.1507132836    2.1579314050
 C   -1.3761502408   -0.5146842369    0.0057929599
 N   -2.4458827430   -0.9518853698    0.0007075446
 H    0.9687128417    1.9618874426    0.0876281934
 H   -0.5313118917    1.9610798888   -0.8729752656
 H   -0.6112405660    1.9544294251    0.8963229356
 H    0.4822850426   -0.3017219495   -0.8808792569
 H    0.3146614323   -0.1300611579    2.1652748423
 H    0.6046028980   -1.6300680296    1.2796539642
 H    2.5950530307   -0.5541950654    0.3712223091
 H    2.4632656882    0.0106443602    3.2440270020
 H    2.8531116313   -1.5930059179    2.6214029525