16

 C   -0.0036211577    1.4551077186    0.0621169623
 C    1.4366657824    2.0397124797   -0.0081040148
 C    2.1514653796    1.3057190427   -1.0851356647
 C    1.7236741734    0.1581941140   -1.6763486683
 C    0.4493842435   -0.5387380988   -1.3021870926
 N   -0.0841043505   -0.0022352486   -0.0409568705
 N    2.6625892339   -0.1708675106   -2.6242598616
 N    3.5996825826    0.6650098833   -2.6375030275
 O    3.3052960353    1.6726679085   -1.6272169352
 H   -0.4813385252    1.7651750600    0.9959004101
 H   -0.5957814233    1.8794613886   -0.7576531447
 H    1.4147605154    3.1168736659   -0.2079548194
 H    1.9579537350    1.9081216715    0.9493136744
 H   -0.3051366046   -0.4112597964   -2.0905151641
 H    0.6014032301   -1.6165641814   -1.1904240603
 H    0.4122764501   -0.4247374971    0.7372086370