18

 O   -0.0057464985    1.4631473199    0.1857024172
 C    0.0035422928    0.0696985011    0.0613153339
 C   -0.5230483986   -0.7804119929    1.1896314847
 C   -1.3328530682   -0.6024692315   -0.0849119529
 C   -2.6021988304    0.2023334586   -0.0717419046
 C   -3.2431359496    0.5700175548   -1.4315734774
 O   -4.4967302890   -0.0375033826   -1.0569887169
 C   -3.9353479332   -0.5466838025    0.1690061382
 H    0.6775906926    1.7099708337    0.8173063308
 H    0.8297030299   -0.3275173014   -0.5283162030
 H   -0.0580055601   -1.7392419445    1.3909275136
 H   -0.8758155072   -0.2509080462    2.0690847277
 H   -1.3526446528   -1.4579713431   -0.7565242746
 H   -2.4841066603    1.0733682608    0.5735834672
 H   -3.3503993776    1.6381069718   -1.6519919501
 H   -2.7891163860    0.0718667980   -2.2999600141
 H   -3.8511194334   -1.6427618075    0.1589734218
 H   -4.5201554102   -0.2453781864    1.0464132085