18

 N   -0.0762905649    1.5294113845    0.1771348894
 C   -0.0517246798    0.0753079280    0.0175922020
 C    0.6610952535   -0.6247246666    1.1934624226
 C   -0.0969524200   -1.9572680976    1.3627648688
 N   -1.4808907781   -1.7661414519    0.8753781976
 C   -2.1368825541   -0.5675217106    1.3950407179
 C   -1.4629180680   -0.5264311134    0.0628497931
 C   -2.2323841901   -0.4929255264   -1.1556164070
 N   -2.8255064452   -0.4121919194   -2.1452369163
 H    0.8732673873    1.8898587566    0.1384570354
 H   -0.5655869041    1.9528338905   -0.6075429680
 H    0.4039713395   -0.2515931898   -0.9311714442
 H    1.7253783136   -0.7784751845    0.9992007267
 H    0.5786612210    0.0085009556    2.0811625567
 H    0.3492908058   -2.7454104480    0.7482104697
 H   -0.1183673629   -2.3138178261    2.3966195928
 H   -3.2192333132   -0.6296221628    1.4365930027
 H   -1.6732853801    0.0034468820    2.1941660502