15

 C    0.0887206315   -1.1890705336   -0.0185951865
 C    0.0032271540    0.0130153659    0.0019566237
 C   -0.0407523089    1.4262489053    0.0059487025
 C   -1.1314145528    2.2099140602    0.0875466752
 C   -0.7950772240    3.6828085780    0.0327184400
 C    0.7288828045    3.6910528254   -0.0240973974
 N    1.3653783200    3.1021749466    1.1726029278
 C    1.1959716290    2.2794756569   -0.0544891620
 H    0.1484509948   -2.2489660531   -0.0264109581
 H   -2.1433352538    1.8414462142    0.2050593661
 H   -1.2355564973    4.1618890992   -0.8520708646
 H   -1.1732021969    4.2223919518    0.9095319257
 H    1.2476865074    4.4775363484   -0.5609896993
 H    2.3306359082    3.4253837393    1.2151624374
 H    2.0728218142    1.9436983054   -0.5961055305