15

 O    0.0199450530    0.0527669636   -0.0317277782
 C    0.0172627481    1.2536555709   -0.0019889835
 C   -1.1942743013    2.2157313068    0.0159432833
 C   -0.4055287255    3.5389357851    0.0526201715
 C    0.7007416315    3.2842686119   -1.0125402327
 C    1.1926083950    2.2204044851    0.0277981773
 C    0.6902574708    3.2315181471    1.1146859184
 H   -1.8137696352    2.0887427460   -0.8773411907
 H   -1.8224385029    2.0447654235    0.8957402520
 H   -0.9777447292    4.4656169335    0.0727827288
 H    0.3999273697    2.9363693776   -2.0050198864
 H    1.4041734956    4.1150284341   -1.1005898795
 H    2.1907361998    1.7883552728    0.0220047836
 H    1.3925773685    4.0567275765    1.2507246618
 H    0.3797680818    2.8349325556    2.0856938242