15

 O   -0.0812970552    1.4371878990   -0.0109156273
 C   -0.0346649761    0.0258271465   -0.0035982077
 C   -1.4196149574   -0.5924827820    0.0463000885
 O   -2.0815418424   -0.1741231089   -1.1660902747
 C   -3.3479449958   -0.5426899403   -1.3069609375
 N   -4.0681797051   -0.1654131514   -2.3589440404
 N   -5.2222764229   -0.7637549101   -2.0710728558
 N   -5.2383416255   -1.4523275443   -0.9484228899
 N   -4.0353692505   -1.3239285264   -0.4369207417
 H   -0.6176775672    1.6934940268   -0.7694137783
 H    0.5067774998   -0.3693554726   -0.8772749793
 H    0.5161893449   -0.2722488936    0.8942643993
 H   -1.3773152899   -1.6862901510    0.0861062869
 H   -1.9849299980   -0.2274007511    0.9093764414
 H   -6.0308724188   -0.6949281206   -2.6706496737