17

 C   -0.0849657998    1.4641792242    0.0266978823
 C   -0.0248855672    0.0142754802    0.0116085184
 C    0.0267302725   -1.1949807748    0.0013099179
 C    0.0839311095   -2.5528696265   -0.0111304884
 C    0.1356643883   -3.7635432640   -0.0112779441
 C    0.1822953213   -5.2174886986   -0.0767746531
 O   -1.1193213451   -5.8147041486    0.0189132530
 C    0.8669280018   -5.7190595470   -1.3647813835
 O    0.8395627347   -7.1246968980   -1.4086092347
 H    0.8886509407    1.8952853347    0.2855283634
 H   -0.3753501207    1.8597823272   -0.9530224539
 H   -0.8140486743    1.8221808868    0.7622093487
 H    0.7361437333   -5.6205744954    0.7795412949
 H   -1.7180704175   -5.2892756919   -0.5248675937
 H    0.3590323666   -5.2646235804   -2.2323339735
 H    1.9134251727   -5.4001807585   -1.3833593618
 H   -0.0600944368   -7.3727380192   -1.1571703720