16

 O   -0.0156538656   -0.1531287215   -0.0022462075
 C   -0.0044710943    1.0498720395    0.0033948981
 C    1.2730976763    1.8714391469   -0.0027097446
 C    2.5377607657    0.9972205466   -0.0168780370
 C    3.7549163493    1.7979835813   -0.0225966069
 C    4.7426197527    2.4824875158   -0.0270835936
 C   -1.3042579100    1.8813035307    0.0175435153
 C   -2.5160219854    1.0723246307    0.0232347792
 N   -3.4881710253    0.4500277025    0.0279340428
 H    1.2574924362    2.5417369699   -0.8717714404
 H    1.2712355920    2.5333321966    0.8729077479
 H    2.5251369211    0.3307729068    0.8524455113
 H    2.5114093896    0.3391848268   -0.8922837065
 H    5.6270819799    3.0700547550   -0.0312112205
 H   -1.2949073421    2.5386730128    0.8957305242
 H   -1.3086564000    2.5469563698   -0.8544206018