17

 C   -0.1554681295    1.5239951838   -0.0921331220
 C   -0.0310848592    0.0143911488   -0.0661435516
 N   -1.1057106494   -0.7448854539    0.5311529358
 C    0.6797402863   -0.7115392380   -1.1902453177
 N    1.2989714614   -0.0778490350   -2.3172359970
 C    1.3403595067   -0.6298706600    0.1846981417
 C    2.5029322760    0.1902391911    0.3457345240
 N    3.4369940293    0.8679705621    0.4452944354
 H    0.7019858662    2.0094666504   -0.5631892993
 H   -1.0567636130    1.8145259893   -0.6450166050
 H   -0.2443637076    1.9215454387    0.9247521946
 H   -1.2810333262   -0.4249270916    1.4804739775
 H   -1.9668519305   -0.5956521809    0.0110685569
 H    0.2672375336   -1.6955776191   -1.4002885390
 H    0.6457974949    0.5020078289   -2.8318399704
 H    2.0921827755    0.4953725070   -2.0525352098
 H    1.3304602354   -1.5355035017    0.7794084258