19

 C   -0.0452184314    1.5550441310    0.1180100688
 C    0.1524823447    0.0695368329   -0.0128391340
 O   -0.5511103897   -0.7530778113    0.9263810056
 C    0.8778785347   -0.7796226920    0.9534710351
 C    1.5161553572   -1.9670256698    0.2405038485
 C    1.0913901954   -1.8203713215   -1.2167923333
 O   -0.3175638694   -1.8914852137   -1.4475272408
 C    0.2885789608   -0.5938603849   -1.3962146230
 C    0.2278006216    0.2242052066   -2.6571720493
 H    0.7547367702    2.1104912794   -0.3820405730
 H   -0.9976996580    1.8654454911   -0.3249233578
 H   -0.0553015790    1.8375103965    1.1734206606
 H    1.3295159852   -0.3871495318    1.8634430760
 H    2.6080825912   -1.9052282380    0.3182934267
 H    1.2020418991   -2.9243194971    0.6686709761
 H    1.7102826120   -2.2431707364   -2.0069021390
 H   -0.7564978495    0.6896029707   -2.7768434230
 H    0.9781474442    1.0213653312   -2.6532179677
 H    0.4069272208   -0.4154486528   -3.5246609864