20

 C    0.0604338430    1.2489999352   -0.4661909705
 O   -0.1153031809    0.2072064790    0.4740287922
 C   -1.3303096582   -0.4554489615    0.3307899163
 C   -1.4639799981   -1.5760294562   -0.7119429120
 C   -1.3781001792   -1.8684167649    0.7479959233
 C   -0.4953052799   -2.7577794643    1.6216047973
 C   -1.4155435631   -2.2646451675    2.7620299911
 N   -2.4324918565   -2.5250907124    1.6264515559
 C   -1.6061148516   -3.8080788334    1.3818351720
 H    1.0359633870    1.6994709410   -0.2689832196
 H    0.0382311304    0.8717836227   -1.4986068927
 H   -0.7168488110    2.0210771675   -0.3631444705
 H   -2.2157303530    0.1621365133    0.4966084162
 H   -2.4179168547   -1.6870472057   -1.2179663823
 H   -0.5882037831   -1.7894210537   -1.3174537099
 H    0.5920659768   -2.8736033018    1.6036935315
 H   -1.5594534415   -2.9225993732    3.6234080349
 H   -1.3509626444   -1.2153151694    3.0564362314
 H   -1.7231008713   -4.2137552566    0.3745085180
 H   -1.7631760008   -4.5717435681    2.1484457275