27

 C   -0.1247669847    1.6337368277    0.0127615814
 C   -0.0286763194    0.1055642506    0.0021456367
 C   -1.3993251293   -0.5782097180    0.0129122028
 C   -1.3040093904   -2.0998941585    0.0022709057
 O   -2.6207545323   -2.6138868056    0.0130744088
 C   -2.8043618570   -4.0376147894    0.0074839006
 C   -2.1949385684   -4.6810059500    1.2642767136
 C   -4.3280784238   -4.1992540545    0.0208871804
 C   -2.2185492366   -4.6681210844   -1.2669423805
 H    0.8668640181    2.0969491365    0.0048220389
 H   -0.6718517880    2.0012152463   -0.8624436143
 H   -0.6525424495    1.9901592783    0.9042448769
 H    0.5347289395   -0.2185105549   -0.8830755448
 H    0.5539911721   -0.2294821146    0.8706573061
 H   -1.9672163101   -0.2701235634    0.8994877419
 H   -1.9865052864   -0.2590939471   -0.8570433419
 H   -0.7517568936   -2.4302427089   -0.8914403876
 H   -0.7327731161   -2.4414456768    0.8796795534
 H   -2.5673748508   -4.1821370435    2.1641183544
 H   -2.4688649196   -5.7391796466    1.3196033337
 H   -1.1024990059   -4.6254196937    1.2655573316
 H   -4.7659683651   -3.7179338194   -0.8580368360
 H   -4.6098587158   -5.2562867907    0.0183119751
 H   -4.7493898868   -3.7266573328    0.9125522547
 H   -1.1262702753   -4.6130410174   -1.2877768879
 H   -2.4941417281   -5.7255324649   -1.3282688668
 H   -2.6071161466   -4.1597290642   -2.1545541267