16

 C   -0.0062686642    1.5996226358   -0.1273248523
 C    0.0729740646    0.1002628469   -0.1194406377
 C    0.7386779586   -0.8035991207   -1.1442294937
 C    1.1507777015   -1.9626720429   -0.2468616379
 N    1.0939377186   -1.7256577674    1.1753284597
 C    0.3293575943   -0.7003039621    1.2009992117
 O   -1.0283110924   -0.8611016557    1.5314016714
 C   -1.1263794378   -0.8468619021    0.0196521549
 C   -0.2934171559   -1.8886542282   -0.8322249562
 H    0.9921588110    2.0421516752   -0.0460924854
 H   -0.4644797866    1.9705203928   -1.0500015289
 H   -0.6034330581    1.9535307345    0.7186721051
 H    1.2202871423   -0.5346671239   -2.0733405003
 H    1.8160156465   -2.7341760180   -0.6164977272
 H   -2.1425099094   -0.6114236600   -0.2928503700
 H   -0.7002270832   -2.6645589343   -1.4647438732