18

 O   -0.0178111777   -0.0028469263    0.1539102694
 C    0.0076325281    1.2026845052    0.0256414063
 N   -1.1114362631    1.9932202240   -0.1509190647
 C   -0.9385311030    3.4075209598    0.1596086905
 C   -0.2474345604    3.5476456267    1.5518358483
 C    1.0795900064    3.4145662355    0.7882442775
 C    0.3934852995    3.9497913670   -0.5075254841
 C    1.1428436575    2.9154730453   -1.3508769266
 C    1.2588431355    2.0671588097   -0.0405272109
 H   -1.9986634046    1.5535297022    0.0502050083
 H   -1.8635711721    3.9489106064   -0.0375363994
 H   -0.3474584986    4.5594572262    1.9572736544
 H   -0.5200764842    2.8139764259    2.3166428972
 H    2.0083263949    3.8187994415    1.1919024880
 H    0.3628096227    5.0046544489   -0.7825660394
 H    0.6494438588    2.4553649030   -2.2105284781
 H    2.1178973483    3.3080716990   -1.6528084683
 H    2.1477008117    1.4630498499    0.1284474716