19

 C   -0.0084491676   -1.2074466926   -0.0037377911
 C   -0.0205975342   -0.0057518716    0.0022869769
 C   -0.0055897792    1.4516949228    0.0093292902
 C    1.4209962861    2.0347053401   -0.0003603942
 C    1.4112483420    3.5568537445    0.0072280309
 O    2.7495251407    4.0082539262   -0.0023548786
 C    2.8452182992    5.4186822237    0.0038050420
 C    4.2442984750    5.8248107737   -0.0065153841
 C    5.3888189609    6.1875053717   -0.0148019819
 H   -0.0083420244   -2.2690783311   -0.0089635109
 H   -0.5619944433    1.8248731509   -0.8609129868
 H   -0.5465556126    1.8162388876    0.8928641251
 H    1.9742458621    1.6743008991    0.8723057746
 H    1.9587587291    1.6829699922   -0.8861462720
 H    0.8683833413    3.9445008063   -0.8731379579
 H    0.8840370740    3.9357570991    0.9008145595
 H    2.3290703226    5.8449010733   -0.8740362421
 H    2.3446671141    5.8361161730    0.8948009126
 H    6.4034141040    6.5010048011   -0.0221793922