18

 C   -0.0963713820    1.6318348778   -0.0426530040
 C    0.0532879154    0.1156661228   -0.0673815586
 C    0.7480119859   -0.5982454210   -1.2433017762
 C    2.1908899016   -0.2311218730   -1.2905426436
 C    1.7579381926   -1.2982706757   -0.2891789406
 C    2.3383508871   -2.6828822773   -0.2570075056
 C    1.0809358897   -0.6010470999    0.8565886414
 O    1.1668154533   -0.7064549796    2.0490553260
 H    0.8392161451    2.1398385325   -0.2944478405
 H   -0.8601567206    1.9651619976   -0.7529088409
 H   -0.3970870597    1.9631282201    0.9561723859
 H   -0.9163712634   -0.3547812270    0.1423125101
 H    0.2363048410   -1.0574857772   -2.0797736435
 H    2.7616578068   -0.6317120972   -2.1231085236
 H    2.5349438200    0.7432296053   -0.9561264132
 H    2.5584164512   -3.0425287101   -1.2670833232
 H    3.2727037374   -2.6996266191    0.3142342205
 H    1.6497597185   -3.3907149491    0.2154909795