15

 O   -0.1647565700    0.1290311357   -0.4855557994
 C    0.0552227760    1.1359180380    0.1497247647
 C    1.2708569338    1.8961392705    0.0851183639
 C    2.2768865829    2.5705778636    0.0604372981
 C    3.4598405212    3.3379799656    0.0271538592
 C    4.0327087324    4.1145151821    1.1917241138
 C    3.7053237208    4.8516460191   -0.0744370091
 C    4.7012508080    4.4687768754   -1.1612462876
 O    4.4941566036    3.0493201368   -0.9214376589
 H   -0.6953593047    1.5557459638    0.8512330353
 H    3.3509100482    4.2870725775    2.0171172203
 H    5.0643442156    3.9107287493    1.4641764968
 H    2.9771976923    5.6488311670   -0.1249031372
 H    4.3731343716    4.7365086439   -2.1707601011
 H    5.7453892982    4.7652520317   -1.0134992387