23

 C   -0.3884511408    1.6836022962   -0.3702361688
 C   -0.1400484902    0.1828372515   -0.2556920407
 C    1.0233434656   -0.5181991330   -1.0566589632
 C    2.0580993765    0.3469767553   -1.7679139015
 O    1.5572797073    0.9181469944   -2.9705245185
 C    1.4624856354   -1.2592775302    0.2497844283
 C    2.6164920311   -0.6336846370    1.0734615138
 C    1.6048794998    0.3435557314    1.7426908861
 C    0.4214206232   -0.4102124047    1.0632978064
 H    0.5227804083    2.2767018638   -0.2427519708
 H   -0.8266198035    1.9427185640   -1.3422250034
 H   -1.0990411699    2.0164203980    0.3948077232
 H   -1.0777331591   -0.3324513361   -0.4902820786
 H    0.6301227117   -1.2103599371   -1.8068211124
 H    2.4581869347    1.1274373657   -1.1036115238
 H    2.9076696798   -0.2768757425   -2.0687891523
 H    0.8677909847    1.5439308168   -2.7300691709
 H    1.4290609376   -2.3483176172    0.1927581813
 H    3.0271344913   -1.3499211702    1.7904122554
 H    3.4552823067   -0.1948045097    0.5269024970
 H    1.5944299879    0.3083381550    2.8345605832
 H    1.7114904788    1.3912772595    1.4495100386
 H   -0.3036075368   -0.8544468240    1.7477945116