14

 N   -0.0073708906    1.3509515467    0.1295242488
 C    0.0202232660   -0.0109059459    0.0390720729
 N   -1.0412105833   -0.7599428292    0.0158690089
 C   -0.6310099443   -2.1782580626   -0.0119173441
 C    0.8594858617   -2.0925017577   -0.0172740328
 C    1.2532664075   -0.8040079308    0.0144922877
 N    2.6370685751   -0.7230041488    0.0082382902
 C    2.9911521996   -1.9698669684   -0.0245985705
 O    1.9592629711   -2.8820864497   -0.0410497503
 H    0.8071128565    1.8498858756   -0.1891819157
 H   -0.8951649449    1.7862209863   -0.0690082172
 H   -1.0317256494   -2.7066586880    0.8621558176
 H   -1.0424256654   -2.6720086178   -0.9008865565
 H    3.9864725906   -2.3853690598   -0.0411912589