17

 O    0.1308980908    1.3285263856   -0.0494718022
 C    0.1043795744   -0.0451255245   -0.0083940810
 C    0.7381445681   -0.9631867958   -1.0756786897
 C    0.0862537599   -1.9210450125   -0.0319087097
 C    0.6888092259   -1.0138553878    1.0781837556
 C   -1.1651574604   -0.9695408844   -0.0465458463
 O   -1.9478664133   -0.8745489966    1.1292053398
 C   -2.0195738192   -0.9759216910   -1.2242298971
 C   -2.7862475941   -1.0064317811   -2.1509609800
 H   -0.3936405530    1.6589538120    0.6891528631
 H    0.3051712904   -0.9378269153   -2.0762719451
 H    1.8290267795   -0.9715474730   -1.0984749898
 H    0.0658744984   -3.0075811030   -0.0613089068
 H    1.7778948141   -1.0220615048    1.1549023414
 H    0.2011710821   -1.0308069756    2.0507676121
 H   -2.7353162803   -1.4135470542    1.0048715970
 H   -3.4498569633   -1.0191610480   -2.9802569413