17

 C    0.4027551253    0.5741589359   -1.0555491879
 C   -0.1309867744    0.3220644174    0.3376477884
 O    0.4404086037    0.6775116996    1.3452446730
 C   -1.4279978250   -0.4018042353    0.4479906240
 C   -2.3072231267   -0.6062451919    1.6803235941
 C   -2.7322288055   -2.0057909518    1.0880084161
 O   -4.0784277298   -2.2331453815    0.7908774794
 C   -1.8064350927   -1.7304894403   -0.1130249049
 O   -2.2787151345   -0.5253693359   -0.7107067910
 H    1.4098770765    0.9862343310   -0.9863840698
 H    0.4082835392   -0.3439206465   -1.6512779281
 H   -0.2528204442    1.2788050881   -1.5780832832
 H   -1.7311752157   -0.6868272030    2.6027182882
 H   -3.1114685318    0.1224650571    1.8015894569
 H   -2.3895824570   -2.8370812891    1.7077346697
 H   -4.3367521495   -1.5552782241    0.1535368784
 H   -1.2503812179   -2.4139838596   -0.7460300135