17

 O   -0.1231530332    1.4325823108    0.1121410399
 C    0.0342841266    0.0681662287    0.0021254429
 C    0.0254983611   -0.9140744226    1.1436162181
 C    1.0062555195   -1.9878702947    0.9448974759
 C    1.3883360732   -1.9744494113   -0.3582256565
 C    0.5679504138   -2.9239732927   -1.2485454168
 C   -0.3767125528   -1.6464486885   -1.3219898957
 C   -1.0316662725   -0.9934359479   -0.0645106322
 C    0.8384998167   -0.7109015648   -1.0534296727
 H    0.6486466125    1.7898114407    0.5665340108
 H   -0.4049281349   -0.6103496319    2.0917844370
 H    0.9506743903   -2.9060793837    1.5235338115
 H    0.9602729118   -3.1319874885   -2.2505396461
 H    0.2068225105   -3.8447085261   -0.7867670143
 H   -0.9729135920   -1.5122018925   -2.2273011394
 H   -2.0841595982   -0.9401624438    0.1772118344
 H    1.3906170874   -0.2330132211   -1.8601865467