19

 C    0.2030861134    1.5668627483    0.1925696403
 C   -0.1695203516    0.1074801414   -0.0961541936
 C    0.6159920425   -0.4694801713   -1.2533494614
 O    0.4126300830    0.1471917829   -2.4980284121
 C    1.9779021312   -1.0744940642   -1.0326177622
 O    2.5031015376   -1.1511012712    0.2518956187
 C    0.7948110158   -1.9774183417   -1.4137293504
 C    0.3306391864   -2.9070515545   -0.4324471188
 C    0.0180419313   -3.6927310649    0.4259586299
 H    1.2614886963    1.6536939182    0.4581694928
 H    0.0086328557    2.2103598631   -0.6727988241
 H   -0.3864577273    1.9608486303    1.0252709916
 H    0.0113041386   -0.5001877855    0.7931867097
 H   -1.2373659338    0.0286591015   -0.3311022411
 H    0.8547038249    1.0035015351   -2.4784964751
 H    2.7198772826   -0.9152193315   -1.8133239785
 H    2.3110676008   -2.0296107536    0.6058564451
 H    0.7773625448   -2.3169114627   -2.4443243215
 H   -0.3055766424   -4.3858551696    1.1626481407