17

 O    0.1356455632    1.3489562943   -0.0995115737
 C   -0.1170445262   -0.0213735162   -0.0227760333
 C   -0.4665323320   -0.7830940385    1.2249051218
 C   -1.5744586558   -0.0797199015    2.0134446035
 O   -1.5815280978    1.3960469190    2.0084624156
 C   -2.6280969281    1.4188673227    0.9855816664
 C   -2.5411781584   -0.1103442612    0.8240997775
 C   -1.4322053918   -0.7313513989   -0.0457161190
 O   -1.7656929305   -1.7009289722   -0.9676719428
 H   -0.1787077397    1.7255146548    0.7367896701
 H    0.6128982843   -0.5653371627   -0.6255175921
 H    0.1778410882   -1.5560707632    1.6288359035
 H   -1.8094890820   -0.4812894238    3.0000703162
 H   -3.5721359708    1.7655255002    1.4197010056
 H   -2.3542065534    2.0410431807    0.1301855849
 H   -3.4521764990   -0.7054196429    0.8436204960
 H   -1.2679732401   -1.5470645207   -1.7771274003