18

 O   -0.5019594876    0.1741802615    0.3934420253
 C   -0.1924377001    1.2727644892    0.0150093687
 C    1.2393718477    1.7761377899   -0.0902051097
 N    1.3885793252    2.7061789541   -1.1844307849
 C    1.5311313086    2.1774236355   -2.5572907666
 C    2.5149498069    3.3463607045   -2.8625106293
 C    2.6484834097    3.4634942778   -1.3135840435
 C    3.6975287155    3.0816812038   -3.6503179010
 C    4.6841728557    2.8539688943   -4.2987439818
 H   -0.9497588207    2.0334597914   -0.2813921195
 H    1.4461778987    2.3129677786    0.8480803711
 H    1.9226615354    0.9093868406   -0.1297938215
 H    2.0411557213    1.2027502782   -2.5968356692
 H    0.6065824121    2.1276017517   -3.1398154536
 H    1.9692083279    4.2059347710   -3.2607825541
 H    2.6348935022    4.4662750183   -0.8758923109
 H    3.5306088332    2.9160010145   -0.9495254714
 H    5.5540958781    2.6557123250   -4.8744452279