18

 O    0.0301654404    1.4202680111    0.1544642652
 C    0.0397321929    0.0153867673   -0.0410967156
 C   -1.3561695440   -0.5451122401   -0.0200430004
 C   -2.0722783757   -1.0964081236    1.1977286481
 C   -1.9452674436   -1.9812562152   -0.0024289296
 C   -3.0009684905   -1.5878668305   -1.0581833851
 C   -2.3687256050   -0.2007778807   -1.0538874215
 N   -2.4267497084    0.8519465629   -1.7585406153
 O   -3.4471338906    0.7735876489   -2.7253861268
 H   -0.5379908187    1.7878191934   -0.5350942544
 H    0.5249819013   -0.2465907619   -0.9950976407
 H    0.6436666438   -0.4128593963    0.7657279844
 H   -1.4094116966   -1.3267600460    2.0263420686
 H   -3.0417235825   -0.7066928111    1.4975656783
 H   -1.4005473100   -2.9163278513    0.0131680430
 H   -2.8732699469   -2.0750122278   -2.0289317311
 H   -4.0500188955   -1.6675264753   -0.7575728430
 H   -3.3709323004    1.6225925263   -3.1736050739