21

 C    0.1151694194    1.5441248525   -0.0185169290
 C   -0.0211530746    0.0214963785    0.0587374565
 O    0.7133466395   -0.4809606218    1.1765277457
 C   -1.4791929215   -0.5295052996    0.0390975899
 C   -2.2147349876   -0.0295353227   -1.2177077749
 C   -1.4027023177   -2.0676530901   -0.0049195783
 C   -2.2547893517   -0.0999299829    1.2979975991
 H    1.1749394073    1.8116339084    0.0147381531
 H   -0.3100970914    1.9492298101   -0.9402262433
 H   -0.3819798197    2.0379858682    0.8247590859
 H    0.4910800712   -0.4105063845   -0.8110434031
 H    0.4363904269    0.0132116837    1.9550536446
 H   -1.6381479946   -0.2422298356   -2.1255586083
 H   -3.1825710924   -0.5322345231   -1.3182290485
 H   -2.4066835890    1.0472076320   -1.1847442114
 H   -0.8199663191   -2.4506385281    0.8358387904
 H   -2.4044623130   -2.5089781368    0.0329665951
 H   -0.9226022295   -2.4096720452   -0.9290266856
 H   -2.3565660345    0.9878357049    1.3709666842
 H   -3.2658621891   -0.5200789290    1.2838595525
 H   -1.7684737089   -0.4627609888    2.2098269653