19

 C   -0.0929295476    1.5985852859    0.0381487363
 C    0.0306514697    0.0856623772   -0.0379240760
 C    1.1880682114   -0.6157069834   -0.7925524212
 C    2.1632329054   -0.2301188014    0.4054929466
 C    0.8371342383   -0.7481834414    1.0277695526
 O    0.2906534048   -1.2287832074    2.2165888182
 C   -0.5301912368   -2.3316012260    1.7520802226
 O   -0.3346532880   -2.5444462137    0.3387392896
 C    0.9000414804   -1.9009782442    0.0694285332
 H    0.8484341463    2.1108554699    0.2511924050
 H   -0.4769144347    1.9975557247   -0.9073458239
 H   -0.8047434696    1.8789722264    0.8221528329
 H   -0.9415341425   -0.3596999567   -0.2592140876
 H    1.4324695222   -0.5543533596   -1.8512978672
 H    3.0446276366   -0.8620376793    0.5362383070
 H    2.4121871612    0.8239787586    0.5073757188
 H   -0.2368534809   -3.2226802305    2.3220669489
 H   -1.5900890393   -2.1045109746    1.9087745581
 H    1.7387827432   -2.6005319947    0.1536568560