20

 C    0.0418350489    1.4954481236    0.0407442789
 C   -0.0220776775    0.0112046629   -0.0730539086
 C    0.8610731064   -0.9882399037   -0.7331612995
 N    0.8131805882   -0.9149980309    0.7757307313
 C   -0.3380177888   -1.9273032003    0.7409439328
 C   -0.6271496722   -2.8924973937    1.8366046149
 C   -1.2012820227   -0.9987368394   -0.0837201291
 C   -0.2841349333   -2.0348384717   -0.7660701487
 C   -0.6279034799   -3.1410560930   -1.7070038768
 H    1.0842495690    1.8186338515    0.1247758192
 H   -0.4001145832    1.9807397630   -0.8367855663
 H   -0.4937224724    1.8455655208    0.9304640014
 H    1.7902529568   -0.8826963064   -1.2836515999
 H   -0.8512539734   -2.3675461508    2.7719930655
 H   -1.4906232043   -3.5168906717    1.5832595753
 H    0.2301201247   -3.5512772230    2.0153478389
 H   -2.2763400324   -0.8955720258   -0.1521664142
 H   -0.8286410866   -2.7641817456   -2.7169375788
 H    0.1832661599   -3.8753573369   -1.7795921453
 H   -1.5252164172   -3.6716360588   -1.3697045710