18

 C   -0.0905606198    1.5705426897    0.0136160396
 C   -0.0083698068    0.0431642633    0.0138571140
 N   -1.3214190656   -0.6089178237    0.0274485629
 C   -1.9785661460   -0.8376171799    1.2389962946
 C   -3.1380363624   -1.4881484615    1.2879120671
 C   -3.6940411217   -2.0064839418   -0.0001781354
 O   -3.2471917853   -1.2290398421   -1.1282946081
 C   -1.9961338748   -0.7182140435   -1.1804842959
 O   -1.5325691350   -0.3418768478   -2.2284906579
 H    0.9153414733    2.0018824952    0.0157403892
 H   -0.6126403911    1.9169985908   -0.8810950478
 H   -0.6209681580    1.9418342728    0.8965943194
 H    0.5140933494   -0.3034051832   -0.8788317007
 H    0.5415945129   -0.3194065674    0.8878559546
 H   -1.4762811613   -0.4402289605    2.1132544498
 H   -3.6606533400   -1.6587994381    2.2188944876
 H   -3.4131630182   -3.0572602450   -0.1742849509
 H   -4.7856888397   -1.9510796073   -0.0325540822