18

 C   -0.0463857527    1.6028458631   -0.2190648450
 C    1.5053693007    1.4781836161    0.1274654174
 C    1.0981421932    0.2001329109    0.8968423703
 C    1.0912417202   -1.3366586980    1.1169082227
 C   -0.4895341304   -1.0312265802    1.1029690929
 C   -0.5951752671   -0.1794511742    2.3582590164
 O    0.5430253763    0.6771185746    2.1591600443
 C   -0.1114181417    0.0478985029    0.0108486192
 H   -0.5717823213    2.2007199282    0.5235805962
 H   -0.3031663662    1.9476875579   -1.2226188456
 H    2.0936574396    1.2660280420   -0.7680717120
 H    1.9730972239    2.2790757068    0.7034342313
 H    1.4087102587   -1.9125897477    0.2472835913
 H    1.5160470291   -1.7423922873    2.0392899408
 H   -1.2292006242   -1.8163501567    0.9435733692
 H   -1.5165012405    0.4139743152    2.4103611686
 H   -0.4887735398   -0.7519293712    3.2879774211
 H    0.1469172422   -0.4593498125   -0.9208628490