25

 C    0.8349469568   -1.4210140276   -2.2079276582
 C    0.3082533797   -0.4827480742   -1.1086984576
 C    0.4830720278    0.9785165038   -1.5556292010
 C   -1.1526577900   -0.7138646710   -0.6638805622
 C   -2.1991480125   -1.0025671695   -1.7883625618
 C   -2.2391708758   -2.4921861045   -1.3521435613
 C   -1.5619055704   -2.0826049339   -0.0178965283
 C   -0.5448908293   -2.9973034147    0.6357950101
 O   -1.2557131078   -4.1231961416    1.1395852941
 H    1.8876833177   -1.2010100189   -2.4150629303
 H    0.7695226068   -2.4764786478   -1.9336741943
 H    0.2870396257   -1.2870222425   -3.1467326481
 H    0.9388012477   -0.6294458880   -0.2195757247
 H   -0.1533076978    1.2024550260   -2.4200149843
 H    0.2144687297    1.6766280277   -0.7561702422
 H    1.5187561262    1.1822654161   -1.8472510447
 H   -1.4194176475    0.1362715130   -0.0269147072
 H   -3.1470417814   -0.4910607078   -1.6006047049
 H   -1.9021295383   -0.7905334024   -2.8183656610
 H   -3.2170800118   -2.9735877843   -1.2861440945
 H   -1.5889309194   -3.1212595406   -1.9673373574
 H   -2.3366114281   -1.8910699829    0.7333509974
 H    0.2241287279   -3.3145524538   -0.0836339962
 H   -0.0293392352   -2.4584802737    1.4488708643
 H   -0.6184781406   -4.7337655369    1.5214258142