17

 C   -0.0761121126    1.5231366299   -0.0205098565
 C   -0.0440970795    0.0098651000    0.0070789287
 C   -1.2636202332   -0.6661733290   -0.5844896106
 N    1.2756874385   -0.5766860549   -0.2111249197
 C    0.6932067394   -0.6681860099    1.1624254250
 C    1.3446230009    0.0877920452    2.2017056991
 C    1.8622640837    0.7113051728    3.0880699068
 C    0.2092672719   -1.9627094152    1.5954944604
 N   -0.1684191669   -3.0041234142    1.9288268177
 H    0.8398732704    1.9448088038    0.3938179509
 H   -0.1786622117    1.8674091579   -1.0550186101
 H   -0.9295673716    1.9015226759    0.5505977342
 H   -1.3348972100   -0.4200701936   -1.6496405875
 H   -1.2261214133   -1.7530646922   -0.4824635606
 H   -2.1783160502   -0.3119319344   -0.0993200779
 H    1.2008475358   -1.4880641352   -0.6609210266
 H    2.3298930386    1.2598610232    3.8685055267