14

 O    0.1038419571    1.5185104259   -0.1932405549
 C    0.0516085055    0.1276666413   -0.0659776126
 C    0.6575987852   -0.5618577849   -1.2072654811
 C    1.1408872721   -1.1654977459   -2.1275940324
 C    0.7234839569   -0.2784281293    1.2783453673
 O    0.9752601240    0.5736553877    2.0938092620
 N    0.9368216897   -1.6355492513    1.4326470180
 C    1.4149565586   -2.2993471459    2.5669438708
 O    1.6618946348   -1.7979806451    3.6255429430
 H    0.4319201520    1.8347653731    0.6667602099
 H   -0.9979206919   -0.2117649374    0.0173893682
 H    1.5706065401   -1.6759551067   -2.9547683795
 H    0.7925682338   -2.1988352080    0.6043100195
 H    1.5300502021   -3.3802045633    2.3531383217