15

 N   -0.4973851705    1.2885811259    0.2641065495
 C    0.2166943525    0.0504063134   -0.0691198194
 C    0.9621728700   -0.4975441046    1.1111415847
 N    2.2248593455   -0.8534028806    1.0935142457
 C    2.4375725648   -1.3183024483    2.3676033025
 N    1.4006572572   -1.2713401969    3.1684565538
 N    0.4340496025   -0.7380891922    2.3617283070
 C   -0.8877240998   -0.5131251044    2.8241362998
 O   -1.2649569279   -0.8180207606    3.9164318644
 H    0.1681325376    2.0324113600    0.4532375268
 H   -1.0505101724    1.5876041499   -0.5325294342
 H   -0.5286559955   -0.6842465189   -0.3993009074
 H    0.9579472060    0.1393629680   -0.8743647957
 H    3.3940351970   -1.6948310845    2.6991241749
 H   -1.4864107271   -0.0106587361    2.0510394677