20

 C   -0.1159443251    1.5300223897   -0.0106558705
 C    0.0469642746    0.0112816415    0.0127644267
 O   -1.2431856546   -0.6031135807   -0.0087312291
 C    0.9998203989   -0.5617641366   -1.1008603751
 C    1.9988591028   -1.3269866299   -0.2104481879
 C    1.0610355647   -2.0123390824    0.8253557858
 C    0.7896826376   -0.5385384510    1.2495961189
 C    2.2853102329   -0.2795915336    0.9030359697
 H    0.8415065530    2.0500003044    0.0786197738
 H   -0.5741930521    1.8530817745   -0.9541405077
 H   -0.7658143644    1.8516829491    0.8090225636
 H   -1.7154202292   -0.2695151350   -0.7786041860
 H    0.4453842026   -1.2174782229   -1.7786381223
 H    1.4829252246    0.2231377540   -1.6921592378
 H    2.8012901912   -1.8698972469   -0.7115898602
 H    0.2155792603   -2.5969434150    0.4604219399
 H    1.6160650743   -2.5660163239    1.5862504945
 H    0.3597584894   -0.2799142391    2.2178699207
 H    2.9551002878   -0.6597166066    1.6778035828
 H    2.5975400106    0.7257136605    0.6053461104