18

 C   -0.0519915841    1.4267284293   -0.0224742385
 C   -0.0034619884   -0.0685778145   -0.0243533305
 N    1.0414500000   -0.8330064786   -0.7600290753
 C    0.1653265757   -2.0367893423   -0.5277433539
 C    0.3144641671   -2.2328464127    0.9953874261
 O    0.5872027647   -3.1685229013    1.6932304032
 C   -0.3279706895   -0.9059660703    1.2195854756
 C   -1.0691929326   -1.1077480293   -0.1573555792
 C   -2.5381475580   -1.1594052311   -0.4254621679
 H    0.8605318138    1.8383179379    0.4203476609
 H   -0.1428747302    1.8163226196   -1.0426407147
 H   -0.9072458590    1.7912820055    0.5540997085
 H    0.9457475410   -0.5763782351   -1.7441901782
 H    0.2063711110   -2.8636185958   -1.2317450798
 H   -0.7265080071   -0.4707076926    2.1265226663
 H   -3.0512477108   -0.3222038104    0.0586870506
 H   -2.7493389247   -1.1056862567   -1.4992949369
 H   -2.9797336591   -2.0859097016   -0.0426137263