20

 C    0.1794893836    1.5608584122    0.1400199782
 C   -0.0284482924    0.0937415110   -0.0179898703
 C    0.4414377090   -0.9126083147   -1.0052441651
 N    0.9127164319   -0.9730165477    0.4245267245
 C   -0.2092540506   -1.6462010729    1.1668645280
 C   -1.2184444727   -0.9039178006    0.2857740594
 C   -0.9461460394   -1.5251201981   -1.1274484736
 C   -1.7835396289   -0.8932029164   -2.2357230309
 O   -0.9417602143   -2.9357262833   -1.2375604548
 H    1.2114778531    1.8200710293   -0.1156261377
 H   -0.4892812324    2.1326377454   -0.5132197494
 H   -0.0037043531    1.8824620156    1.1713483502
 H    1.2098203563   -0.8347500485   -1.7646696682
 H   -0.2077100983   -2.7387060203    1.1264748689
 H   -0.1902478326   -1.2963918967    2.2020546132
 H   -2.2348383544   -0.6631058395    0.5978017483
 H   -1.7985066506    0.1974164879   -2.1606362175
 H   -1.3879805784   -1.1686463817   -3.2184326155
 H   -2.8218000973   -1.2444299890   -2.1785329131
 H   -1.8442153085   -3.2309632022   -1.3995337646