16

 C   -0.0935851115    1.4666980918    0.0510078764
 C   -0.0052220631    0.0165778649   -0.0033878080
 C    0.0604684934   -1.1863291433   -0.0504833672
 C    0.1327691446   -2.5963048989   -0.1069098915
 C    1.2165821111   -3.4209023476    0.1310535438
 N    0.7447802411   -4.6713605485   -0.0584160403
 C    1.4331303368   -5.9415351386    0.0528822385
 N   -0.5638080242   -4.6387312761   -0.3971178843
 N   -0.9382215824   -3.3975386820   -0.4282935962
 H    0.5945923521    1.9360706694   -0.6610430282
 H   -1.1062546962    1.8054273088   -0.1929731885
 H    0.1518965120    1.8448975998    1.0498149260
 H    2.2360614845   -3.2131517013    0.4073668402
 H    1.8147227232   -6.0861714891    1.0672597318
 H    0.7068304297   -6.7206793740   -0.1776305070
 H    2.2632272189   -5.9941846554   -0.6568091455