15

 O   -0.0317602888   -0.0517688313    0.0022002565
 C    0.0179145434    1.1425333078    0.0087178079
 O   -1.0904491119    1.9611945043    0.0286064305
 C   -0.7130962770    3.3511089032    0.0315077033
 C    0.7901570013    3.3091090841    0.0102372393
 N    1.7353364356    4.1537055407    0.0008521592
 C    2.9825736662    3.3466533925   -0.0206615516
 C    2.5665840385    1.8249168034   -0.0233374196
 N    1.1179461214    1.9693152824   -0.0009515526
 H   -1.1317003444    3.8445926576   -0.8504152166
 H   -1.1067572164    3.8340724794    0.9305894160
 H    3.5678541682    3.6058065981   -0.9079758863
 H    3.5918377316    3.5960615545    0.8532182103
 H    2.8961671677    1.2910206615   -0.9184737634
 H    2.9226387344    1.2806512819    0.8552372072