21

 C   -0.0118641355    1.5431368300   -0.0173390980
 C    0.0298194324    0.0420801988   -0.0233244627
 C    0.1345261980   -0.6798070960   -1.1586007208
 C    0.0610392142   -2.1196929763   -1.2512238977
 C   -0.6610492167   -2.9500882077   -0.4540785908
 C   -1.5339037508   -2.5518233869    0.6372331687
 C   -2.7620541444   -3.4069538423    0.8557273081
 C   -1.2896274289   -1.4704554075    1.4045773913
 C   -0.0113318373   -0.6796124922    1.3082059003
 H    0.8153551233    1.9595931230    0.5729736829
 H    0.0419685673    1.9570637830   -1.0277371437
 H   -0.9362453090    1.9086208452    0.4479450414
 H    0.2779114404   -0.1481157663   -2.0977758860
 H    0.5489580448   -2.5664631676   -2.1155358938
 H   -0.7007119305   -4.0004195761   -0.7386379581
 H   -3.4138029747   -3.4123875315   -0.0259347139
 H   -2.4797926690   -4.4503047567    1.0448878546
 H   -3.3471758297   -3.0577004058    1.7101563324
 H   -2.0311770859   -1.1574035385    2.1356741437
 H    0.8483815097   -1.3611666044    1.3736840972
 H    0.0662393222    0.0313041158    2.1354093550