25

 C   -0.0145629116    1.5660688075   -0.1254935225
 C    0.0606748086    0.0394764472    0.0053356254
 C    0.6687007371   -0.5607087209   -1.2726812048
 O    0.6914805723   -1.9749173610   -1.2639523983
 C    1.4580934226   -2.4798782581   -0.1849636070
 C    0.8939946419   -2.0222871159    1.1593493751
 C    0.7907018120   -0.4806648196    1.2838299490
 C    2.1943882592    0.1361839111    1.4512140531
 C   -0.0360176822   -0.1544669572    2.5403023171
 H    0.9744564739    2.0114124942   -0.2757836407
 H   -0.6314674437    1.8442691340   -0.9868464685
 H   -0.4591483317    2.0319430759    0.7579830336
 H   -0.9671778200   -0.3460245601    0.0626847148
 H    0.0674819040   -0.2722182191   -2.1410612354
 H    1.6870366791   -0.1643977500   -1.4335073696
 H    1.4238753607   -3.5704707316   -0.2685811476
 H    2.5124681909   -2.1734927164   -0.2935430448
 H   -0.1080518370   -2.4556276825    1.2695952570
 H    1.5087767263   -2.4235786979    1.9750058634
 H    2.8381513703   -0.0283739616    0.5828306618
 H    2.1382685538    1.2156832240    1.6199156787
 H    2.6975563384   -0.3030280012    2.3196942454
 H    0.4256304354   -0.5979509878    3.4299709439
 H   -0.1090146116    0.9235331796    2.7146513648
 H   -1.0533001587   -0.5532497229    2.4598917262