11

 O   -0.0428641434   -0.0504839148   -0.0006299626
 C    0.0071769774    1.1464884435    0.0077542935
 N    1.1929869640    1.8889305011   -0.0001258519
 N    2.4516513800    1.3069406971   -0.0183752235
 C    3.2610764398    2.3126304322   -0.0201680249
 N    2.6151534278    3.5250364422   -0.0041815230
 C    1.2407900561    3.2973244760    0.0095777719
 O    0.3327285959    4.0909568021    0.0254624059
 H   -0.8583389097    1.8283451271    0.0220944319
 H    4.3359745426    2.2161816967   -0.0328981182
 H    3.0225498095    4.4446027369   -0.0019944490