15

 N   -0.3656060246    1.0872233935   -0.3667552254
 C   -0.0165936094   -0.1483776009    0.0450876228
 O    1.1059500270   -0.5377658826    0.3083094964
 C   -1.2279524732   -1.0975418781    0.1571984038
 O   -2.3443788857   -0.7381395755   -0.1266317827
 C   -0.8851313425   -2.5054870411    0.6203402683
 O   -2.0254177497   -3.2673578780    0.9345689170
 C   -2.7657517978   -3.7194358411   -0.1054882859
 N   -3.8244818609   -4.3628321030    0.1190508023
 H    0.3354834426    1.8007112643   -0.4748396269
 H   -1.3361040848    1.2849741519   -0.5514731085
 H   -0.2588160946   -2.9791796129   -0.1507569897
 H   -0.2683261440   -2.4485383885    1.5201836953
 H   -2.3329980311   -3.4841782187   -1.0867789696
 H   -4.2516655913   -4.6490790692   -0.7590968870