18

 C   -0.0879235141    1.5425169758   -0.0117739384
 C    0.0690975696    0.0229270035    0.0082707377
 C    0.7786520996   -0.5384681911   -1.2386165560
 N    0.9927740140   -1.9793109971   -1.1938798696
 C    1.2943958567   -2.4590467301   -0.0541557211
 N    1.6954980314   -3.7783355215    0.1074079545
 N    1.3265170432   -1.7223959232    1.1376917133
 C    0.7959269792   -0.4475643249    1.2619889042
 O    0.9024730822    0.1803943425    2.2920625432
 H    0.8867515834    2.0336904754   -0.0968367512
 H   -0.7014433667    1.8522900427   -0.8628990832
 H   -0.5564038525    1.8956152213    0.9086174265
 H   -0.9266846634   -0.4447447058    0.0549921853
 H    0.1856146955   -0.3030595232   -2.1277140774
 H    1.7454108791   -0.0243767302   -1.3680526745
 H    1.5780981418   -4.2998411652   -0.7509502880
 H    1.2932879257   -4.2544898025    0.9042786329
 H    1.8237614253   -2.0808318764    1.9409064619