18

 C   -0.3098221495    1.5422408319   -0.1370759421
 C    0.0787530850    0.0785880971   -0.0364049111
 O    1.1031222101   -0.2180007561   -1.0047320463
 C    1.9401752049   -1.1831600285   -0.5086530988
 O    2.8352975108   -1.6714955903   -1.1386140549
 N    1.5482480770   -1.4663059135    0.7860717895
 C    0.6755344037   -0.4241261704    1.3000780650
 C    1.4528957431    0.6056944940    2.1220150906
 O    2.0538316170   -0.1206413824    3.1846513271
 H    0.5413613646    2.2006342762    0.0542235081
 H   -0.6817656901    1.7551376914   -1.1423515484
 H   -1.1056059737    1.7755479018    0.5771837939
 H   -0.7892558754   -0.5485896322   -0.2780100102
 H    2.2399820092   -1.8697642503    1.3995065432
 H   -0.1066356419   -0.8500709777    1.9371531156
 H    2.2109404793    1.0928503662    1.4907707326
 H    0.7706734770    1.3816204130    2.5003781608
 H    2.6576821290    0.4622479199    3.6534945256