20

 C   -0.0175291266    1.6065144965   -0.0889826843
 C    0.1153481054    0.0849841193    0.0106184494
 C    0.7529952725   -0.5248405142   -1.2465688890
 C    0.8240489071   -2.0895328794   -1.2797537512
 O    0.5985752321   -2.6847544835   -0.0255126353
 C   -0.3362944204   -2.1245291426   -2.3276896474
 C   -0.1668257834   -0.6249613330   -2.4502157607
 N   -0.5393511532    0.2675587300   -3.2682587853
 O   -1.3727123382   -0.2795522445   -4.2651392761
 H    0.9647021540    2.0835498678   -0.1814197626
 H   -0.6071282379    1.8925542706   -0.9653565444
 H   -0.5053336178    2.0161668597    0.8010079082
 H    0.7285744645   -0.1921142127    0.8748079103
 H   -0.8674423331   -0.3684373901    0.1795971052
 H    1.7092561569   -0.0295217986   -1.4455158393
 H    1.7689991800   -2.4341176766   -1.7205171667
 H    0.6149455769   -3.6404732539   -0.1360352684
 H   -0.1949710920   -2.7082965523   -3.2406143916
 H   -1.2908924243   -2.4049411272   -1.8690496795
 H   -1.5550466926    0.4875646447   -4.8182676614