17

 O    0.1095478150    1.4054560117   -0.1820842212
 C    0.0688157658    0.0217017252    0.0866709457
 C   -1.3646356739   -0.5396319176   -0.0006786305
 C   -2.0758934343   -0.5679741518   -1.3967483560
 N   -2.3469303288   -2.0445778914   -1.3028682567
 C   -1.0263075163   -2.6874663516   -1.2329232606
 C   -1.5598578445   -2.0670044015   -0.0040614581
 C   -2.1791830902    0.1263126728    1.0115154845
 N   -2.7742528219    0.6939535950    1.8249854070
 H   -0.3438393968    1.8658070020    0.5338404601
 H    0.6872318796   -0.4553447464   -0.6771299569
 H    0.4975027036   -0.2271320696    1.0689806673
 H   -3.0103323791   -0.0089079203   -1.4263922801
 H   -1.4454481820   -0.2771549045   -2.2422472808
 H   -1.0798335630   -3.7701919725   -1.2906283485
 H   -0.1902895886   -2.2480289825   -1.7714218830
 H   -1.8865195846   -2.6409505069    0.8559968380