17

 C   -0.0804939052    1.5220700751   -0.0043341781
 C   -0.0160968203    0.0194783281   -0.0011457578
 C   -0.1416266552   -0.7200682641   -1.1341770570
 N   -0.0792520839   -2.0872042321   -1.1888388084
 C    0.5414872356   -2.7729289309   -0.0603870832
 C   -0.0041743623   -2.1911855720    1.2414863434
 C    0.1213451099   -0.6637469274    1.2853637513
 O    0.2530038740   -0.0716811446    2.3439700830
 H    0.8433551085    1.9568540370    0.3922438537
 H   -0.2369094515    1.9125753073   -1.0144763363
 H   -0.8898572346    1.8859706211    0.6379207073
 H   -0.3282881355   -0.2363274251   -2.0900147669
 H    0.0959976666   -2.4827342000   -2.0990163378
 H    0.3322295257   -3.8438188724   -0.1347128943
 H    1.6361886311   -2.6393077090   -0.0888834343
 H   -1.0715391482   -2.4342642730    1.3349258002
 H    0.5075824653   -2.6136136781    2.1088363853