12

 O   -0.0318145760    1.3187477013    0.0096713013
 C    0.0026100938   -0.0082636903    0.0022871431
 N    1.0769963439   -0.7411250422   -0.0064238543
 O    0.6233414784   -2.0946418295   -0.0118069688
 C   -0.7205454315   -2.0587498535   -0.0057168503
 N   -1.6741191654   -2.9366832308   -0.0062911529
 C   -2.8152930246   -2.1359018872    0.0030840171
 C   -2.5351139425   -0.7935368841    0.0091498344
 N   -1.1407632974   -0.7527343035    0.0032322710
 H    0.8801287125    1.6425464268    0.0074264429
 H   -3.7952962007   -2.5887511616    0.0049345551
 H   -3.1446554004    0.0915154345    0.0166331415