20

 C    0.2138447590    1.5372876847    0.0324638261
 C   -0.0403080575    0.0546104614   -0.0563990425
 N    0.0450616173   -0.5412241508   -1.1706756279
 C   -0.2138218699   -1.9628674745   -1.3894109917
 C   -1.5079498187   -2.4815862662   -0.7827707530
 C   -1.5210733653   -3.7470833403    0.0376024901
 C   -1.6492078258   -2.4023543454    0.7161598089
 C   -0.4848443639   -1.8073783715    1.4578800969
 O   -0.3434080774   -0.3998588403    1.2009154449
 H    1.0507965439    1.7387655913    0.7088861555
 H    0.4345425790    1.9321147364   -0.9577875681
 H   -0.6627367720    2.0449701886    0.4479450912
 H   -0.2441852134   -2.1164219257   -2.4737802441
 H    0.6399346946   -2.5577632458   -1.0397902585
 H   -2.4008341609   -2.2626291982   -1.3602412775
 H   -2.3996178898   -4.3813932671    0.0017953276
 H   -0.5874250067   -4.2896806133    0.1509996609
 H   -2.6253397530   -2.1353500084    1.1093623691
 H   -0.6196664589   -1.8717688858    2.5410878929
 H    0.4520475794   -2.3186192990    1.2135969891