15

 C    0.0222861777    1.3797061823    0.2468913437
 N   -0.1342792983    0.0268330891   -0.2983996859
 C   -1.4464415051   -0.5267244588   -0.0593604685
 C   -1.5821388775   -2.0485072925   -0.3360385763
 O   -1.8845830526   -2.2910191122    1.0735830775
 C   -1.7008585454   -0.9625405558    1.3943232915
 O   -1.7351309400   -0.4666796165    2.4696486071
 C   -2.6570611577   -2.4793903460   -1.2198855311
 N   -3.4934178903   -2.8021028997   -1.9482264088
 H    1.0299245730    1.7357243442    0.0203719606
 H   -0.7052136917    2.1049907691   -0.1534510046
 H   -0.0952870965    1.3462465769    1.3323608507
 H    0.0372684964    0.0448497489   -1.2992870800
 H   -2.2926698762    0.0568289426   -0.4591046956
 H   -0.6356436459   -2.5211379915   -0.6074452004