23

 C   -0.0297875732    1.5679451776    0.1683917474
 C   -0.0159234142    0.0437055723    0.0206238784
 C    0.6563419760   -0.4568648650   -1.2687567868
 C    0.7852855396   -2.0034906285   -1.3363818698
 C    0.5645857995   -2.3967781829   -2.8189084305
 C   -0.2140523182   -3.6983227240   -2.9895208833
 O   -0.3068268836   -3.9758893650   -4.3799128460
 C   -0.1352116034   -1.1803884881   -3.3823654242
 C   -0.0855890576   -0.1411981060   -2.5517680643
 H    0.9873361835    1.9756585873    0.1522847992
 H   -0.5907691329    2.0488140751   -0.6396339378
 H   -0.4928366874    1.8689489283    1.1133879452
 H    0.5084626463   -0.3959557720    0.8792747450
 H   -1.0428301238   -0.3434114562    0.0577988502
 H    1.6580014531    0.0009048289   -1.3145497001
 H    1.7368189401   -2.3651716749   -0.9376280155
 H   -0.0098179866   -2.4496648552   -0.7241297917
 H    1.5262481791   -2.5378601010   -3.3343412136
 H    0.3037993536   -4.5117773328   -2.4550291202
 H   -1.2126745254   -3.5870849201   -2.5363857644
 H   -0.8472778270   -4.7625145956   -4.4957155078
 H   -0.5855727478   -1.1883772493   -4.3679976293
 H   -0.4913019397    0.8425318673   -2.7633031399