19

 O   -0.0113820963    1.4089856886   -0.2698023306
 C   -0.0420411056    0.0474663524    0.1318977908
 C   -1.4143071261   -0.5310966457    0.0215650397
 O   -2.4063229640    0.0189852295    0.9047138243
 C   -3.1501955817   -1.2470818212    0.8202831584
 C   -4.2841732430   -1.0488160359   -0.1779376769
 C   -3.5311176319   -0.6524991004   -1.4808675818
 C   -2.0860435603   -1.0826578864   -1.2222254505
 C   -1.9888355193   -1.9125103343    0.0490319079
 H   -0.6641355853    1.8710030287    0.2680433014
 H    0.6428195711   -0.4934430748   -0.5292248384
 H    0.3206606879   -0.0703197477    1.1650274068
 H   -3.4178385338   -1.6173341537    1.8111935601
 H   -4.8376478582   -1.9867528736   -0.3041885391
 H   -4.9868259765   -0.2813104988    0.1581513448
 H   -3.9406571356   -1.1620302910   -2.3574899972
 H   -3.5977761810    0.4231678512   -1.6661430069
 H   -1.4306673040   -1.3255605861   -2.0515652682
 H   -1.5517900266   -2.8930661708    0.1771226951