15

 O    0.2375951082    1.2327498879   -0.1615408612
 C    0.0074828042   -0.1401586769   -0.1590353181
 C   -0.1809876283   -0.8626059333    1.2104724576
 O   -1.4346165011   -1.4327772795    0.7484562614
 C   -1.4633214091   -0.5717591313   -0.4222069834
 C   -2.4683624956    0.4741385260   -0.3482984393
 C   -3.3160283451    1.3240700599   -0.2972462674
 C    0.8008322466   -1.8478739350    1.6136045238
 C    1.6412946333   -2.6471128553    1.9303857130
 H    1.1866516966    1.3887923242   -0.1813516347
 H    0.7027919102   -0.6864870854   -0.8050840154
 H   -0.3581800514   -0.1326038950    2.0117047325
 H   -1.6071183805   -1.1676878919   -1.3304032502
 H   -4.0605900185    2.0799422241   -0.2488212473
 H    2.3743795907   -3.3594770585    2.2192616886