18

 O   -0.5699364205    0.2383922365    1.3264032570
 C   -0.0257869610    1.0394699676    0.6089351018
 C    1.3495298934    1.6179254789    0.8365040068
 C    2.4084697768    0.9189075409   -0.0323813057
 C    2.4657347123    1.1724482019   -1.5673530709
 C    4.0145397427    1.1702443369   -1.4621441860
 C    3.8730645605    1.4299593067    0.0621675635
 C   -0.7096602164    1.4976993692   -0.6254745791
 N   -1.2421301811    1.8685933296   -1.5828861409
 H    1.3392145436    2.6902814156    0.6075539001
 H    1.5843602561    1.4811058095    1.8964794385
 H    2.3767461936   -0.1573218805    0.1694050198
 H    1.9912164609    0.4404490073   -2.2239273716
 H    2.0814964479    2.1646073292   -1.8234733077
 H    4.4338575153    0.1814820262   -1.6670201462
 H    4.5617950249    1.9086441378   -2.0512417203
 H    3.9046619484    2.5001208771    0.2915981203
 H    4.5471950125    0.9070844698    0.7444657906