19

 O    0.0803867129   -0.0148864371    0.1042269167
 C    0.0229584081    1.1829038060   -0.0211622585
 C   -1.2687021753    2.0032034957   -0.2006871547
 C   -0.8246065647    3.2850125137   -0.9016252362
 C   -1.3709191552    3.6466684429   -2.2593884680
 C   -1.7282353906    4.4793051432   -1.0488779402
 C    0.6566870866    3.4444587984   -0.6350070947
 C    1.0966786184    3.3568160017    0.7899102812
 C    1.1853509276    2.1198448709   -0.1005605404
 H   -2.0034669057    1.4206293503   -0.7605179020
 H   -1.7019265293    2.1974230861    0.7891683803
 H   -0.6904044511    4.0740399264   -2.9891623810
 H   -2.1373696768    3.0091399260   -2.6877806483
 H   -2.7387070514    4.4061420225   -0.6599405448
 H   -1.2888194793    5.4677998959   -0.9613014298
 H    1.2462202462    4.0296826908   -1.3323483228
 H    2.0475962821    3.8046219599    1.0554635806
 H    0.3555296485    3.3826214012    1.5818119368
 H    2.1593864388    1.7134171054   -0.3403574442