14

 O   -0.1588789705    1.3255793047    0.0558748585
 N   -0.0060347588   -0.0785555093    0.0600818910
 C   -1.1306188274   -0.6565733729    0.0716286700
 C   -1.5178326958   -2.0791547051   -0.0814326206
 C   -2.9238916300   -2.1318958738    0.6066285799
 O   -3.1733652710   -0.8565640614    1.1851664275
 C   -2.6008749154   -0.2558666529   -0.0095491550
 C   -2.8087997269   -1.6494056781   -0.7948747585
 O   -3.2373517712   -2.0211074900   -2.0302328048
 H    0.7565330378    1.6241202899    0.0499078632
 H   -0.9136379215   -2.9586211012   -0.2499570430
 H   -3.3233490577   -3.0239823149    1.0701948040
 H   -2.9479348390    0.7481695641   -0.2288556697
 H   -4.1921453226   -1.8881594491   -2.0804573626