16

 C    0.1931168134    1.4051571783    0.1686794478
 C   -0.0875562112   -0.1064156148   -0.0238297032
 C   -1.6076747260   -0.3135709971   -0.0971845000
 O   -2.2601017785   -0.7697127431    0.8004626919
 C    0.5350079296   -0.6193984213   -1.2364076349
 C    1.0041222443   -1.0329829854   -2.2677140258
 C    1.5292451826   -1.4859454649   -3.5498596448
 N    2.5322722560   -2.4048061566   -3.4413001912
 O    1.1119367306   -1.0678144246   -4.6120772425
 H    1.2697504090    1.5856784054    0.2039660571
 H   -0.2221044481    1.9853808520   -0.6601121235
 H   -0.2555282616    1.7503866498    1.1037968086
 H    0.2640927150   -0.6579733752    0.8547353715
 H   -2.0643441377    0.0255048732   -1.0522852845
 H    2.7959446512   -2.7929275927   -2.5526402424
 H    2.9011552215   -2.8068554131   -4.2876814442