21

 C   -0.1212564445    1.5663508926   -0.0180526357
 C    0.0553623942    0.0493746492    0.0080399280
 C    0.8790434563   -0.5310703441   -1.1745131777
 C    1.3793359724   -1.8834844871   -0.6669203110
 C    2.5330842073   -1.9525520508    0.3493194473
 C    3.1027424543   -0.6727683481    0.8618491645
 C    2.1552154492    0.0899057953    1.4126909745
 C    0.7794014930   -0.5426009191    1.2592154576
 C    1.0944425911   -1.9899348059    0.8084974815
 H    0.8455957380    2.0801126056   -0.0216179098
 H   -0.6659999680    1.8809157022   -0.9147936726
 H   -0.6868614235    1.9188693406    0.8516425326
 H   -0.9384228708   -0.4181164943   -0.0205606924
 H    0.2678662284   -0.6464656163   -2.0745097411
 H    1.7043607158    0.1431141257   -1.4310072612
 H    1.2626248175   -2.7531048567   -1.3048284973
 H    3.1419996503   -2.8503217579    0.3321380936
 H    4.1508458582   -0.4118395327    0.7687283158
 H    2.3035814086    1.0860461519    1.8130991947
 H    0.1606941394   -0.4697494408    2.1587417511
 H    0.6374661729   -2.8531767195    1.2764234077