16

 O    0.7232317956    0.5283642218   -0.8468770668
 C    0.0073828610   -0.3147291323    0.0060872221
 C    0.1497865306   -0.1492215152    1.5423834892
 C   -1.3976229926   -0.4135689637    1.6914762990
 C   -1.5282193305   -0.1391682132    0.1440180296
 C   -1.6769054898   -1.8738123496    2.0156511964
 O   -2.4045571490   -2.2646596704    2.8842203997
 C   -2.1235183866    0.4900991203    2.5689177888
 N   -2.6762108022    1.2531369348    3.2376316600
 H    0.5324473113    1.4431838907   -0.6113198528
 H    0.2631068713   -1.3306160968   -0.3081076928
 H    0.8209210328   -0.8219208488    2.0804443155
 H    0.3819874695    0.8819058108    1.8197026190
 H   -1.8355995046    0.8951925265   -0.0281799910
 H   -2.1832161452   -0.8039413624   -0.4229888220
 H   -1.1267569418   -2.5784794827    1.3517387863