19

 C   -0.0276612626    1.4994738699   -0.1691375216
 C   -0.0846392572   -0.0167924527   -0.1274777123
 O    0.6602028858   -0.5196338112   -1.2336297257
 C    0.7705253818   -1.8968773566   -1.2650154572
 O   -0.5028158629   -2.5020757306   -1.4952345268
 C   -0.3815058079   -3.6212589747   -2.3643421773
 C    0.9314122074   -3.4338316548   -3.0942618038
 O    1.0450291315   -2.1401164104   -3.6902714255
 C    1.6478986114   -2.3557258962   -2.4135119534
 H    1.0062311317    1.8505852044   -0.1044709324
 H   -0.4583204657    1.8723049438   -1.1025229747
 H   -0.5922354752    1.9222494055    0.6673263495
 H    0.3475355247   -0.4003912754    0.8115562399
 H   -1.1203454937   -0.3734402668   -0.1859933276
 H    1.1789508310   -2.2689589961   -0.3044119375
 H   -0.3626553054   -4.5671353594   -1.8003642863
 H   -1.2484505611   -3.6315646905   -3.0336714415
 H    1.4174544652   -4.2570361427   -3.6101218810
 H    2.7281412715   -2.2641370455   -2.3565248346