11

 O   -0.0433207782    1.2270892581    0.0090555662
 N    1.1808504522    1.8262126213    0.0006079894
 C    2.0265377793    0.8141848598   -0.0129475215
 N    3.3870926107    0.8670840329   -0.0256613825
 C    3.9296789741   -0.3197836814   -0.0372697898
 C    3.1803213574   -1.5632002240   -0.0368419972
 N    1.8774522870   -1.6378777386   -0.0247966304
 C    1.2886627720   -0.4101778736   -0.0125271001
 N   -0.0012043744   -0.1351837273    0.0012994846
 H    5.0161115817   -0.3728087717   -0.0479387578
 H    3.7347152483   -2.4990428856   -0.0472019208