16

 C    0.0707644643    1.4374935720    0.0903726651
 C   -0.0432623585   -0.0869517440   -0.0304551714
 C    0.7542593534   -0.6407942999   -1.2508102502
 N    2.0158549341   -0.9504366962   -0.6137484491
 C    1.8613319860   -1.1571448379    0.7412789160
 O    2.6419833116   -1.6406722700    1.5104178458
 O    0.6300735953   -0.6836772103    1.1091585487
 C   -1.4368836151   -0.5187473481   -0.0405835824
 C   -2.5901508175   -0.8511204330   -0.0777604549
 H    1.1231227482    1.7318034148    0.0492481364
 H   -0.4701739464    1.9243721019   -0.7255602644
 H   -0.3541406818    1.7660406571    1.0407541890
 H    0.2616817691   -1.5234425524   -1.6758424487
 H    0.8556339862    0.1185409633   -2.0310780216
 H    2.7337430729   -1.4815136559   -1.0793508326
 H   -3.6089331618   -1.1518817514   -0.0979286357