25

 C    0.0590634264    1.4811822825    0.2799180565
 C   -0.0222397699   -0.0134510769   -0.0437361109
 C    0.6793463427   -0.4402285081   -1.3543741784
 C    0.0788430864    0.2667080086   -2.5735210351
 O    2.0552640973   -0.0283789216   -1.3266414052
 C    0.5954067843   -1.9764734103   -1.4819769295
 C    1.3113960735   -2.5637350815   -2.6932081927
 O    1.3420327521   -3.9693073451   -2.5391375119
 C    1.9827929731   -4.6197889685   -3.6080075731
 H    1.0931100791    1.8312596704    0.2194280924
 H   -0.5394225132    2.0829621485   -0.4102222426
 H   -0.3124624756    1.6770792023    1.2902815305
 H    0.4357085583   -0.5844446494    0.7766767034
 H   -1.0702302238   -0.3357274256   -0.0822038337
 H    0.1542036855    1.3506716408   -2.4647250979
 H    0.6147819775   -0.0095267568   -3.4846008037
 H   -0.9752751794    0.0000440044   -2.6951361272
 H    2.4702669715   -0.4481089303   -0.5646003000
 H    1.0414853038   -2.4277422212   -0.5855417488
 H   -0.4547027200   -2.2906123653   -1.4924443370
 H    0.7929282828   -2.3000857995   -3.6294866687
 H    2.3322855508   -2.1564404719   -2.7601997670
 H    1.4721391155   -4.4352749790   -4.5672172855
 H    3.0313929608   -4.2980266582   -3.7151210156
 H    1.9628871604   -5.6927109983   -3.4001214281