23

 C   -0.4759183735    1.6550688797   -0.5346679806
 C   -0.4031597866    0.1431667666   -0.2877686875
 C    0.5193081181   -0.5689778046   -1.2752710903
 C    2.0748394985   -0.4243427300   -1.0689620230
 O    2.5849471525    0.4747919940   -0.1121258325
 C    2.1955216266   -1.9496136076   -0.8312206572
 C    1.8808056472   -2.4466845181    0.6095087463
 C    0.4209371910   -2.7816702394    0.1840181007
 C    0.6729795617   -2.1234588970   -1.1942813777
 H    0.5156230770    2.1069979814   -0.4458439429
 H   -0.8552504286    1.8686223306   -1.5402706267
 H   -1.1424086885    2.1436282760    0.1832988301
 H   -0.0784675705   -0.0372570339    0.7455341216
 H   -1.4075813302   -0.2940639726   -0.3611128353
 H    0.2349731517   -0.2577047465   -2.2865390487
 H    2.5631443305   -0.1400436369   -2.0051662860
 H    2.2581421412    0.2165200381    0.7556144007
 H    3.0064605721   -2.4685282143   -1.3442626504
 H    2.4737078239   -3.3072084207    0.9264065178
 H    1.9761692806   -1.6907149700    1.3975802722
 H    0.2582384182   -3.8591686270    0.0963338058
 H   -0.3862145467   -2.3705094324    0.7957835770
 H    0.3319031738   -2.6696817354   -2.0744677032