19

 C   -0.0145305593    1.5486951568    0.0554619088
 C    1.2879940834    0.7976570361   -0.0255551551
 C   -0.0456448554    0.0458964295   -0.0329807525
 C   -0.4805601426   -0.6640143429   -1.2817862727
 N   -0.8851529905    0.1360365474   -2.4463042439
 C    0.3661468313   -0.6303750905   -2.5202187775
 C    1.6743774073    0.1070811792   -2.5129420593
 N    1.6658676922    1.5740537454   -2.4321024114
 C    2.1310374591    0.8081361558   -1.2672515761
 H   -0.2795597051    2.0095460026    1.0004869507
 H   -0.3130356203    2.0870538619   -0.8358645326
 H    1.8656517206    0.7147689429    0.8893133196
 H   -0.2815396405   -0.4955647584    0.8773575222
 H   -1.0229642747   -1.5889369603   -1.0996562885
 H   -1.6169427311   -0.3377071661   -2.9676247437
 H    0.3707457941   -1.5294978756   -3.1323219851
 H    2.4463856388   -0.3594515172   -3.1207762524
 H    2.4544151155    1.9573183579   -2.9449616569
 H    3.2015902673    0.7923952055   -1.0761457438