16

 C    0.0711014555    1.6198979064    0.2355223991
 N   -0.0287221235    0.1951664161    0.0035478600
 C    0.5489426403   -0.5727726528    0.8312916752
 N    0.5412567812   -1.9438608857    0.7410825837
 C   -0.0772749968   -2.7053251218   -0.2355069861
 N    0.0072293555   -4.0368864290   -0.1839833052
 N   -0.6891948931   -4.4128658030   -1.2563402535
 N   -1.2131239689   -3.4494639119   -1.9920510675
 C   -0.8388392093   -2.3334960075   -1.3634004979
 H    0.6555729475    1.8838924387    1.1328028532
 H    0.5359560749    2.1076372050   -0.6296936679
 H   -0.9310656303    2.0521616192    0.3422052872
 H    1.1147276891   -0.2205291282    1.7051659200
 H    1.0300820956   -2.4657376014    1.4496410394
 H   -0.8068997157   -5.3844791716   -1.4894833123
 H   -1.1033847219   -1.3510321624   -1.7066127073