20

 C    0.0522062921    1.5361234676    0.1104411618
 C    0.0080622796    0.0434118232   -0.0110530340
 C    1.0401485448   -0.8401531254   -0.6755078618
 C    0.3284131133   -1.9124652469   -1.4756093185
 N   -0.8909418354   -2.1217864024   -0.6830174367
 C   -0.5787118862   -1.9008916432    0.7459500559
 C    0.7093773343   -1.0390369159    0.7904353217
 C   -1.2834041120   -0.8511898402   -0.0425941582
 C   -2.7006539933   -0.3730805633   -0.0761955312
 H    1.0792188577    1.8855325694    0.2585148308
 H   -0.3364210906    2.0267163817   -0.7903173172
 H   -0.5409916846    1.8906167240    0.9613509128
 H    2.0001623457   -0.4271227611   -0.9627573728
 H    0.0595297182   -1.5879670218   -2.4865960105
 H    0.8931221378   -2.8483176301   -1.5431489644
 H   -0.9286757024   -2.6097197482    1.4862991967
 H    1.4123937051   -0.9495641369    1.6067191865
 H   -2.9000488839    0.3356545111    0.7349457816
 H   -2.9292702178    0.1296503804   -1.0236407614
 H   -3.3854500924   -1.2186849319    0.0292805489