18

 C    0.5108772224    1.3810029097   -0.2457412870
 C   -0.0112466455   -0.0331886639   -0.0412348617
 O   -1.4134778812   -0.0656469109    0.1010732951
 C    0.6073847449   -1.0892556090   -1.0147373422
 C    1.5941320993   -1.5251644810    0.0882809036
 O    2.8264589600   -0.8718752451   -0.0980989603
 C    0.6576532014   -0.8219757417    1.1379703013
 C    1.3055446788   -0.1131479200    2.2214964741
 N    1.8841888012    0.4426735883    3.0552638031
 H    1.6001293680    1.3869643819   -0.3173100101
 H    0.1087736302    1.7925930860   -1.1800555344
 H    0.2060299792    2.0270606636    0.5828946593
 H   -1.7966328527    0.5916815816   -0.4891178938
 H   -0.1220135174   -1.8686542986   -1.2438545034
 H    1.0712660003   -0.7229531532   -1.9322007806
 H    1.7263633155   -2.6018969706    0.2443588293
 H    3.3229008223   -0.9050068417    0.7284395700
 H   -0.0763126068   -1.5299477654    1.5313910476