16

 C    0.0641425620    1.5342788470    0.1910452110
 C    0.0441298482    0.0237102443   -0.0824147353
 C   -1.3510522157   -0.5353018811   -0.0780979323
 C   -2.1133139912   -0.9997589123    1.1802504289
 C   -1.9487882843   -1.9171858260    0.0264091258
 O   -2.9647934918   -1.6045551574   -0.9691183710
 C   -2.3900893865   -0.3517587653   -1.1601988342
 O   -2.6786807950    0.4591321549   -1.9791535224
 H    1.0863220388    1.9218775384    0.1561106285
 H   -0.5302761391    2.0676143554   -0.5561519922
 H   -0.3521558824    1.7611658545    1.1777354869
 H    0.5111843981   -0.1808042517   -1.0532483966
 H    0.6432360860   -0.5043969241    0.6689965012
 H   -1.4653337216   -1.1723326623    2.0355159372
 H   -3.0994986899   -0.6120431300    1.4151053605
 H   -1.5060512457   -2.9021762844   -0.0113296160