17

 O   -0.0934066715    1.4112038576    0.6788799699
 C    0.0271841973    0.1137388181    0.1416766599
 C    0.4773382431   -1.0385152123    1.0962400279
 C   -0.9202761553   -1.6783114341    1.0017666089
 C   -1.9434944239   -1.0631766390    2.0025533336
 C   -2.4764769922   -0.1972251917    0.8555370383
 O   -3.5568395748    0.2615252414    0.6003798438
 C   -1.3466653533   -0.5575705172   -0.0965528038
 O   -1.6916224650   -0.7124235412   -1.4259070658
 H    0.7829049808    1.8063306270    0.7284754716
 H    0.5835407616    0.1133641721   -0.8043196468
 H    1.2729529273   -1.6498415052    0.6634154759
 H    0.7795276039   -0.7161472362    2.0962528222
 H   -1.0148971423   -2.7451073523    0.8100750608
 H   -2.7024071321   -1.7440307128    2.3965369004
 H   -1.4996787101   -0.5080522181    2.8327320031
 H   -2.6498504336   -0.5985928761   -1.4876895897