23

 C   -0.0734078921    1.4089227930   -0.0706341870
 O   -0.0014560263    0.0164435992    0.1094977667
 C   -1.2493571075   -0.6249453106   -0.0336671599
 C   -1.0728081668   -2.1223643279    0.2189869755
 C   -0.5483421568   -2.3930660015    1.6347653625
 C   -2.3906051316   -2.8571804649   -0.0532794804
 C   -2.2513974036   -4.3691693758   -0.2097978866
 C   -3.5488588757   -5.1593783189   -0.2060879592
 O   -1.1775867241   -4.9095642854   -0.3434083794
 H    0.9349041700    1.8096411579    0.0595888656
 H   -0.4329847259    1.6739649927   -1.0780359623
 H   -0.7423686299    1.8836115310    0.6652734991
 H   -1.9812282842   -0.1986296666    0.6775230548
 H   -1.6504623132   -0.4524990141   -1.0485608448
 H   -0.3318546320   -2.4931378125   -0.4980556107
 H   -0.3499259473   -3.4578660967    1.7768453791
 H    0.3770976356   -1.8400967594    1.8079831030
 H   -1.2780580197   -2.0729000199    2.3896255423
 H   -3.1329714999   -2.6491585200    0.7298781288
 H   -2.8513902240   -2.4969286618   -0.9863819353
 H   -4.2817914708   -4.7168729597   -0.8892474723
 H   -3.3545256383   -6.1957700861   -0.4845364746
 H   -3.9927436560   -5.1318923021    0.7961957851