15

 O    0.0201867839    1.2855676496   -0.0253009410
 C    0.0755366666   -0.0891635346    0.1070747694
 C   -0.4691495525   -0.7425540552    1.3444117290
 C   -1.2844641949   -0.7848743467    0.0782696484
 N   -2.4511475239    0.0546158163   -0.2592048584
 C   -2.9381130582   -0.9803666508   -1.2356367148
 C   -1.7254293440   -1.8642796515   -0.8566491587
 O   -1.3196193454   -2.9417513023   -1.1805963389
 H   -0.8842390565    1.4832669549   -0.3299207210
 H    0.9027437460   -0.5654304709   -0.4129743358
 H   -0.0371183597   -1.6835137253    1.6702360598
 H   -0.8250795164   -0.0887930545    2.1345827079
 H   -3.0910992090    0.1518302488    0.5230923896
 H   -3.9086209205   -1.4248625078   -0.9940513454
 H   -2.9510256553   -0.6241821900   -2.2696203001