18

 C   -0.1073472766   -1.2850651169   -0.1213354588
 C   -0.0557027239   -0.0862210777   -0.0375669347
 C   -0.0011993746    1.3580638555    0.0636433461
 C   -0.1478860093    2.0867403748    1.4277326074
 C    0.9504298098    1.3814725898    2.2428945563
 C    2.0837709607    1.8276374856    1.2910859786
 C    2.0706602725    3.3600315012    1.4803976054
 C    0.7390538632    3.2083662101    0.7496579106
 N    1.3406979004    2.0513384638   -0.0556963264
 H   -0.1505463883   -2.3431072380   -0.2026839643
 H   -0.6443603127    1.8080358547   -0.7010906542
 H   -1.1185252638    2.2702745130    1.8893617097
 H    1.0776890990    1.7788349179    3.2529958261
 H    0.8027309294    0.3018237118    2.3010650485
 H    3.0012107307    1.2445701366    1.2441450340
 H    2.0972922902    3.7561389348    2.4978440242
 H    2.7977604932    3.8688847011    0.8444383019
 H    0.2386759002    4.0077242317    0.2014495694