21

 C    0.5793262838    1.5155830642    0.1460274035
 O    0.7780945480    0.1552949385   -0.1832634341
 C    1.2156688889   -0.6166727693    0.8928525775
 C    0.2274032371   -1.2527896814    1.9126349484
 C   -0.8100595278   -1.9629762463    1.0231107972
 C    0.1904108823   -2.7188143774    0.0842314457
 C   -0.0248286236   -2.5578809585   -1.4196331981
 C    1.4884152831   -2.1200085678    0.6768336099
 O    1.2505788470   -2.2774058586    2.1136120408
 H    1.5011320131    1.9720878777    0.5366522451
 H    0.2880440508    2.0323454961   -0.7709090850
 H   -0.2152789944    1.6456230629    0.8950570479
 H    2.0545849815   -0.1464701897    1.4209095786
 H   -0.0949037841   -0.7636435603    2.8318975622
 H   -1.4498113004   -2.6345060976    1.5990378078
 H   -1.4379901783   -1.2513858808    0.4791597838
 H    0.1918220446   -3.7840203673    0.3362932435
 H   -0.0289696761   -1.5064468966   -1.7117332684
 H    0.7648592658   -3.0666361798   -1.9842911303
 H   -0.9789879226   -3.0037498777   -1.7201819570
 H    2.4500454414   -2.5059412105    0.3375044010