18

 O   -0.3953976825    0.5585307678    0.7929393779
 C    0.2210863347    0.8783823677   -0.1930614310
 C    1.3972337125    1.7869083779   -0.1846569000
 N    2.3091654011    1.6440496671   -1.3734875735
 C    1.5478985023    2.8458281509   -1.2174080788
 C    0.6058107131    3.5359282666   -2.2213228026
 C    0.4130604375    4.6316211976   -1.1268130728
 C    1.9437060938    4.3286400956   -1.1241488789
 C    1.8641087727    4.3351057616   -2.6864193241
 H   -0.0550834128    0.5179535270   -1.2088686425
 H    1.8340211899    1.9685836591    0.7944637899
 H    3.2749448428    1.7613828663   -1.0747494526
 H   -0.1573154306    3.0761058690   -2.8474857312
 H    0.1277300736    5.6205439745   -1.4923273285
 H   -0.1490464143    4.3489424466   -0.2339523463
 H    2.7113813825    4.7748807875   -0.4908884671
 H    2.6309280762    3.7744539678   -3.2249891063
 H    1.6696896877    5.3063971194   -3.1479445115