18

 C   -0.0020390042    1.5236585892    0.0040902076
 C    0.0420321750   -0.0018402637   -0.0180761458
 O   -1.2748486939   -0.5585972944    0.0625689915
 C    0.8221099643   -0.5846258816   -1.2289528033
 C    1.3707041392   -1.9517890868   -0.7590885377
 C    1.5504295970   -1.7636421551    0.7337268178
 O    2.1890743789   -0.5206639022    1.0811483455
 C    0.7649344325   -0.6102287887    1.1771505772
 H    1.0076124781    1.9356980789    0.0880874713
 H   -0.4513501264    1.9172856529   -0.9159975541
 H   -0.5971508322    1.8749122708    0.8524463469
 H   -1.8081049608   -0.1517242940   -0.6283021769
 H    0.1707638327   -0.6680090941   -2.1034940844
 H    1.6480329991    0.0811985148   -1.4896488359
 H    0.6408897412   -2.7517610287   -0.9257667644
 H    2.2976254959   -2.2323559011   -1.2682681443
 H    1.7830089087   -2.6006980500    1.3865156326
 H    0.3351151249   -0.5115132962    2.1706052964