16

 O   -0.4921743405    0.5144829676    0.7637110883
 C    0.0163218591    1.0578571601   -0.1804442680
 C    1.2600827128    1.9355741294   -0.0911174797
 N    1.3264086767    2.8514771580   -1.2058607850
 C    1.3897522350    4.0957419487   -0.9501045856
 N    1.3748868613    5.0445616839   -1.9346093893
 C    1.4419490262    4.6367377711   -3.3261208000
 C    1.1420412620    5.7624273458   -4.2109548156
 N    0.9239236881    6.6575551113   -4.9071008354
 H   -0.3813202596    0.9489691160   -1.2139378304
 H    1.2789674017    2.4118818657    0.9018120534
 H    2.1187205496    1.2463891065   -0.1344383114
 H    1.4365964258    4.5211827342    0.0609950488
 H    1.6836743797    5.9743425733   -1.7040911180
 H    2.4237319811    4.2196909171   -3.5946587669
 H    0.7155714210    3.8334358912   -3.4850913252