23

 C   -0.0246644202    1.6056556674    0.1297072817
 C   -0.0331168090    0.0801632918    0.0113991341
 C   -1.4406012054   -0.5190501319   -0.0150585808
 C   -1.4173109068   -2.0346691315   -0.2327786985
 O   -2.0515899927   -0.1741284432    1.2266279684
 C   -3.4660040995   -0.2441443372    1.2293219071
 C   -3.9860898314    0.2816629634    2.4848784978
 C   -4.4365312859    0.7093176845    3.5153735752
 C   -4.9721492627    1.2295362056    4.7645421225
 H    0.9979747212    1.9914362052    0.1815487193
 H   -0.5125353842    2.0723608031   -0.7338176176
 H   -0.5588487322    1.9214724076    1.0288709764
 H    0.4912086768   -0.2334987190   -0.8993272489
 H    0.5084192244   -0.3645200402    0.8556879262
 H   -2.0121211746   -0.0466741781   -0.8342508275
 H   -2.4250179070   -2.4598558895   -0.2526905339
 H   -0.9390260672   -2.2765236838   -1.1873372566
 H   -0.8561566250   -2.5233238008    0.5700604438
 H   -3.8756054184    0.3345629175    0.3829539575
 H   -3.8141386794   -1.2812205380    1.0958399745
 H   -5.6675494020    2.0574380660    4.5876336133
 H   -5.5098238109    0.4557754235    5.3235314681
 H   -4.1687861276    1.6046724376    5.4080731777