17

 C    0.0208912130    1.5567741754    0.1695041800
 C    0.0015585301    0.0358731065   -0.0714739227
 C   -1.3896128873   -0.5331799787   -0.1097215183
 C   -2.0254217887   -0.9785292838   -1.2356996903
 C   -3.3521347874   -1.4591963675   -1.0802690940
 N   -4.0211177012   -1.5153090141    0.0397587199
 C   -3.4109881490   -1.0735951438    1.2030914210
 O   -3.9151292923   -1.0706365450    2.3039495528
 N   -2.0806022686   -0.5923492913    1.0552420455
 H    1.0506967497    1.9228146642    0.1930264911
 H   -0.5133009976    2.0834582875   -0.6261736786
 H   -0.4511209987    1.8205314611    1.1207364393
 H    0.4954110096   -0.1970625830   -1.0184904823
 H    0.5725867895   -0.4693893490    0.7178057860
 H   -1.5370636110   -0.9648534434   -2.1999218330
 H   -3.8778802155   -1.8206868817   -1.9654074540
 H   -1.6571330147   -0.2832641833    1.9200903575