22

 O   -0.0458054343    1.4792850434    0.0041229250
 C    0.0039022236    0.0459704214   -0.0113237586
 C   -1.3819642655   -0.6098685531   -0.0939085183
 C   -2.1468505012   -0.1620000722   -1.3510348737
 O   -2.4763869423    1.2113947884   -1.3447417127
 C   -1.2523377930   -2.1384959067   -0.0503606806
 N   -0.6524554307   -2.5899763505    1.2021964562
 C   -1.5783637235   -2.8977311521    2.2885354932
 C   -0.8729990861   -3.9860936829    1.5573380756
 H   -0.4176674623    1.7494412586    0.8506041324
 H    0.5855324608   -0.2096050773   -0.9050354590
 H    0.5494000742   -0.3353977861    0.8587157100
 H   -1.9701628328   -0.2904204578    0.7794520626
 H   -1.5536921654   -0.4314535390   -2.2442841785
 H   -3.0941656207   -0.7100128766   -1.4228756290
 H   -1.6592247292    1.6791155319   -1.1201438301
 H   -2.2463190905   -2.5934007976   -0.2157145602
 H   -0.6073683818   -2.4816487904   -0.8702054196
 H   -1.2597681400   -2.6034460923    3.2843365198
 H   -2.6445912045   -2.7821539633    2.0976584415
 H   -1.4704196874   -4.5954191002    0.8806561081
 H   -0.0286915473   -4.5002087657    2.0075521658