19

 C   -0.1080482582    1.6150547537   -0.0100562231
 C    0.0394071841    0.1020236808    0.0008534044
 O   -1.2280854713   -0.5262899964   -0.0868031747
 C    1.0959029948   -0.6253023337   -0.8864331203
 C    2.4353573619    0.0983304423   -0.9065180907
 O    2.7098660293    0.7031572240    0.3574718419
 C    2.1097308806    0.0757943083    1.4916041581
 C    0.8276230734   -0.6461180152    1.1042539984
 O    1.2120960780   -1.6588393335    0.1305991805
 H    0.8485622015    2.1232651690    0.1141415383
 H   -0.5492258333    1.9423654232   -0.9603952880
 H   -0.7882498752    1.9234148699    0.7899423250
 H   -1.6721744042   -0.1878553138   -0.8718252551
 H    0.7910555276   -1.0139292490   -1.8632853211
 H    3.2162937988   -0.6320179485   -1.1645827007
 H    2.4553390725    0.9072335088   -1.6463782879
 H    2.7954480707   -0.6605871251    1.9352817569
 H    1.9282047882    0.8709328742    2.2239737559
 H    0.2688978907   -1.0516511391    1.9516826822