17

 C   -0.1801113916    1.4925408417   -0.0587942795
 C    0.0801715985    0.0037770522    0.0824923088
 O    0.9871496922   -0.4735080886   -0.9573399818
 C    2.1223406009   -1.0788101066   -0.2617837314
 C    1.5280359272   -1.8612777521    0.9133671448
 C    2.3281863212   -1.1888245982    2.0501846536
 O    1.1138225735   -0.5411265572    2.6721280046
 C    0.9460204336   -0.4513008324    1.2425615502
 C    2.4450774157   -0.1497116489    0.9124164927
 H    0.7478136978    2.0626775601    0.0371985463
 H   -0.6154637085    1.7059292110   -1.0387864589
 H   -0.8813305968    1.8308035573    0.7111067683
 H   -0.8562865859   -0.5632689111    0.0167158817
 H    2.8212479642   -1.4525779844   -1.0059353179
 H    0.9658483415   -2.7921879242    0.9398339527
 H    3.0628325055   -1.5799907060    2.7502585272
 H    2.9149222809    0.8306859474    0.9402152786