19

 O   -0.0236532985    1.3641933867    0.0585488662
 C    0.0217588372   -0.0136847443    0.0148330326
 C    0.6351412715   -0.9402768974   -1.1325345241
 C   -0.0225605133   -1.8824795313   -0.0933188581
 C    0.6220150199   -1.0040811048    1.0385110039
 C   -0.6160215430   -3.2406671438    0.1757473940
 C   -1.8087179572   -2.8103809127    1.1114991180
 O   -2.0175702892   -1.3791210742    0.9928375435
 C   -1.2226214340   -0.9341577030   -0.0811234075
 H    0.8704206635    1.6981135893    0.1902967480
 H    0.1653180272   -0.8799260225   -2.1175859983
 H    1.7253155841   -0.9517611277   -1.2006043626
 H    1.7129673355   -1.0443197826    1.1052357385
 H    0.1456849070   -1.0352864654    2.0179725547
 H   -0.9896093073   -3.7054370779   -0.7420651665
 H    0.0485422428   -3.9504044440    0.6745710857
 H   -2.7340646263   -3.3333717059    0.8431166378
 H   -1.5888706290   -3.0251689125    2.1626490268
 H   -1.8079785208   -0.8355199961   -1.0045217824