20

 C    0.6017811565    0.1403906423    0.9056198637
 C   -0.4020909457   -0.0504114263   -0.2359994106
 O   -1.0766580075    1.1618685720   -0.5269671021
 C    0.2560779223   -0.6162809061   -1.5004374461
 C   -0.2898523953   -0.2492102876   -2.8135472402
 O    0.8973274072    0.3914857518   -2.3019215116
 C    1.0307534873   -1.8942891833   -1.3390542706
 C    2.0761029777   -2.2833856214   -2.3129290740
 N    2.4542791737   -1.8541373642   -0.9533644555
 H    1.0736870436   -0.8017582176    1.1969686308
 H    1.3925384795    0.8371104424    0.6043358113
 H    0.0884066484    0.5635103350    1.7723850620
 H   -1.1827691230   -0.7536865236    0.0804161651
 H   -0.4235056461    1.7327021264   -0.9531604816
 H   -0.1197831115   -0.9100871695   -3.6603601040
 H   -1.1644599464    0.3923953432   -2.8643446922
 H    0.4716821047   -2.6816801885   -0.8360657244
 H    2.2476250554   -3.3337758211   -2.5288318950
 H    2.2769912642   -1.5993312837   -3.1318446026
 H    2.7737407653   -0.8884750103   -1.0051332025