25

 C   -0.2286500388    1.7670548013    0.0530796756
 C   -0.1636540036    0.2959829381    0.4794000672
 C   -1.3502385538   -0.5133790724   -0.0335243459
 C   -1.4867736287   -0.7825742088   -1.5598610274
 C   -1.9768456104   -2.2186114269   -1.2367494235
 C   -1.4394508609   -2.0588069128    0.2192991935
 C   -0.1267600631   -2.7939002552    0.5215529831
 C   -0.3445635416   -4.2918091568    0.7481919347
 O    0.8786807989   -2.5741858828   -0.4718262460
 H    0.6319498733    2.3286214121    0.4299703730
 H   -0.2342851665    1.8639012331   -1.0381570860
 H   -1.1354905182    2.2527749155    0.4316075888
 H    0.7658586107   -0.1549828177    0.1174264833
 H   -0.1331481618    0.2400621917    1.5764236544
 H   -2.2762414578   -0.0523867064    0.3338059866
 H   -2.1640408642   -0.1402378069   -2.1282812818
 H   -0.5102871273   -0.7861474815   -2.0517324794
 H   -3.0657503120   -2.3084486476   -1.2638225401
 H   -1.5666399698   -3.0345037648   -1.8420820761
 H   -2.1537468618   -2.3380292905    1.0016417430
 H    0.3045162392   -2.3623992496    1.4331035427
 H   -0.8068309844   -4.7593280375   -0.1300682575
 H    0.6120457278   -4.7876366308    0.9346589796
 H   -1.0031009181   -4.4720097372    1.6037311656
 H    0.6099623429   -3.0420355953   -1.2696221076