19

 C    0.2468295146    1.2466870839    0.3813689834
 N   -0.2548695066    0.0612643547   -0.3037374127
 C    0.5827194129   -0.4280772845   -1.3643914401
 C    0.4107604897    0.3075080591   -2.6783025640
 C    1.9478515804   -1.0261843294   -1.0478582231
 C    0.7746167552   -1.9384188339   -1.3867253649
 O    0.1543587019   -2.6431207417   -0.3491580204
 C    0.7813325876   -2.6447919093   -2.6506297791
 N    0.8003569528   -3.2305567929   -3.6479329997
 H    1.2641910654    1.1337137382    0.7945691376
 H    0.2609330946    2.1019629514   -0.3019043949
 H   -0.4317450825    1.4947441093    1.2018718278
 H   -0.4394637413   -0.6854956000    0.3551908294
 H    0.7139804245    1.3534086985   -2.5672050538
 H    1.0172846020   -0.1320760432   -3.4735992644
 H   -0.6387148087    0.2871950570   -2.9835277081
 H    2.7526460836   -0.9389109428   -1.7694425150
 H    2.2548927039   -1.0535327706   -0.0075659964
 H    0.7420836699   -3.3537577637   -0.0679393916