19

 C   -0.0458190422    1.5061056682    0.0719005229
 C   -0.0296288035    0.0208120021   -0.0467982402
 C    0.1107857447   -0.8129850910   -1.1317715695
 N    0.3490210443   -0.4544202698   -2.4797338757
 C    0.0793036999   -2.1785824739   -0.6788636563
 C    0.2276589779   -3.4034577109   -1.5263939040
 C   -0.0795128767   -2.1091597091    0.6848443255
 O   -0.1759949562   -3.0631348498    1.6502854637
 N   -0.1312119212   -0.8066102467    1.0743290215
 H   -0.2213233516    1.9631620287   -0.9074684163
 H   -0.8515333642    1.8552064750    0.7311196534
 H    0.8934175576    1.9270156357    0.4586643313
 H    0.3205711113    0.5491413229   -2.6139620334
 H   -0.3282336338   -0.8727812580   -3.1090680004
 H    1.0116047901   -3.2614540876   -2.2789253545
 H    0.5135352013   -4.2804288283   -0.9317480324
 H   -0.6907029045   -3.6739176815   -2.0665458375
 H   -0.1623194344   -3.9235661691    1.2201665679
 H   -0.2632949889   -0.5049282070    2.0231033739