15

 N    0.0474278085    1.3920808437    0.1017641490
 C    0.0121034639   -0.0071858500    0.0323069693
 C   -1.0364255758   -0.8165124488   -0.2921773958
 O   -0.6290564343   -2.1276953771   -0.3275308704
 C    0.6906519284   -2.1432065470   -0.0248115751
 C    1.3728560335   -3.4738308524    0.0043906882
 O    2.4902883368   -3.4792336325    0.8758068068
 C    1.1411606802   -0.8796131722    0.2078153560
 H    0.6724394095    1.7312602239    0.8213059018
 H   -0.8663516228    1.8063602695    0.2308932725
 H   -2.0730650131   -0.6368361925   -0.5206618541
 H    0.6319693818   -4.2472574337    0.2608415972
 H    1.7735130684   -3.7339665018   -0.9831724065
 H    2.1799032040   -3.1830762180    1.7384128878
 H    2.1537185009   -0.5981324911    0.4515341332