18

 O    0.3754573622    0.3527540884    0.9173488138
 C   -0.1842809272    0.1744586011   -0.3775176328
 C   -1.5254027583   -0.5242450304   -0.3576180338
 C   -1.8818908001   -1.5336044569   -1.4488125885
 C   -1.5920134696   -1.9867633682   -0.0540058580
 C   -0.4821508533   -2.9048610914    0.4868676158
 C   -1.5938779280   -3.4935601804    1.3973585454
 O   -1.6694175614   -4.3417943781    2.2432837276
 N   -2.5231308507   -2.6348147285    0.8499139121
 H   -0.2344853151    0.8869698292    1.4360777229
 H   -0.2646699869    1.1337107714   -0.9123096737
 H    0.5417722336   -0.4369982285   -0.9237236526
 H   -2.3537804989    0.0802307776    0.0096672668
 H   -2.9091556232   -1.5600811440   -1.7974823132
 H   -1.1445787672   -1.7308983387   -2.2213670995
 H   -0.0614760116   -3.6188198242   -0.2232856156
 H    0.3104816782   -2.3883464716    1.0301059478
 H   -3.5037697825   -2.4916401168    1.0411846255