14

 O   -0.0333252639    1.5155052894    0.1295075749
 C   -0.0759160636    0.1311536799    0.0142490436
 C   -0.0485451558   -0.6890638525    1.3232670867
 C   -1.4808657726   -0.2144026748    1.6612708309
 C   -1.4304809313   -0.6587514233    0.1708907548
 O   -0.6200959378   -1.8265904091    0.5604355209
 C   -2.5302814676   -0.8393013851   -0.8174659391
 O   -3.1144613322    0.0894847735   -1.3191060293
 H   -0.3290120537    1.9008998595   -0.7022917996
 H    0.5588637123   -0.2772236579   -0.7797848581
 H    0.7888427494   -0.9054795080    1.9851834778
 H   -2.0487483113   -0.8780862349    2.3134691308
 H   -1.6322982770    0.8456207752    1.8592182471
 H   -2.7632654049   -1.8973915321   -1.0675991012