19

 O   -0.6415149058    0.3511652241    0.1607231814
 C   -0.2394747886    1.4799868850    0.0605936822
 C    1.2329954025    1.8850200055   -0.0264426235
 C    1.4387649247    2.6340696342   -1.3532698499
 C    2.8460538395    3.2330654497   -1.5492272498
 C    3.0644069902    4.5227284264   -0.8084058231
 C    2.7266414614    4.7586500076    0.4668506508
 C    2.1350271615    3.8313709910    1.4256769436
 C    1.5597301552    2.6312009616    1.2430997845
 H   -0.9416031771    2.3457826287    0.0315018430
 H    1.7960507834    0.9427603413   -0.0373042221
 H    1.2299802249    1.9313279054   -2.1680706776
 H    0.6998465586    3.4397339989   -1.4382072733
 H    3.5997219236    2.4931141853   -1.2436603474
 H    3.0108824273    3.4036022971   -2.6180696974
 H    3.5319162694    5.3295196622   -1.3672947202
 H    2.9582954582    5.7403427982    0.8735593047
 H    2.2072350667    4.1642660310    2.4597790984
 H    1.2463796044    2.1023533368    2.1421029856