18

 C   -0.0129668579   -1.1986200314   -0.0186271182
 C    0.0155389725    0.0012697275    0.0324812135
 C    0.0654611943    1.4582498471    0.0771017814
 C    1.4693127817    2.0075590275   -0.0621891385
 C    2.5225212246    1.7060713050   -1.1339873535
 C    3.2088157568    2.6074202981   -0.1068082667
 C    1.9479955471    3.4830197277    0.1519306908
 C    2.0925249452    3.2105779236    1.6438308333
 N    2.5299260414    1.8632390173    1.0759129772
 H   -0.0404756329   -2.2593749784   -0.0532823681
 H   -0.5508596479    1.8732248387   -0.7320118011
 H   -0.3767867350    1.8196342933    1.0145339424
 H    2.8710627042    0.6717280120   -1.1814719823
 H    2.3500396263    2.1275099072   -2.1278289384
 H    4.2525401448    2.9145937200   -0.0271340731
 H    1.6246276006    4.3793097943   -0.3896390818
 H    2.8909973606    3.7285640866    2.1849444441
 H    1.1901934436    3.1604212037    2.2619061289