15

 O   -0.0579807674   -0.0324443966    0.1307712608
 C   -0.0135357626    1.1721723227    0.0472542897
 C    1.2502284435    1.9433890203    0.0183023825
 C    1.2267104864    3.2794479441   -0.0978019308
 C    2.4650196290    4.0967612550   -0.0224554122
 O    2.4487292627    5.2873701996    0.1520482557
 O    3.6428515139    3.4318775300   -0.0952269891
 C    3.6395335419    2.0669270163   -0.5551342171
 C    2.5665214297    1.2272439411    0.1241465591
 H   -0.9355622378    1.7883255340   -0.0190295129
 H    0.3025711724    3.8437370526   -0.1682667653
 H    3.4886848989    2.0663379361   -1.6420717146
 H    4.6437555644    1.6943195510   -0.3469069601
 H    2.8135672521    1.0569329280    1.1799654657
 H    2.4970748629    0.2400512259   -0.3419051714