17

 O    0.1310013618    0.1060779687   -0.7413853287
 C    0.0614357004    1.1605779270   -0.1873722018
 C   -1.0519070396    1.9158908667    0.5503237020
 C   -0.1167806261    3.1671434105    0.6038543687
 C    0.3577778509    3.6188471976    2.0016866683
 C    1.4506251490    2.6186061780    2.4115546106
 C    2.0748998218    2.1314980560    1.0994054775
 O    3.1738111757    1.6677072233    0.9608461275
 C    1.0507998765    2.3447167295   -0.0274671785
 H   -1.9741765575    2.0215924186   -0.0276568516
 H   -1.3093856884    1.4795423787    1.5219087753
 H   -0.4865454521    3.9956455410   -0.0001425568
 H    0.7872457225    4.6240206012    1.9331066216
 H   -0.4672215915    3.6689851563    2.7181792049
 H    2.2164839323    3.0225305420    3.0760674094
 H    1.0276793944    1.7372649719    2.9128951815
 H    1.5461800598    2.6572862729   -0.9476740201