17

 N   -1.4551337452    0.3195820040    0.0782773609
 C   -0.3120442372   -0.1168076082   -0.2614784089
 O    0.0324663756   -1.3906381331   -0.4353211224
 C   -0.7455157615   -2.5299677364   -0.0958195489
 C   -1.7869655487   -2.5920795566    0.9931696472
 C   -2.1883899324   -2.7872348395   -0.4571716355
 N   -3.0115021329   -1.8273835015   -1.1165776990
 C   -3.8341847746   -2.1708391678   -2.1401006029
 O   -3.9752073651   -3.2909951685   -2.5890374880
 H   -1.4385210662    1.3343800848    0.1408621158
 H    0.5656950687    0.5016312570   -0.4718750776
 H   -0.0759479890   -3.3763053030   -0.1935221296
 H   -1.7692307039   -3.4443606451    1.6642822313
 H   -2.0868704889   -1.6569185873    1.4456525942
 H   -2.4131262185   -3.7866180622   -0.8107197313
 H   -2.9203819559   -0.8639126965   -0.8170176560
 H   -4.3849110544   -1.2913338900   -2.5277349294