16

 O   -0.1398152173    1.3877783518    0.0660711516
 N    0.0509209806   -0.0089228834   -0.0125855929
 C   -1.0564060475   -0.6168173981   -0.0697362176
 C   -2.5405674476   -0.3083280336    0.0054433780
 C   -2.9980077033   -0.8724469536   -1.3664007385
 C   -2.6016228569   -2.3234476133   -1.0152824784
 O   -3.5004601964   -2.5990854268    0.0988962769
 C   -2.6587196479   -1.7022407830    0.8187267111
 C   -1.3939177459   -2.0746250067   -0.0087360848
 H    0.7664700981    1.7099001192    0.1196206251
 H   -2.9290448231    0.6403996504    0.3607309970
 H   -4.0733659103   -0.8028795594   -1.5406973889
 H   -2.4499551195   -0.4362745497   -2.2044101423
 H   -2.5948294446   -3.0979673995   -1.7799379613
 H   -2.7540551065   -1.7010811893    1.9018660423
 H   -0.7067022219   -2.8826723449    0.2228690126