15

 N    0.3580104812    1.4197778991   -0.1006225221
 C    0.0933258209    0.0563682094   -0.0611057985
 C   -1.0598449357   -0.6918407864    0.0620415607
 N   -0.7227800781   -2.0091945608    0.1266524183
 N    0.5618774568   -2.1355885460    0.0460585625
 N    1.0850382412   -0.8721932854   -0.0594191903
 C    2.5128132642   -0.7080404276   -0.0585329669
 C    3.0904846504   -0.0068109267   -1.2722616600
 O    2.4525729864    0.6266005706   -2.0735843761
 H    0.9176002309    1.6696275891   -0.9105023016
 H   -0.4917976134    1.9673811842   -0.0797746228
 H   -2.0844057315   -0.3588598787    0.0977203226
 H    2.8454937441   -0.1362528339    0.8226385143
 H    2.9472838526   -1.7086828926    0.0286092342
 H    4.1957848098   -0.0936370143   -1.3503397744