16

 N    0.1036849005    1.3878811084   -0.0699085867
 C    0.0716254340    0.0047132109   -0.0617841885
 C   -1.1219881745   -0.7276466716   -0.0457626545
 N   -1.1596502998   -2.0556394194    0.0167969355
 C    0.0180795514   -2.6786926194    0.0576277458
 N    1.2169931616   -2.0958336177    0.0438938814
 C    1.2531102979   -0.7637990465   -0.0056829453
 C    2.6107596275   -0.1009195335    0.0161214767
 O    2.7772898696    0.8710811519   -1.0223347955
 H    0.9255649229    1.7782503675   -0.5135580476
 H   -0.7569958915    1.8407250959   -0.3399656384
 H   -2.0791859462   -0.2073714551   -0.0810772526
 H    0.0005085483   -3.7638226110    0.1029962312
 H    2.7396026176    0.4602523746    0.9491416528
 H    3.3798414275   -0.8798158852   -0.0269223786
 H    2.7324061829    0.4054495603   -1.8645785056