21

 O    0.2994561276    1.3402908481   -0.2842848636
 C    0.0733057945   -0.0247447663   -0.0278522150
 C    0.6869071659   -0.5748300084    1.3078517848
 C   -0.4806739125   -1.3541500524    1.9500639399
 C   -1.5000233681   -0.3359331793    2.5040434175
 C   -2.1489117928    0.2549669424    1.2112109456
 O   -2.0212925799    1.6739553639    1.0809473547
 C   -1.4101962727   -0.4783609605    0.0693714651
 C   -1.2363671485   -1.8760736656    0.7014774959
 H   -0.3407877696    1.8316130363    0.2487292471
 H    0.5255427754   -0.5562412886   -0.8729477099
 H    1.5441465602   -1.2255878241    1.1107250365
 H    1.0393647786    0.2518777291    1.9315739760
 H   -0.1735280473   -2.1082772468    2.6771905640
 H   -2.2521864455   -0.8234488014    3.1323475260
 H   -1.0247762829    0.4504683589    3.1001107028
 H   -3.2160746513   -0.0034201183    1.1699570258
 H   -2.3714577253    2.0847821675    1.8770871199
 H   -1.9375794301   -0.4280916219   -0.8844638391
 H   -0.6407708270   -2.5515810799    0.0803853846
 H   -2.1841919088   -2.3688098926    0.9419829014