15

 C   -0.0004654854    1.4295434474   -0.0121493458
 O   -0.0214574017    0.0202350010    0.0479089071
 C    0.6157641178   -0.5664898696   -1.0671195680
 C    0.5725323046   -2.0163247367   -0.9655561269
 C    0.5569088226   -3.2273606000   -0.9168271824
 C    0.5356871486   -4.5769526577   -0.8558352939
 C    0.5177329327   -5.7940059384   -0.8028967667
 C    0.4978171412   -7.1454223866   -0.7441632507
 C    0.4802583312   -8.3538317524   -0.6920392530
 H    1.0281869263    1.8229039164   -0.0237166570
 H   -0.5246366222    1.8085594642   -0.9035469219
 H   -0.5101421275    1.7951967279    0.8813990831
 H    0.1281772571   -0.2504361241   -2.0069845651
 H    1.6677396159   -0.2352827391   -1.1351268485
 H    0.4643933389   -9.4145448420   -0.6455557703