17

 C   -0.1736981003    1.4870267815    0.0457336560
 C    0.0167818484   -0.0244768597    0.0280763900
 O    0.6856490499   -0.3422022270   -1.1806830755
 C    0.9250602202   -1.7162727075   -1.3819286263
 C    1.6150881574   -2.4434527942   -0.2285061573
 O    1.9949818295   -3.5852597841   -0.3396983149
 C    1.6740502728   -1.7122300447    1.0807401063
 O    2.2350801734   -0.3890505346    1.0735778007
 C    0.8305270682   -0.5067893998    1.2210604469
 H    0.8001911860    1.9836776594    0.0416726425
 H   -0.7319276029    1.8041289264   -0.8381524098
 H   -0.7253418085    1.7966249084    0.9382238705
 H   -0.9675533862   -0.5264493428    0.0630194455
 H   -0.0152611043   -2.2658796461   -1.5697696932
 H    1.5396570019   -1.8090165344   -2.2811491090
 H    1.9371331430   -2.3261390052    1.9397218149
 H    0.4387456115   -0.2618279255    2.2088043327