16

 N    0.0032016328    0.9414160730   -0.8119363392
 C   -0.1862908211   -0.2166184253   -0.1178096795
 C    1.0570470852   -1.0547165009    0.0032363929
 O    2.1331928767   -0.6902735255   -0.4025593079
 N   -1.2401329932   -0.7067862280    0.4254848409
 C   -2.4811240889    0.0364249855    0.3589026807
 C   -3.2703885191   -0.3701784692   -0.9118217852
 C   -4.5515806823    0.3221841915   -1.0075407383
 N   -5.5571635504    0.8888950999   -1.0636471213
 H    0.9670111705    1.1836158223   -0.9917752633
 H   -0.6622378123    1.6933433521   -0.7618251332
 H    0.8838782957   -2.0216626401    0.5094642478
 H   -3.0836806831   -0.2139836282    1.2367675275
 H   -2.3521006027    1.1303959862    0.3666981112
 H   -2.6780117515   -0.1488944100   -1.8061375548
 H   -3.4387560963   -1.4515676434   -0.8980380482