18

 C   -0.1288377628    1.5284391465    0.0750030490
 C   -0.0277761423    0.0058784287    0.0105303045
 O   -1.2913596396   -0.6120525882    0.1521030268
 C    0.7420871505   -0.5395049431   -1.2341751534
 O    0.8725104584    0.3901798515   -2.2781755522
 C    1.9947648169   -0.8296615573   -0.3384385468
 C    1.1018810132   -0.5797632020    0.8543988400
 N    1.0988031758   -0.8379948130    2.0921093481
 O    2.2922965162   -1.4619317765    2.4956816516
 H    0.8403532204    2.0066338414   -0.0888032938
 H   -0.8205446946    1.8806571833   -0.6936905634
 H   -0.4998993628    1.8306605772    1.0597387818
 H   -1.5443123836   -0.5415269175    1.0795152055
 H    0.2613898365   -1.4685547223   -1.5622894675
 H    1.2844123946   -0.0484904637   -3.0285287292
 H    2.4575367900   -1.8169376264   -0.4035788725
 H    2.7670669738   -0.0625467016   -0.4590324828
 H    2.1365322895   -1.6141782670    3.4341859646