17

 O   -0.1109742579    0.0715676217    0.3974927651
 C   -0.0777644666    1.2163380449    0.0126517285
 C   -1.2327260398    2.1307337795   -0.2678688635
 C   -0.7462487224    3.2917669241   -0.7350623612
 C   -0.7230767769    4.7053895124   -0.1982827696
 C    0.8091876748    4.3841346110    0.0576417122
 C    1.1960749507    3.2483771732    1.0718527999
 C    1.1624254016    2.1260828686   -0.0621511884
 C    0.7445487649    3.2625953986   -1.0157309341
 H   -2.2109661246    1.9543518222    0.1629135138
 H   -0.7878756499    5.4963111594   -0.9529061762
 H   -1.3902781933    4.9338223272    0.6360897929
 H    1.4902801268    5.2355609746    0.0131361126
 H    2.2111028184    3.3936054131    1.4459281093
 H    0.5332241939    3.0879364492    1.9250363886
 H    2.0983509109    1.5860623585   -0.2024113082
 H    1.1040476494    3.3573485319   -2.0399830016