22

 C   -0.5005779134    1.5270825899    0.0233181455
 N    0.9435547300    1.2962961660    0.1644483996
 C    0.0190907064    0.1288629741    0.0296970586
 C   -0.1466607820   -0.6636074483    1.3128196281
 C    0.8783961318   -1.7780861678    1.5540955381
 C    0.6797086203   -3.0109660306    0.6652460089
 C    1.1288753060   -2.8527436200   -0.7921809409
 C    0.4937994180   -1.7704323226   -1.6274803056
 C    0.0476940642   -0.5559925603   -1.2922481183
 H   -0.9880237280    1.9200209599    0.9118875871
 H   -0.8802233243    1.9308525497   -0.9121349625
 H    1.4048865576    1.4619213516   -0.7277272988
 H   -0.0925769801    0.0532153054    2.1385107834
 H   -1.1568898613   -1.0952510411    1.3302950250
 H    1.8930751528   -1.3776813765    1.4297789222
 H    0.7976220204   -2.0892523651    2.6022997650
 H    1.2373299844   -3.8539398622    1.0908530489
 H   -0.3793406579   -3.3010109705    0.6886698677
 H    2.2191566255   -2.6931419969   -0.8092130083
 H    0.9769092832   -3.8100912923   -1.3056339214
 H    0.4519468355   -2.0082949153   -2.6896325885
 H   -0.3051340092    0.0692102727   -2.1123899737