19

 C    0.3418475156    1.3554223494    0.3285144553
 C   -0.2022081656   -0.0051908299   -0.1200673095
 C    0.5504786435   -0.5753022368   -1.3048220544
 C    1.9742266407   -1.1797229754   -1.2291832004
 C    2.0443964346   -2.0738157628   -0.0256979618
 O    2.7759719587   -2.2825840857    0.8867593957
 O    0.8654501025   -2.7488428026   -0.3267623771
 C    0.7612016774   -2.0182837177   -1.5929083933
 C    0.3984349588   -2.8185886902   -2.7973366857
 H    1.3855823570    1.2738623443    0.6479427820
 H    0.2967444446    2.0911335577   -0.4821432938
 H   -0.2373743475    1.7492463793    1.1686963954
 H   -0.1704438029   -0.7177333214    0.7090873460
 H   -1.2586376385    0.0915663579   -0.4012690271
 H    0.4551900231    0.0142455596   -2.2175146564
 H    2.8079326679   -0.8168987848   -1.8129963620
 H   -0.6277350288   -3.1924496208   -2.7161966994
 H    0.4634623845   -2.1994066460   -3.6963993974
 H    1.0675343444   -3.6764635842   -2.9105012760