15

 N   -0.3634948219    1.1640051212   -0.4144868579
 C   -0.1894800343   -0.0127176473   -0.0312447784
 O    0.8864243651   -0.6194441384    0.6066040350
 C    0.2350136376   -1.9209480597    0.5937826090
 C   -0.5968891848   -2.1824853427    1.8683379324
 N   -1.7375033417   -1.5455520807    1.1914849826
 C   -2.8351795412   -0.9586956337    1.7424744919
 O   -3.1498753764   -1.0795620670    2.9055355153
 C   -1.0210859000   -1.2864898506   -0.0647398652
 H    0.4339428783    1.7625273112   -0.1926337646
 H    0.8654900817   -2.6953735670    0.1652685349
 H   -0.7701651994   -3.2385598681    2.0970519458
 H   -0.2487252616   -1.6604550640    2.7633000189
 H   -3.4176055962   -0.3826092124    0.9970600389
 H   -1.5116569253   -1.5857415507   -0.9898270787