18

 C   -0.0836771518    1.5131537392    0.0325288242
 C   -0.0178738465    0.0237367465   -0.0076652462
 C   -0.0758849487   -0.8151339482   -1.0595931589
 C    0.0508078439   -2.1654027424   -0.3700208475
 C    0.1382963205   -3.6917330918   -0.1939935972
 N    0.2522169631   -3.2286507390    1.2735688938
 C    1.0726655348   -2.0096925716    0.7856886652
 C    0.1409896818   -0.8708379098    1.2605962772
 C   -0.7525722691   -2.0948690061    0.9542541276
 H    0.8211344294    1.9417410623    0.4827493601
 H   -0.1957189618    1.9360263251   -0.9696374524
 H   -0.9269277511    1.8601643462    0.6437465422
 H   -0.1838653181   -0.5747232414   -2.1074447714
 H   -0.7584232568   -4.2873625257   -0.3920010789
 H    1.0348366832   -4.2036746396   -0.5576124280
 H    2.1630058839   -2.0460555169    0.7232350808
 H    0.2083568591   -0.3848754645    2.2356011053
 H   -1.8278668957   -2.2322950222    1.0918056739