21

 O   -0.2150118563    0.0292483833   -0.0109696701
 C   -0.0565428949    1.2224220564    0.0163598089
 C    1.2770258149    1.9332449206   -0.0178421354
 C    1.3803455799    2.8055922180   -1.2857557290
 C    2.7833520417    3.4190889709   -1.4063557021
 C    3.2494909964    4.1196407630   -0.1427912602
 C    2.3929132699    5.1463486850    0.5495830721
 C    2.5987172710    3.7898776296    1.1858352675
 C    1.4420856651    2.7929795133    1.2569036697
 H   -0.9332790040    1.9143196532    0.0675598371
 H    2.0551526390    1.1624913638   -0.0517118210
 H    1.1717716949    2.2019707246   -2.1755867331
 H    0.6128979806    3.5905147996   -1.2564153880
 H    3.4902957649    2.6119450760   -1.6386425298
 H    2.8141822865    4.1112074718   -2.2568840282
 H    4.3191799607    4.3069945246   -0.1133334632
 H    2.8795864255    6.0075107994    0.9944665502
 H    1.4103988316    5.3611777975    0.1393474896
 H    3.2581389693    3.7700785794    2.0475071225
 H    0.5014372323    3.3282698795    1.4471591262
 H    1.5879504109    2.1262199206    2.1126104761