17

 O    0.4692607661    0.7514495448   -1.4333038754
 C    0.5599477519    1.7853966792   -0.8439468577
 O    0.9431478391    1.8549738865    0.4458754615
 C    1.0516767208    3.1793288975    1.0125220007
 C    2.3096641085    3.8331851929    0.6931534403
 C    3.3551673922    4.3681733332    0.4193839723
 C    4.6002805971    5.0004299721    0.1047508654
 C    5.0100357163    5.1956517937   -1.3486696954
 C    4.6153708029    6.3848921840   -0.5294194023
 H    0.3320907836    2.7770117340   -1.2817659745
 H    0.2001504419    3.7894170019    0.6831486337
 H    0.9485433594    3.0278743307    2.0902195972
 H    5.4087064040    4.7895348925    0.7983731282
 H    6.0575961312    5.0501122666   -1.5856593189
 H    4.3198414284    4.8433755992   -2.1055246628
 H    3.6550851154    6.8458448004   -0.7265303688
 H    5.3880508711    7.0682333608   -0.1963391536