16

 N   -0.1077586850    1.3366334880    0.1338126751
 C    0.0206031814    0.0270291920   -0.2001804888
 O    1.0526261423   -0.4756659137   -0.6101628582
 C   -1.2586042897   -0.7692507176   -0.0394728592
 O   -2.4066909352   -0.0217366717    0.2649095059
 C   -1.3978144119   -2.0346942724   -0.8243451383
 C   -1.2032517857   -2.1213756958    0.6796454617
 C    0.0476252214   -2.6977746731    1.2466735247
 O    0.0647183140   -3.3076920805    2.2892518039
 H    0.7230253555    1.9046390214    0.1550281350
 H   -0.9472196225    1.6519936047    0.5903135874
 H   -2.7942586346    0.2796719446   -0.5650646543
 H   -2.3807332416   -2.2833022854   -1.2074661786
 H   -0.5515266268   -2.3009740747   -1.4478209248
 H   -2.0885705727   -2.3157178883    1.2750821896
 H    0.9587157711   -2.5428117675    0.6393271887