16

 C   -0.2979600367    1.3924587325   -0.0551234772
 C   -0.2631152324   -0.1181861669   -0.0038650317
 C    0.8837276301   -0.8813633148   -0.5011574357
 O    0.6905459286   -0.6960507877    0.9104180472
 C   -1.5999444462   -0.8117607412    0.0091011610
 N   -1.9735072666   -1.5704688771   -0.9229813254
 O   -2.4546470936   -0.4812253329    1.0566589879
 C   -2.0038581498   -0.4501504550    2.3561715604
 O   -2.7214293578   -0.0970109770    3.2371138729
 H    0.7208221358    1.7848637095   -0.0232346673
 H   -0.7812506790    1.7314944225   -0.9767805805
 H   -0.8546878829    1.8075884211    0.7900555163
 H    0.7307460985   -1.8921236403   -0.8678315765
 H    1.7311260681   -0.3424311102   -0.9200654711
 H   -2.9154917611   -1.9258584150   -0.7429073415
 H   -0.9669132250   -0.7967571873    2.4617185211