18

 C   -0.3128586380    1.5810042875    0.1384023105
 C    0.0058839700    0.0881165309    0.0816475197
 N    1.2496635690   -0.2269990924   -0.7049611712
 C    1.7640783400   -1.1380502726    0.3546357060
 C    0.7310672437   -0.5419779785    1.3045160170
 C    0.8668922797   -0.0283908582    2.6648251902
 O    0.1097016222   -1.2159905000    2.3640971369
 C   -1.1546551010   -0.6974640935   -0.3294183538
 C   -2.0959446474   -1.3468225032   -0.7021062891
 H    0.5784169356    2.1362203160    0.4404952156
 H   -0.6275830482    1.9374693002   -0.8466587889
 H   -1.1244683339    1.7787180310    0.8454693462
 H    1.0531429432   -0.6875973508   -1.5871032389
 H    1.5782108827   -2.2053263011    0.1794260092
 H    2.8214256671   -0.9900199973    0.5953748416
 H    1.7935064803   -0.1922774138    3.2132627512
 H    0.2764794183    0.8271781594    2.9876378705
 H   -2.9300974432   -1.9237232436   -1.0174132525