15

 N   -0.0919121298    1.2884946580    0.1728530133
 C   -0.0425696022    0.0361095003    0.0675600728
 O   -1.1950356928   -0.6832620118    0.1016653609
 C   -1.0576212715   -2.0839961060    0.0714306346
 O   -0.6626225514   -2.5862610268    1.3435736100
 C   -1.6500381458   -3.4144149320    1.8433198350
 N   -1.6077663252   -4.0092802667    2.9554621241
 C   -2.7251083948   -3.4806620098    0.8416004883
 C   -2.3965689055   -2.7160812716   -0.1962020579
 H    0.8444976638    1.6832414936    0.1131054942
 H    0.8541320159   -0.5832622002   -0.0632670643
 H   -0.2793877007   -2.3632709169   -0.6530415668
 H   -0.7509742615   -3.7784404342    3.4606840007
 H   -3.6171405049   -4.0691633880    0.9946797205
 H   -2.9581443434   -2.5167624378   -1.0975128654