18

 N    0.0376268935   -1.1029742248    0.0759686700
 C    0.0180063348    0.0524899118    0.0127156644
 C   -0.0195345939    1.4906904064   -0.0563595826
 C    0.5536638527    2.1216352727   -1.3093192446
 C    1.3329655154    2.2140235929   -0.0156731070
 C    1.3797951782    3.4935322347    0.7338468516
 C    0.2833472751    4.1646770112    1.0894509466
 C   -1.1032124070    3.6660164632    0.7741343039
 C   -1.1767270541    2.1279846257    0.7114480406
 H    0.9204555419    1.4536828456   -2.0796147911
 H    0.0803722323    3.0252057027   -1.6749917202
 H    2.2120981738    1.5833627453    0.0539408244
 H    2.3654166112    3.8784021456    0.9781522103
 H    0.3736867056    5.1097249288    1.6165022951
 H   -1.8145310301    4.0199499341    1.5278707503
 H   -1.4495172367    4.0968860360   -0.1754980271
 H   -2.1296510897    1.8147698372    0.2733278370
 H   -1.1512228932    1.7305350408    1.7322172384