19

 C   -0.0359080788    1.5608817556    0.0679990680
 C    0.0376719300    0.0565766153   -0.0486437615
 C    0.6819106098   -0.6737100401   -1.2102405221
 C    1.6437792136    0.0740499656   -2.1313472425
 C    2.9308503362    0.1520257665   -1.2845732130
 O    2.5078137019    0.1108280383    0.0827779997
 C    1.3490528239   -0.6914547728    0.1574574112
 C    1.4400667990   -1.8525318390    0.9909096708
 C    1.5005190609   -2.8225427410    1.7000037610
 H    0.9312768907    2.0266007146   -0.1304382475
 H   -0.7733334846    1.9756776647   -0.6280160635
 H   -0.3347582841    1.8476471091    1.0811499133
 H   -0.8226336355   -0.4686641314    0.3582908474
 H    0.1936930752   -1.5671051953   -1.5797864919
 H    1.8050518844   -0.4716904102   -3.0644183132
 H    1.2738103134    1.0708768491   -2.3909773432
 H    3.5894110154   -0.7024272648   -1.4990953086
 H    3.5010810014    1.0744827867   -1.4234388727
 H    1.5607928271   -3.6774848606    2.3266214381