17

 C   -0.0481742237    1.5074265744   -0.0357782795
 C   -0.0046906769    0.0010794502    0.0257227653
 N   -1.2946082228   -0.6998779355    0.0858096412
 C   -0.9540640835   -1.5239263892    1.1493944085
 O   -1.5352040739   -2.4222205904    1.6935418151
 C    0.4300862855   -0.8299807304    1.2553609760
 N    1.6014311582   -1.4530130151    0.4997085118
 C    1.0852588381   -2.1775541815   -0.6779225412
 C    1.1422685523   -0.7078060847   -0.7468706431
 H    0.9494659835    1.9268074177    0.1263332146
 H   -0.3959464942    1.8494440209   -1.0178079206
 H   -0.7249681536    1.9075396729    0.7241412918
 H   -2.0185748375   -0.8236474128   -0.6104815621
 H    0.7430616464   -0.4029542039    2.2055930430
 H    1.8722778731   -2.7223376477   -1.1907738341
 H    0.1362472279   -2.7025083071   -0.6283915247
 H    1.8579159210   -0.1752595979   -1.3661790821