19

 O    0.2964050328    0.5792333874    1.0248072511
 C   -0.0836921353    0.3646283716   -0.3299739509
 C   -1.4338696633   -0.3218013110   -0.3029525253
 C   -2.0091052016   -1.0381560404   -1.5710882449
 C   -1.0165758755   -2.2187711800   -1.3011814783
 C   -1.5656177879   -1.8284565892    0.1106582949
 C   -2.9364373377   -1.7583886984   -0.5786931128
 C   -4.3224531470   -1.6378265429   -0.1592747287
 O   -3.8171925098   -2.8151337930   -0.8469193823
 H    1.1303234271    1.0581697270    1.0300292170
 H   -0.1844262507    1.3210905820   -0.8687852175
 H    0.6732916385   -0.2271506570   -0.8616979151
 H   -2.1480881894    0.3351261627    0.2052916338
 H   -2.2726837292   -0.5889616492   -2.5289698862
 H   -1.3224547582   -3.1955338993   -1.6797701646
 H    0.0405145216   -2.0372691633   -1.4936205383
 H   -1.3176242999   -2.2729138794    1.0731962917
 H   -4.5995806106   -1.8003358438    0.8811497209
 H   -5.0239165638   -1.0377793938   -0.7370503446