22

 C   -0.4189573485    1.4702718298   -0.0804031536
 C    0.1424608645    0.0537735174    0.1078005277
 C    0.8944912757   -0.4562419313   -1.0987763340
 N    0.1373493851   -0.8895926201   -2.3161745584
 C    0.9313299443   -1.8753466795   -1.5437097245
 C    2.3054931824   -2.1798581365   -2.1462568522
 C    2.2513735831   -2.7565151510   -3.5687511908
 C    2.9936234675   -0.8270451206   -2.0593452012
 C    2.2341471214    0.1032258586   -1.4799673927
 H    0.3807881400    2.1958660992   -0.2600814201
 H   -1.1001614945    1.5128996761   -0.9362420147
 H   -0.9689627200    1.7951513011    0.8079360058
 H    0.8082955618    0.0347127457    0.9800446502
 H   -0.6788162579   -0.6389532179    0.3329175695
 H   -0.8421259021   -1.0099855494   -2.0570378958
 H    0.3987254266   -2.6531793105   -1.0049169850
 H    2.8277099962   -2.9005994749   -1.4994276002
 H    1.6711356786   -2.0955449609   -4.2171606729
 H    3.2568050898   -2.8646061685   -3.9887996324
 H    1.7805771259   -3.7453025674   -3.5728005150
 H    3.9837342788   -0.6617397867   -2.4717088649
 H    2.5129502214    1.1381241074   -1.3180920449