18

 C    0.2378912758    1.5326589814    0.0477902262
 C   -0.0413293756    0.0562923015   -0.0533872012
 N    0.0571513408   -0.5390241516   -1.1661700668
 C   -0.2284343024   -1.9473697081   -1.4205565563
 C   -1.5019917786   -2.4797230484   -0.7756277999
 O   -1.3908111545   -3.6609825758    0.0324382237
 C   -1.6412735431   -2.4132736706    0.6819897254
 C   -0.4916415494   -1.8036211557    1.4503646912
 O   -0.3850850311   -0.3985497788    1.1962192137
 H    1.0710862279    1.7142939600    0.7342165503
 H    0.4757850813    1.9298757877   -0.9373970095
 H   -0.6341844111    2.0521867131    0.4578128864
 H   -0.3045292726   -2.0625133997   -2.5067776595
 H    0.6120348496   -2.5790836044   -1.1106070626
 H   -2.4062573141   -2.4444012977   -1.3814672192
 H   -2.6327823146   -2.3148639186    1.1216663824
 H   -0.6364771617   -1.8810958522    2.5305291264
 H    0.4398858736   -2.3158152519    1.1930643391