21

 C   -0.2077855011    1.5102072200    0.3601195860
 C    0.2542557194    0.0964774636   -0.0171803175
 C    0.7937013119   -0.6533841863    1.1844356231
 C   -0.0770063539   -1.4808594031    2.0670018332
 C    0.9836531071   -2.1751137823    1.2095145390
 C    0.5596112178   -3.0726101189    0.0672148782
 O    0.2621690867   -4.3886812455    0.5156329047
 C    2.1977076317   -2.6366652308    1.9441295428
 O    2.6297225376   -2.1149333323    2.9458634080
 H    0.6172116597    2.0944496241    0.7811053421
 H   -0.5859016047    2.0465957691   -0.5152929009
 H   -1.0060494147    1.4766227966    1.1085710226
 H   -0.5833734672   -0.4496135354   -0.4642878012
 H    1.0304664816    0.1603473346   -0.7901265894
 H    1.5971755997   -0.1396253258    1.7077136770
 H    0.1060301486   -1.4668484126    3.1355768912
 H   -1.1118488359   -1.6269066474    1.7686459879
 H   -0.2867699436   -2.6352967197   -0.4793670557
 H    1.3794655368   -3.1933099251   -0.6504231024
 H   -0.4190898130   -4.3161436303    1.1929809231
 H    2.7046016255   -3.5161798625    1.4928166481