17

 N   -0.1249196849    1.2946650532   -0.8158660704
 C   -0.0725757477    0.0721268497   -0.4869660458
 N   -1.0727965052   -0.5578216165    0.2728567924
 C   -2.1437311902    0.2505869796    0.7413114262
 N   -3.2579593701   -0.0829472366    1.2322349499
 C   -3.6692000965   -1.4639870935    1.3781705568
 C   -2.6479306332   -2.3706091193    2.0857386192
 N   -1.4934409125   -2.7366462037    1.2931985152
 C   -0.8750145901   -1.9291156838    0.5475681714
 H    0.7009376443    1.5558252900   -1.3494277918
 H    0.7347740142   -0.6194136786   -0.7462917622
 H   -1.9073042914    1.3017198601    0.6066010790
 H   -4.6035666417   -1.4741371785    1.9495458709
 H   -3.8964652498   -1.8930255712    0.3926625230
 H   -2.3181222645   -1.8758501499    3.0086371297
 H   -3.1462194853   -3.2979552370    2.3897252384
 H   -0.0098087954   -2.3079797841    0.0012006182