18

 C    0.0528364405    1.5402667077    0.0764861126
 C   -0.0093005937    0.0127460902   -0.0063918467
 C   -1.4469274059   -0.5328476923   -0.0607109620
 C   -2.2241334398   -0.1509290329   -1.3220197099
 N   -1.4140565570   -1.9994362460    0.0738267361
 N   -0.9048983919   -2.8206965827   -0.8279445191
 N   -1.0509176577   -4.0117749299   -0.3255194787
 N   -1.6448974668   -3.9088800092    0.8757174699
 N   -1.8723712857   -2.6541836797    1.1288857347
 H    1.0887766218    1.8694487373    0.1941617831
 H   -0.3424171096    2.0185655537   -0.8242450057
 H   -0.5140867069    1.9163967956    0.9351593895
 H    0.5365116497   -0.3460614043   -0.8859331991
 H    0.4843283092   -0.4212454482    0.8701747903
 H   -1.9936576003   -0.2069002963    0.8284828733
 H   -3.2243459434   -0.5915269739   -1.3097017782
 H   -2.3316899071    0.9344636993   -1.3755778821
 H   -1.7029964155   -0.4960582581   -2.2187347280