20

 C   -0.2402682405    1.4616688486    0.0680353999
 C    0.0568231841   -0.0404945719    0.0249665097
 C    0.7232169974   -0.4870806182   -1.2747982340
 C    1.0096273204   -2.0117981176   -1.4948720872
 C    0.4518605436   -1.9087574691   -2.9441065881
 O   -0.4675962938   -2.9043059488   -3.3123414287
 C   -0.1068741880   -0.5518796095   -2.5460288925
 N   -1.0659399212    0.1657907105   -2.9566936294
 O   -1.6158358023   -0.3903963624   -4.1446400142
 H    0.6795296098    2.0491086967   -0.0311357782
 H   -0.9109692012    1.7472468743   -0.7469429047
 H   -0.7126549180    1.7404775570    1.0150227570
 H    0.7125197172   -0.3176155155    0.8605551559
 H   -0.8729028203   -0.6069766482    0.1576510773
 H    1.6318223442    0.1050040603   -1.4463388906
 H    2.0409562866   -2.3480884662   -1.3821010002
 H    0.3474577455   -2.6357578106   -0.8900335201
 H    1.2623960371   -1.8042811510   -3.6834893689
 H   -1.0898167998   -2.4869031612   -3.9209703919
 H   -2.3660640407    0.1880226727   -4.3159330911