16

 C   -0.0761956897    1.5321363086    0.1250583577
 C    0.0238510717    0.0195163133   -0.0430293437
 C    0.7338499311   -0.4484473634   -1.2852312907
 N    1.2079474877    0.4310504714   -2.1221637392
 C    1.8603679096    0.0022867002   -3.2636408332
 O    2.3434636596    0.7072669500   -4.1153036275
 N    1.9386009790   -1.4135174126   -3.3919823274
 C    1.4156614438   -2.2423164664   -2.4696731237
 N    0.8067216883   -1.8272321702   -1.4043280482
 H    0.9144906773    1.9917482405    0.1606807665
 H   -0.6127339633    1.9875687050   -0.7108011267
 H   -0.6053934594    1.7736597990    1.0513319537
 H    0.5378015848   -0.4449173817    0.8092055230
 H   -0.9694729268   -0.4489233213   -0.0508927167
 H    2.4093647306   -1.7632444926   -4.2153866157
 H    1.5248281355   -3.3095218998   -2.6544484083