13

 O    0.0042692362    1.3856318002   -0.0234049072
 C   -0.0790502225   -0.0034061355   -0.0441900170
 C   -0.4701680039   -0.7886161621    1.1720613185
 O   -1.3909535651    0.0057833311    1.9354307863
 C   -2.3810361470   -0.0601875939    0.8628755333
 C   -1.3864353058   -0.7753469130   -0.0467957068
 O   -1.7116294259   -1.7843916157   -0.9266533125
 H   -0.2903683172    1.6533057976    0.8582327178
 H    0.6906883117   -0.4653652952   -0.6583141722
 H    0.1058914726   -1.5456754687    1.6911084506
 H   -3.2205726189   -0.6966353701    1.1593377173
 H   -2.7344017157    0.9316273606    0.5608829902
 H   -1.6813726986   -1.4300071252   -1.8222745484