21

 C   -0.1723462882    1.2832662719    0.0418176917
 O   -0.0165828078   -0.1155989698    0.0126595013
 C    0.6661593879   -0.5701892506   -1.1325189403
 C    0.7554943919   -2.0966066837   -1.0738783913
 C   -0.6320843160   -2.7462164193   -1.0848645220
 C    1.6364328571   -2.5950282026   -2.2200140586
 O    1.8761695414   -4.0011648037   -2.0850479018
 C    1.5526319716   -4.8121666485   -3.1089108678
 O    1.7342860786   -5.9916588640   -3.0826931017
 H    0.7992501219    1.8022444533    0.0444135794
 H   -0.7531312149    1.6479858565   -0.8201734923
 H   -0.7083540366    1.5330172517    0.9603778275
 H    0.1340491936   -0.2526556895   -2.0482365354
 H    1.6763745722   -0.1258908519   -1.1760528259
 H    1.2604199410   -2.3545971299   -0.1347062489
 H   -0.5605365619   -3.8308239298   -0.9717232017
 H   -1.2373176320   -2.3509794087   -0.2669525233
 H   -1.1566386287   -2.5341243101   -2.0251996561
 H    1.1644598783   -2.3907120882   -3.1916823844
 H    2.6135816821   -2.0997279797   -2.2064942978
 H    1.1059481285   -4.2658929033   -3.9633703606