23

 C   -0.0942122427    1.5995726688   -0.0925684136
 C    0.0642997801    0.0902306337    0.0161976173
 C    1.0817184843   -0.6358443384   -0.9043095098
 C    1.3855694379   -1.6081291142    0.2668593564
 C    2.8155205352   -2.1195748816    0.4647311368
 C    3.1978489615   -3.0972839954   -0.6225943352
 O    4.1156425147   -2.9591477579   -1.3896787270
 C    0.7766799373   -0.5565935285    1.2553932390
 C    1.7873388471    0.3349711134    1.9732017209
 H    0.8643899970    2.1190256675    0.0041394896
 H   -0.5179687805    1.8722734553   -1.0655534832
 H   -0.7659060461    1.9903448269    0.6801722457
 H   -0.9185270923   -0.3811646180   -0.0993236365
 H    0.7146772918   -1.0606676517   -1.8422000354
 H    1.9445846642   -0.0002578127   -1.1318710654
 H    0.7078244995   -2.4686017886    0.2094484493
 H    3.5453138388   -1.3058234063    0.4714103962
 H    2.8804763079   -2.6518695268    1.4255884402
 H    2.5346972373   -3.9937873180   -0.6819461107
 H    0.0947846475   -0.9826578132    1.9987852712
 H    2.5067657058    0.7926999132    1.2864851459
 H    1.2790042436    1.1465004839    2.5039753490
 H    2.3570163100   -0.2355550514    2.7143964492