23

 C   -0.0595866806    1.4693997425    0.1812055787
 C   -0.0902070996   -0.0535943853    0.0179823757
 C    0.6650603833   -0.5416708366   -1.2116080141
 C    2.2190026149   -0.4283387016   -1.2355366183
 C    2.2664077218   -1.8112658024   -1.9197060434
 C    2.6262671215   -1.9360881950   -3.4175708260
 C    3.7159181692   -2.9075778048   -2.9269085323
 O    3.3072901075   -2.7354292736   -1.5546720482
 C    0.8261866201   -2.0734088353   -1.4313172229
 H    0.9680872887    1.8378692952    0.2707846976
 H   -0.5153425823    1.9688350976   -0.6811955174
 H   -0.6052927891    1.7860098272    1.0754963640
 H    0.3380836716   -0.5290097954    0.9108112647
 H   -1.1321637775   -0.3961661072   -0.0395509620
 H    0.2428634850   -0.0754903076   -2.1101233247
 H    2.6829176932    0.4150424039   -1.7543167225
 H    2.6363775527   -0.4998080150   -0.2251953964
 H    1.8508704613   -2.3797887488   -4.0454733527
 H    2.9892917469   -1.0195363065   -3.8868887109
 H    3.6138642043   -3.9483951057   -3.2570232406
 H    4.7515883694   -2.5852445548   -3.0890143141
 H    0.8494212558   -2.6105253479   -0.4771764414
 H    0.1386723120   -2.5840374829   -2.1115968028