16

 C   -0.0467504854    1.4458810956   -0.0363010403
 N   -0.0112621502   -0.0054991823   -0.0274883735
 C    0.5724326871   -0.6052834113    0.9490499839
 C    1.2359228176    0.0200637362    2.1044914030
 C    1.8085873019   -0.7211948948    3.0571490033
 O    1.8286146476   -2.0874908488    3.0441215692
 C    1.2258946300   -2.7078749994    1.9921768550
 O    1.3133717513   -4.0422220015    2.0950243067
 C    0.6228979026   -2.0592722965    0.9840578924
 H    0.9567569900    1.8981730263   -0.0737670135
 H   -0.5874455251    1.7834077508   -0.9249185540
 H   -0.5628606908    1.8685748967    0.8400580815
 H    1.2731271419    1.0963485627    2.2043380272
 H    2.3148141969   -0.3413252017    3.9348020842
 H    1.7922864283   -4.2519787624    2.9061971076
 H    0.1663066263   -2.6248506795    0.1837262271