20

 C   -0.0828765389    1.5587526351   -0.0381814473
 C    0.0226100314    0.0298210269    0.0483480351
 N    0.6576670398   -0.5413880363   -1.1379296325
 C    1.9628778989   -0.9215247576   -1.3079506923
 O    2.4073696307   -1.2038867597   -2.4055063556
 C    2.8050652763   -1.0444276635   -0.0410788204
 C    2.2759140642   -0.2491803823    1.1570996437
 C    0.7694584864   -0.4676423612    1.2985565912
 O    0.2070162296    0.2102557744    2.4098193784
 H    0.9038020586    2.0267639004   -0.1021804747
 H   -0.6436157321    1.8430861613   -0.9343244838
 H   -0.6009505731    1.9532967540    0.8378216558
 H   -0.9961239360   -0.3734230775    0.1034319799
 H    0.1554851888   -0.4612190069   -2.0116221370
 H    2.8366096291   -2.1146312652    0.2007492237
 H    3.8260985320   -0.7612868737   -0.3059006682
 H    2.7865334992   -0.5648963883    2.0753500035
 H    2.4790278201    0.8204197607    1.0370216142
 H    0.5850099830   -1.5519685861    1.3793787940
 H    0.6688175817   -0.0825150443    3.2014624423