20

 C   -0.1831277841    1.5751656294   -0.0319106762
 C    0.1012472497    0.0715000086    0.0237081780
 N    0.7159331330   -0.4417720243   -1.1857584768
 C    0.0700619944   -0.6490777457   -2.4198752857
 C    0.9000901917   -1.1193080102   -3.3586806738
 C    0.5847590243   -1.4647235420   -4.7753619025
 C    2.2649497980   -1.2531947328   -2.7252639191
 C    2.0547698229   -0.7814678039   -1.2786716291
 O    2.8662693204   -0.7100407599   -0.3805773101
 H    0.7440001662    2.1365873387   -0.1775731280
 H   -0.8655577238    1.8236430226   -0.8512410711
 H   -0.6440745898    1.9077423377    0.9034012492
 H    0.8024593007   -0.1525628059    0.8316725183
 H   -0.8239786052   -0.4849658417    0.2179141696
 H   -0.9864010704   -0.4300114465   -2.5011999719
 H   -0.4708484782   -1.2860339844   -5.0011804946
 H    1.1826060769   -0.8721170046   -5.4802467635
 H    0.8001387282   -2.5188345086   -4.9940661585
 H    2.6491420000   -2.2803346868   -2.7252934140
 H    3.0332018151   -0.6345640595   -3.2049134699