23

 C   -0.2003562801    1.5926891584    0.0775327419
 C    0.0062550441    0.0686582555    0.0151723424
 C   -1.3692186619   -0.6145228128   -0.0662955555
 C    0.8409690008   -0.3324221150   -1.2360933041
 O    2.2467192150   -0.3918628615   -1.0061137990
 C    2.5961220260   -0.8659504811    0.2894283786
 C    1.5012050017   -1.7829391104    0.8997895934
 C    0.7740202800   -0.4489655636    1.2598538745
 C    2.1936337726    0.1869831426    1.3489938111
 H    0.7376121217    2.1406177729   -0.0429621835
 H   -0.8767063577    1.9199749034   -0.7198424789
 H   -0.6454304460    1.8925077415    1.0331937622
 H   -1.8768762846   -0.3675010844   -1.0056844584
 H   -1.2834452973   -1.7047535081   -0.0105462316
 H   -2.0159377750   -0.2856309802    0.7544524453
 H    0.4929030692   -1.3087872082   -1.6032938065
 H    0.6956349608    0.3861447139   -2.0490863393
 H    3.6293665328   -1.2133090147    0.2264182752
 H    1.0057247601   -2.5136924508    0.2567576914
 H    1.8786007659   -2.2902097547    1.7908301718
 H    0.1380012542   -0.4215210175    2.1494866868
 H    2.6576405256   -0.0107504862    2.3194886497
 H    2.3338591422    1.2351244811    1.0811606124