14

 C    0.2538809611    1.6440157878   -0.0911431043
 C    0.0620004079    0.1030801770    0.0695694137
 C    0.9509150547   -0.3503408851    1.2271598293
 O    0.6087821383   -0.2619967278    2.3785477917
 C   -1.4157726967   -0.1457255188    0.3693029255
 O   -2.2501007566   -0.2064563623   -0.4971934957
 C    0.4828067900   -0.5502063017   -1.2464616409
 O    1.6332802627   -0.7894633773   -1.5106462188
 H    1.3003440119    1.8657832250   -0.3168769804
 H   -0.3739337361    2.0132821948   -0.9064498421
 H   -0.0277720058    2.1517216337    0.8352012062
 H    1.9393581468   -0.7488415994    0.9276373523
 H   -1.6629970456   -0.2476765939    1.4435321612
 H   -0.3476240027   -0.7698403822   -1.9447406078