16

 C    0.0072378314    1.5224481318   -0.0288391977
 C    0.0053562831    0.0264103989    0.0080186854
 C   -0.0246748058   -0.8306602579   -1.0513523248
 O   -0.0166966681   -2.1222118912   -0.6508482146
 C    0.0191533057   -2.0959970328    0.7156408331
 C    0.0344953440   -3.3262675768    1.4044843535
 N    0.0484986012   -4.3172853371    2.0060256987
 C    0.0348931545   -0.8058493900    1.1791024802
 C    0.0743051465   -0.3605137216    2.6043961874
 H    0.8992292190    1.9342365113    0.4565623205
 H   -0.0130259428    1.8912843159   -1.0575247595
 H   -0.8628474119    1.9374572057    0.4923593081
 H   -0.0525235596   -0.6733940302   -2.1178627919
 H    0.9639902421    0.2474259673    2.8040145451
 H   -0.7975368094    0.2563777209    2.8498452249
 H    0.0877694301   -1.2151204539    3.2846828315