19

 C   -0.0365510200    1.5269924372    0.0682263915
 C   -0.0044552000    0.0282970188    0.0215636238
 C   -0.9137423135   -0.8597236365    0.8252778180
 C    0.5807936342   -0.9682044927    1.0081318602
 C    1.3017337251   -1.7156765012   -0.1384868714
 C    0.4030703888   -2.2131055972   -1.2239693560
 C    0.7087156301   -0.7270497187   -1.1631396889
 C    1.3703848614   -0.0430087040   -2.2162652849
 C    1.9237848589    0.5552563495   -3.1041876532
 H    0.9418040330    1.9528858715   -0.1769282670
 H   -0.7599055253    1.9319474169   -0.6497334360
 H   -0.3222750920    1.8760868723    1.0655803263
 H   -1.4147396023   -0.3403238623    1.6376401923
 H   -1.5151001384   -1.6536817205    0.3971017389
 H    1.0599083863   -0.7661020002    1.9576027192
 H    2.3396283857   -2.0146353493   -0.0742422691
 H    0.9176020849   -2.7171742032   -2.0357675503
 H   -0.5912227901   -2.6012617862   -1.0357290693
 H    2.4134193133    1.0765584657   -3.8884268241