15

 C   -0.4143846299    1.6039731774   -0.3938842738
 C   -0.0253750155    0.1406617441   -0.0953365180
 C   -1.2058822596   -0.6558008485    0.2491199853
 N   -2.1355055202   -1.2799897195    0.5330690302
 C    0.7273756894   -0.4814183094   -1.2813553755
 C    0.4986646322   -1.8577707450   -1.7664956662
 O   -0.0362839933   -0.7260619619   -2.4562664934
 C    2.0345398691    0.1176282672   -1.5066430509
 N    3.0722955031    0.6053871460   -1.6488398521
 H    0.4846938595    2.1915238868   -0.5952452745
 H   -1.0708494706    1.6493901638   -1.2655114493
 H   -0.9335312897    2.0404202638    0.4614567097
 H    0.6489505383    0.1166312448    0.7698826012
 H    1.3070401496   -2.3755681963   -2.2773330140
 H   -0.2302690223   -2.4763333433   -1.2493397286