21

 C   -0.1154987757    1.5832479732   -0.0738931861
 C    0.0270107330    0.0713043605    0.0199548479
 O    0.6672322668   -0.4455853874   -1.1784358529
 C    1.7723332848   -1.2060234036   -0.7197067516
 O    2.7889261898   -0.3450718760   -0.2301053281
 C    2.3085742916    0.1164943008    1.0531271406
 C    0.9114480737   -0.5145493196    1.1479702856
 C    1.2434228973   -1.9067058540    0.5410705117
 C    0.1107542130   -2.9080008527    0.3432029822
 H    0.8474441259    2.0742141437   -0.2317650715
 H   -0.7598800035    1.8385177734   -0.9199432550
 H   -0.5756029638    1.9852092619    0.8354769869
 H   -0.9792819686   -0.3646846432    0.0855748027
 H    2.1703487064   -1.7903234539   -1.5482686109
 H    2.9725332839   -0.2428893668    1.8505777210
 H    2.3113992587    1.2099476530    1.0709735234
 H    0.4588188900   -0.4938943829    2.1400262754
 H    2.0672656489   -2.3756109369    1.0885062437
 H   -0.6581459885   -2.5316810409   -0.3346574250
 H    0.4982839328   -3.8380415072   -0.0855936564
 H   -0.3632489466   -3.1606254512    1.2976038865