16

 C    0.2468432809    1.4130398981   -0.1354213064
 N   -0.2232739440    0.0498342216    0.0277057878
 C   -0.1366160495   -0.9745791476   -0.9214976837
 O   -0.1830322406   -0.9541986415   -2.1186201171
 C    0.0880524324   -2.0337472537    0.1582852095
 C    1.3005931214   -1.6345014226    0.9718816949
 C    0.0283063369   -0.8522294794    1.1519054561
 C   -0.7898368865   -0.8452025414    2.3802379742
 O   -0.5569514970   -1.5294352697    3.3476540575
 H    1.2941004607    1.5279715331    0.1746051410
 H    0.1632978903    1.6644481707   -1.1952831572
 H   -0.3690507033    2.1108034278    0.4388875791
 H   -0.3988285447   -2.9930802351    0.2623126060
 H    1.5498201477   -2.3061821788    1.7873900454
 H    2.1435940940   -1.1525007418    0.4867455436
 H   -1.6664739387   -0.1635420497    2.3349273093