23

 C   -0.2392200565    1.2804917256   -1.0410052910
 C   -0.0488425037    0.1606851828   -0.0125824346
 C   -1.3554579550   -0.5140869611    0.3595502992
 C   -1.9289391569   -1.5763794338   -0.5463168884
 C   -1.3753478479   -1.9452936182    0.8190702525
 O   -0.1653996953   -2.6243274674    0.9201687792
 C   -0.2911979560   -4.0146403226    0.6939998547
 O   -2.3395729173    0.3174193930    0.9197992519
 C   -2.0494693019    0.7744637859    2.2277105748
 H    0.7107010213    1.7758228381   -1.2635710620
 H   -0.6438172029    0.8874287048   -1.9796012893
 H   -0.9404382545    2.0340088446   -0.6713065484
 H    0.6359577279   -0.6038273917   -0.3893856287
 H    0.4250022528    0.5615383920    0.8923688179
 H   -3.0042055175   -1.5927521368   -0.6815935667
 H   -1.3407816588   -1.8530684983   -1.4149005501
 H   -2.1090162002   -2.2009940398    1.5856119497
 H   -0.9507646340   -4.4866558016    1.4377703710
 H   -0.6918843245   -4.2280769509   -0.3071470005
 H    0.7082108980   -4.4470817451    0.7820155119
 H   -1.8247626911   -0.0588854622    2.9083462503
 H   -1.2044269641    1.4759385045    2.2480708792
 H   -2.9416091020    1.2950300680    2.5843059273