21

 C    0.0379843813    0.9890225627   -0.8247801991
 O   -0.0789421206    0.0407609946    0.2224992790
 C   -1.3189374214   -0.5951053636    0.3064704982
 C   -1.7734267908   -1.5043065512   -0.8224150203
 C   -1.2898255224   -2.1183752662    0.4556051506
 C    0.0316488475   -2.8460433031    0.5243765655
 C   -2.3801062962    0.0960803306    1.1180069225
 C   -1.9504957081    1.2899612777    1.9484149737
 O   -3.5185411321   -0.3251535298    1.1345205821
 H    1.0410591921    1.4151917360   -0.7513492857
 H   -0.0824587245    0.5227895601   -1.8113065603
 H   -0.6991072605    1.7988619738   -0.7358019199
 H   -2.8363805413   -1.5114567673   -1.0332560282
 H   -1.1158708768   -1.5628290349   -1.6834755318
 H   -2.0723469151   -2.4950734294    1.1076154995
 H    0.7885058149   -2.3460899584   -0.0838456629
 H    0.4062100081   -2.8904850497    1.5521910019
 H   -0.0801490658   -3.8739714592    0.1631030701
 H   -1.0372527574    1.0658762644    2.5068019178
 H   -1.7199069400    2.1435440741    1.3014169705
 H   -2.7615209106    1.5638429488    2.6239917367