18

 C   -1.6399259663    0.2738583077    0.6041134628
 C   -0.8791564560    1.0075088131    0.0318260847
 C    0.0316292072    1.9516775866   -0.6091167289
 C    1.4366709701    1.9816190263    0.0180502087
 C    2.4963403449    1.1259314539   -0.6759912915
 C    2.1158554905   -0.2697241185   -0.8648353836
 C    1.7971761116   -1.4149829150   -1.0394918020
 C    1.8739375500    3.2356600459    0.6883637834
 N    1.5513041751    2.0343625599    1.4763749460
 H   -2.3032198115   -0.3986235308    1.0890804007
 H    0.1176485273    1.7148089862   -1.6761229846
 H   -0.4122450924    2.9529713889   -0.5546688343
 H    2.7266435602    1.5721705297   -1.6534743835
 H    3.4134101775    1.1801423794   -0.0792982261
 H    1.5122576213   -2.4281705955   -1.1784917596
 H    2.9241662008    3.5177478304    0.6948984124
 H    1.1839247138    4.0758872573    0.6956826798
 H    0.6277985158    2.1047550946    1.8976880055