20

 N    0.0427810509   -1.1204924915   -0.3200490405
 C    0.0527275350    0.0237082515   -0.1672878128
 C    0.0244717272    1.4764162821    0.0315553841
 O    1.3308745463    1.9813510224   -0.0468135712
 C    1.3840743850    3.3894425016    0.1429867380
 C    2.8242977913    3.8325064242    0.0226384978
 C    3.5122751864    3.7879931714   -1.3699040704
 C    4.1863924030    5.1465053442   -1.0359656575
 C    3.1249405987    5.3571295750    0.0788668573
 H   -0.6325354103    1.9213907059   -0.7345095329
 H   -0.4364501003    1.6859933129    1.0114992981
 H    0.7614517705    3.8950924337   -0.6152665251
 H    0.9747095434    3.6532212412    1.1334942960
 H    3.4234175525    3.2923977148    0.7628930381
 H    4.1552746277    2.9338565113   -1.5896399216
 H    2.7785714650    3.8863927432   -2.1767917657
 H    5.1880356860    5.0110695988   -0.6185607745
 H    4.2412746319    5.8955665136   -1.8288092133
 H    2.2744690221    5.9459616473   -0.2816757199
 H    3.4545385076    5.7746908062    1.0330396461