19

 C    0.1202046094    1.2989776906    0.0638358879
 O   -0.0572018567   -0.1010555839   -0.0623055385
 C    0.6115149424   -0.6516889166   -1.1497799659
 O    2.0507771252   -0.5845729410   -1.0009320266
 C    2.4095346689   -1.9773063770   -0.9780654727
 C    1.5936738477   -2.5691220323   -2.1520239726
 C    0.4141870062   -2.1659682695   -1.2100049965
 C    1.3361314334   -2.5860964634   -0.0230473148
 O    1.3562882550   -3.9859747964    0.1328097756
 H    1.1697997199    1.5525845530    0.2526137665
 H   -0.2136992052    1.8265272181   -0.8424989861
 H   -0.4906718436    1.6235659600    0.9086878680
 H    0.3365853469   -0.1142883455   -2.0708475086
 H    3.4860644751   -2.0855257101   -0.8476564350
 H    1.6828946399   -2.0651403742   -3.1169982549
 H    1.6903422957   -3.6485204910   -2.2485746408
 H   -0.6031470169   -2.5360682286   -1.3184877223
 H    1.1861089412   -2.0594480470    0.9243609172
 H    2.0444775456   -4.2020024251    0.7697745701