21

 C   -0.1788094949    1.5171427916    0.0158981246
 C    0.0697643413    0.0108276419    0.0050976328
 C    1.0595823553   -0.5212705980   -1.0896595726
 C    2.0287384660   -1.2593703002   -0.1451789841
 O    1.1037172128   -1.9335069379    0.7727704201
 C    0.8266306165   -0.5702379201    1.2253746876
 C    2.3134139089   -0.2219918985    0.9680546889
 C    3.2822968533   -0.6818314563    2.0373953903
 O    4.5852873794   -0.6636646839    1.4632229895
 H    0.7535186810    2.0867831380    0.0882485417
 H   -0.6857187354    1.8342608562   -0.9012835509
 H   -0.8139252436    1.8079816206    0.8603056735
 H   -0.8883994816   -0.5118337771   -0.0709971585
 H    0.5835929782   -1.2034511176   -1.7969550529
 H    1.5484048484    0.2808976801   -1.6512040377
 H    2.8016717105   -1.9059063404   -0.5586669269
 H    0.3566597523   -0.5128148244    2.2092345311
 H    2.5548677364    0.7955995765    0.6477725625
 H    3.2243952648   -0.0042556154    2.9050609913
 H    3.0031735805   -1.6892036043    2.3733820520
 H    5.2029565201   -1.0124406407    2.1123271976