17

 C    0.2403499950    1.0945178645    0.1129918209
 O   -0.4581973608   -0.0063493788   -0.4500219127
 C    0.2654910402   -0.6724034672   -1.4266039575
 C    1.4460435495   -1.5401911447   -1.0972641568
 O    1.3329324544   -2.0781419964    0.2200990905
 C    0.1151278124   -2.7725956510   -0.1495292027
 C   -1.0624500376   -2.4826678530    0.7645994308
 O   -2.1469418277   -2.9758464305    0.5960576781
 C    0.1248376315   -2.1586903541   -1.5563445896
 H    1.1672172170    0.7668529222    0.5996436365
 H    0.4815723961    1.8475691696   -0.6505829222
 H   -0.4222722832    1.5432045603    0.8557420997
 H    0.3530004955   -0.1497236713   -2.3819760815
 H    2.4341071411   -1.4864904377   -1.5398569991
 H    0.2909511435   -3.8548759617   -0.1763704038
 H   -0.8302901230   -1.8027924205    1.6100666153
 H   -0.1707678037   -2.6688161497   -2.4619891759