18

 O   -0.1127473542    1.3232920211   -0.0618093507
 N   -0.0176833230   -0.0822080910   -0.1308765367
 C   -1.1554728136   -0.6269443130    0.0568481621
 C   -2.4818512214    0.0434229712    0.3437028381
 C   -3.3899235428   -1.0762334803    0.9107320455
 C   -2.7043233988   -2.4036609220    0.5884928708
 C   -2.3746718745   -2.6848188633   -0.8385818874
 O   -2.9961031586   -1.9196619475   -1.8278539302
 C   -1.2959846533   -2.1030008991    0.0685888145
 H    0.8064951493    1.5906740728   -0.1640902357
 H   -2.3457644978    0.8795753334    1.0341991845
 H   -2.8856772690    0.4573284785   -0.5846380876
 H   -3.4767273035   -0.9815472334    1.9976028750
 H   -4.4014726900   -1.0293157476    0.4981746765
 H   -2.8865772454   -3.2468338105    1.2452981204
 H   -2.2285488741   -3.7325133020   -1.1023601780
 H   -2.3510595919   -1.7468481019   -2.5222618222
 H   -0.4257557074   -2.7067367152    0.2938774112