17

 O    0.0548683443    1.3988581908    0.0167517720
 C   -0.0275995932    0.0209985325   -0.0074746075
 C    0.2654102401   -0.7191557522   -1.3666372658
 C   -0.9312269432   -1.6288733563   -1.0873839003
 C   -0.9207428693   -2.1281656646    0.3476402410
 C    0.3682255716   -2.1091218455    1.1608070300
 C    0.8062244682   -0.6485576489    1.0726032391
 O    1.6249967877   -0.0611894795    1.7370643989
 C   -1.4001049430   -0.7270346065    0.0396376963
 H    0.7344637314    1.6087424004    0.6779003387
 H    0.0508234475   -0.0164183509   -2.1747089353
 H    1.2550831083   -1.1643280337   -1.5228204374
 H   -1.5275779015   -2.1304805089   -1.8398380709
 H   -1.6664233032   -2.8788317621    0.5816462407
 H    0.1932452931   -2.3717515320    2.2090739728
 H    1.1578765929   -2.7721443843    0.7896775113
 H   -2.3674629417   -0.3042386985    0.2731613165