19

 C   -0.1047145258    1.5927406178   -0.1339836123
 C   -0.2713629143    0.0738731083   -0.2407895631
 C    0.7212319142   -0.5495235877   -1.2242741286
 C    2.2007549661   -0.5892988300   -0.7079311314
 C    2.1007638201   -2.1139024454   -0.6118665877
 O    2.7693832241   -2.9759946950   -0.1249743487
 C    0.7317053451   -2.1126066787   -1.3410790163
 C   -0.3433136954   -3.0179687286   -0.7971344637
 O   -1.4724744162   -2.6923734016   -0.5328177896
 H    0.9000213284    1.8707337237    0.2032508056
 H   -0.2724927550    2.0770517453   -1.1026060283
 H   -0.8203674964    2.0155917815    0.5771685841
 H   -0.1426886987   -0.3838410980    0.7490043985
 H   -1.2891057608   -0.1740446496   -0.5513872343
 H    0.6217517013   -0.0637129599   -2.1983900056
 H    2.9545205589   -0.2750836175   -1.4367515432
 H    2.4047011627   -0.0816734504    0.2393979730
 H    0.9184379569   -2.4455351796   -2.3731461756
 H    0.0055618249   -4.0643279046   -0.6518756130