21

 C   -0.2999680110    1.5299463764   -0.0861244631
 C    0.0244547102    0.0546794790    0.0681426089
 C    1.3343091820   -0.6185341468   -0.3266645198
 C    2.6465602004    0.1771196184   -0.3540329149
 C    3.0340570427    0.4665596459    1.1069738479
 C    2.2343963283    1.4421079806    1.9342435528
 C    1.9125715151   -0.0316353056    1.9937988668
 C    0.8595278371   -0.6778042386    1.1045489848
 O    0.3458680020   -1.8894798359    1.5890586312
 H    0.5802372213    2.1406647965   -0.2978160924
 H   -0.9836024125    1.6620986891   -0.9316042273
 H   -0.7933370956    1.9445789485    0.7996621651
 H   -0.8200793969   -0.5780888663   -0.2001189974
 H    1.2638551090   -1.4961008769   -0.9606046965
 H    3.4231658540   -0.4395639707   -0.8168338175
 H    2.5806528425    1.0906770683   -0.9578342282
 H    4.0722821206    0.3172334758    1.3836448254
 H    2.7370852966    1.8596364388    2.8015355275
 H    1.5512121273    2.1326237376    1.4625103460
 H    2.1107700876   -0.5745707752    2.9106873900
 H   -0.3616329006   -1.6825414288    2.2093094106