17

 O   -0.0169513126    1.4852915802   -0.0236562445
 C    0.0864888024    0.0806332650    0.1287844323
 C   -1.2669809175   -0.5695369117    0.0350761883
 C   -2.3359711301   -0.4227038270    1.1367478596
 N   -2.7623966046   -1.8380783127    0.9205129642
 C   -1.6385867553   -2.0744171554   -0.0285404002
 C   -2.0692154179   -1.7566492782   -1.4483089921
 N   -2.4813969082   -2.4161748060   -2.4275086866
 O   -1.8338392351   -0.3900241435   -1.3119282555
 H   -0.4235465640    1.6428696522   -0.8838555653
 H    0.7581850814   -0.3651146539   -0.6210404120
 H    0.5206271794   -0.0970734039    1.1179405468
 H   -1.8901290417   -0.2287239739    2.1193225121
 H   -3.1209604545    0.3138248133    0.9457516716
 H   -2.6974902023   -2.4107850071    1.7526272036
 H   -0.9786879020   -2.9226151725    0.1504521780
 H   -2.6863498176   -1.8155444952   -3.2283114902