17

 C    0.0336955626    1.5221080933   -0.0746505052
 C    0.0942881110    0.0308779709    0.0117749612
 N   -0.8972809653   -0.7985422037    0.7358329649
 C    0.5422175452   -0.8900945175    1.0818355135
 C    1.2413732794   -1.8175622444    0.0470164589
 N    0.2712517255   -2.2343638887   -0.9968054102
 C    0.7796759242   -0.8836478079   -1.0615044474
 C    2.5750320754   -2.4092405543    0.0938652157
 O    3.0449963579   -3.0738721361   -0.8079495679
 H    0.9947217477    1.9374443314   -0.3980112027
 H   -0.7292608200    1.8476774260   -0.7913425389
 H   -0.2086556458    1.9594783015    0.8995530436
 H   -1.3208455526   -0.1875342133    1.4360324828
 H    0.9157180490   -0.6785317933    2.0760603656
 H    0.8246185154   -2.7981312907   -1.6478841248
 H    1.3872779641   -0.5250314628   -1.8841195043
 H    3.1545999263   -2.1986319503    1.0183529252