21

 C   -0.0673185426    1.5175842882   -0.0731843806
 C   -0.0350602272   -0.0151826386    0.0638185585
 C    0.7941566107   -0.4317400589    1.2918510622
 C   -1.4343408750   -0.5078663862    0.2433340665
 N   -2.5095589789   -0.9275209050    0.3226227958
 N    0.5658834277   -0.5873389112   -1.1324987282
 C   -0.0792318985   -0.4261865435   -2.4577041466
 C    0.4283313323   -1.8388907802   -2.8329564369
 C    0.6413387837   -2.0566830239   -1.3159320497
 H    0.9546267995    1.8812280014   -0.2076910026
 H   -0.6648517121    1.8247804964   -0.9350103006
 H   -0.4986293551    1.9755810652    0.8203306522
 H    0.3748641804   -0.0009277106    2.2044044874
 H    0.8126025473   -1.5183737334    1.4060716677
 H    1.8193537782   -0.0754554844    1.1624938954
 H   -1.1772461188   -0.3833361097   -2.4042298714
 H    0.2854898229    0.4243447831   -3.0413791120
 H   -0.2802750772   -2.5004061068   -3.3304255632
 H    1.3647689479   -1.8168652629   -3.3924873795
 H    1.5818257461   -2.5089847391   -0.9872846669
 H   -0.1994058911   -2.5959788798   -0.8548038175