19

 C    0.3730001804    1.5104684405   -0.1426342631
 C   -0.0179419259    0.0317167060    0.0054282675
 C    0.3830533365   -0.8425525925   -1.2079611956
 C    1.7297648755   -1.4447195071   -0.8340642113
 O    2.8635568288   -0.5235988331   -1.0189520891
 C    3.0410813180   -0.3975469880    0.3458002529
 N    3.8864309826    0.2538812379    1.0040855701
 C    1.8576724759   -1.2970855969    0.6991839465
 N    0.6142924781   -0.6819866876    1.1348945941
 H    1.4349798793    1.6403116963   -0.3625897615
 H   -0.1999621687    1.9731739772   -0.9539647392
 H    0.1441534514    2.0606508064    0.7766918789
 H   -1.1044590888   -0.0102912907    0.1489997559
 H   -0.3352099578   -1.6578641592   -1.3403548899
 H    0.4319649270   -0.2790691224   -2.1428433790
 H    1.9559408506   -2.4062392742   -1.2957334000
 H    4.5277477687    0.7633536405    0.3927236028
 H    2.1149116884   -2.1711765184    1.3015022712
 H    0.7370595701   -0.0957847949    1.9529961389