18

 C    0.3507427333    1.6508184981   -0.1556660948
 C    0.1580205452    0.1536179305    0.0545371183
 C    0.6103922267   -0.8220559465   -1.0769715733
 O    1.7695283275   -0.3635641482   -1.7973344488
 C    2.6614027376   -1.1485120329   -0.9719169136
 C    1.5002352201   -1.6202504555   -0.0679603109
 C    1.0977593637   -0.6129602840    0.9848406138
 N    1.4315944845   -0.5643809453    2.2056501165
 O    0.8095878411    0.5158434604    2.8606342880
 H    1.3520054658    1.8567456010   -0.5409770991
 H   -0.3742564129    2.0328817404   -0.8818308086
 H    0.2175188472    2.1873569273    0.7860819787
 H   -0.8798728261   -0.0619911281    0.3432428890
 H   -0.1505297125   -1.2500687823   -1.7332712585
 H    3.1252400286   -1.9561102136   -1.5515375848
 H    3.4417253147   -0.5447958885   -0.4966227300
 H    1.4205375475   -2.6811536553    0.1626731365
 H    1.1462935078    0.4296391626    3.7588720715