19

 C    0.0363843617    1.4751969655   -0.0045072454
 C    0.0296413285   -0.0137957704    0.0047939266
 C    0.0582954168   -0.9174241574   -0.9758618721
 C    0.0341974112   -2.2867868545   -0.2708287388
 C   -1.0725944341   -3.1833778766   -0.8862357026
 O   -2.0722174022   -2.3724969906   -0.1479804791
 C   -0.9918167965   -2.0728492658    0.7974192227
 C   -0.0301324114   -0.8959014261    1.2508285278
 C    1.0937472380   -2.0094814606    0.8848985161
 H    0.8952517483    1.8817849984    0.5450919637
 H    0.0730262739    1.8642695650   -1.0259348197
 H   -0.8622275187    1.8791686322    0.4791323782
 H    0.1019881274   -0.7791260493   -2.0481343954
 H   -1.2337488665   -3.1232900032   -1.9663454707
 H   -1.0935938752   -4.2246210008   -0.5440187946
 H   -1.0272254822   -2.8392869626    1.5823388756
 H   -0.0686104322   -0.4327277762    2.2387407291
 H    1.1992819341   -2.8019737452    1.6305984174
 H    2.0655783791   -1.6095511621    0.5884136614