18

 C    0.1975861448    1.4928515594    0.1216880234
 C   -0.0786695558   -0.0152653156   -0.0003017395
 C   -1.5852879450   -0.3476544134   -0.1265321697
 C   -2.3903669906    0.0618465030    1.0844414131
 C   -3.4323970854   -0.8017890268    1.6540212851
 O   -2.1540179447   -0.6846384726    2.2809099983
 C    0.6318544315   -0.5554900129   -1.2264833159
 O    1.4260216414   -1.4590563470   -1.2324059293
 H    1.2716557836    1.6886608324    0.1931172893
 H   -0.1873592112    2.0388784347   -0.7475897412
 H   -0.2728691405    1.9090189687    1.0159483057
 H    0.3227301787   -0.5455264179    0.8686308070
 H   -2.0025392085    0.1474006939   -1.0144943193
 H   -1.6993154539   -1.4273218627   -0.2737995848
 H   -2.4884085263    1.1353357756    1.2515749987
 H   -4.2648651109   -0.3609796190    2.2007338889
 H   -3.6394153434   -1.7663412626    1.1921046292
 H    0.3498212862   -0.0350420973   -2.1752002588