18

 C   -0.0418830198    1.5161066763   -0.0150759951
 C   -0.0430238980    0.0024418133    0.0422538371
 C   -1.4079912010   -0.7036313110   -0.0072648559
 C   -1.0467543899   -2.1626049272    0.3513397803
 N    0.2994923267   -2.1307644125    0.9813719561
 C    1.4179432273   -1.6660958413    0.1299244336
 C    0.7297430675   -0.7735739786    1.1595063140
 C    0.9462161781   -0.7087575549   -0.9262446510
 O    1.3485555347   -0.4231635685   -2.0209278791
 H    0.9678870480    1.9204668999    0.1042140319
 H   -0.4197425007    1.8602133529   -0.9823863743
 H   -0.6772101996    1.9402792766    0.7699467038
 H   -2.0910988973   -0.2606558000    0.7270653445
 H   -1.8760809969   -0.6182855130   -0.9921313757
 H   -1.7417076699   -2.5965175911    1.0751939742
 H   -1.0187011843   -2.8196403313   -0.5221182715
 H    2.3515222155   -2.2162395773    0.1680635528
 H    1.1285424095   -0.4003121122    2.0948662244