17

 N    0.0103220833    1.4036162439   -0.0465327635
 C    0.0201219514   -0.0581661178   -0.1589464949
 C    0.7042205630   -0.5525015284   -1.3765641293
 N    1.2513280604   -0.9012878761   -2.3338758565
 C    0.6861193603   -0.6548095005    1.0825610901
 C   -0.0159733008   -0.6730796822    2.4674072174
 C   -0.9516175645   -1.8183005117    2.0100077159
 C    0.4931095803   -2.1257715470    1.5464883113
 O    0.9679445816   -1.7012746747    2.8845465207
 H    0.9650071683    1.7525371804   -0.0254874403
 H   -0.4267935579    1.8139373492   -0.8667194576
 H   -1.0217575260   -0.3858889765   -0.2249167575
 H    1.7307426353   -0.3399110783    1.1540601096
 H   -0.2052593044    0.1537191071    3.1503151634
 H   -1.3093797726   -2.4565137980    2.8178382048
 H   -1.7257050774   -1.6179140337    1.2665648088
 H    0.9144993294   -3.0392581058    1.1279247776