23

 C   -0.0529777733    1.2426360267   -1.1902733601
 C   -0.0632404165   -0.1376943957   -0.5264289991
 C   -1.4865649769   -0.6691512800   -0.3399346397
 N   -1.5380628192   -2.0641754310    0.0991708365
 C   -0.8802293579   -2.3575045687    1.3786452445
 C   -1.4301016190   -1.6439356347    2.6247946461
 C   -2.8882152347   -2.5970656573   -0.0023243779
 C   -2.9207342242   -4.0606997085    0.1214851004
 N   -2.9653000146   -5.2102081080    0.2266503354
 H    0.9683062919    1.6183079832   -1.3003810939
 H   -0.5047930871    1.2085615415   -2.1876516068
 H   -0.6132245857    1.9743007514   -0.5975477660
 H    0.5006947571   -0.8557833402   -1.1328230367
 H    0.4474967830   -0.0727477799    0.4409508534
 H   -2.0436728885    0.0093198368    0.3345648067
 H   -2.0014854177   -0.6205214380   -1.3079920408
 H   -0.9351633053   -3.4409975700    1.5269245585
 H    0.1819579956   -2.1234033161    1.2645566310
 H   -0.8715011886   -1.9677109458    3.5084452777
 H   -1.3329757041   -0.5562567113    2.5530969852
 H   -2.4846334678   -1.8775452883    2.8034311827
 H   -3.6012288849   -2.1846522035    0.7366289455
 H   -3.2906950416   -2.3401392726   -0.9889954325