18

 O   -0.1127732928    1.4122173798   -0.2063343789
 C    0.0376714190    0.0153183793    0.0358559984
 C   -1.3782378163   -0.5543748461    0.0368651797
 O   -2.0381840324   -0.2151311861   -1.1674819998
 C   -1.3827844146   -2.0819597827    0.1671669941
 O   -0.7356932462   -2.4981783441    1.3546461419
 C   -2.8227509748   -2.6253396824    0.0570984594
 C   -2.8786480412   -4.0828934849    0.1097391380
 N   -2.9259501270   -5.2366221055    0.1460999360
 H    0.7474378157    1.7842218170   -0.4189340109
 H    0.6189110721   -0.4648850413   -0.7649831688
 H    0.5306302168   -0.1846958216    0.9946057021
 H   -1.9168684820   -0.1269111980    0.9041918352
 H   -1.7864233102    0.6990800629   -1.3533195621
 H   -0.7892328974   -2.5050175061   -0.6502770903
 H   -1.2612149627   -2.2084158860    2.1095554103
 H   -3.4349436510   -2.2161434363    0.8718413557
 H   -3.2648879650   -2.2711527081   -0.8784133300