13

 O   -0.0282250372   -0.0735126875    0.0034881489
 C    0.0272497026    1.1335779219    0.0088943694
 N   -1.1821019680    1.8835050725    0.0288419074
 C   -1.2485751456    3.2274733277    0.0364224172
 C   -0.0892768417    3.9615001296    0.0244991103
 C    1.1207925184    3.1844508430    0.0043391854
 N    1.1932671625    1.8869272225   -0.0030961539
 C   -0.0750214708    5.3779261129    0.0313567804
 C   -0.0336046484    6.5815590208    0.0367881801
 H   -2.0235583387    1.3234516559    0.0373466367
 H   -2.2339438275    3.6780956189    0.0519022362
 H    2.0660738472    3.7271752042   -0.0056814061
 H   -0.0019073828    7.6430252276    0.0416420781