19

 O    0.1425047114    1.3733055858    0.2201917048
 C    0.0891109997   -0.0318414765    0.0452946602
 C   -1.3544162870   -0.5414374583   -0.0058430423
 C   -1.4721807563   -2.0778750881   -0.0250111913
 C   -2.8899954723   -2.4695565210    0.0442294588
 N   -4.0024339623   -2.7727843534    0.1137125186
 N   -0.8826433766   -2.6398640480   -1.2440657017
 C    0.4833612495   -3.1552027490   -1.1244362950
 C   -0.6677526794   -4.0864710775   -1.2481972626
 H   -0.2091296727    1.7852573448   -0.5755971163
 H    0.6401897310   -0.3452433029   -0.8520204668
 H    0.6068209329   -0.4567214835    0.9134616472
 H   -1.8883910261   -0.1559300003    0.8685276927
 H   -1.8565735382   -0.1510381784   -0.8982899306
 H   -0.9897168817   -2.4842079205    0.8839162335
 H    1.1314117581   -2.9563423920   -1.9724953745
 H    0.9708908259   -3.0921172652   -0.1532528791
 H   -0.9541991984   -4.6481939646   -0.3612505342
 H   -0.8813836575   -4.5833266414   -2.1890505214