19

 C   -0.0821621934    1.6316647710   -0.0374395061
 C   -0.2311658590    0.1476251899   -0.2936870885
 C   -0.0207661270   -0.8271906699    0.8340611046
 C   -1.4090998193   -0.5877402323    0.2971879935
 N    1.3028268251    2.0774418050   -0.0073673007
 C    2.0530251611    2.5369784850   -1.0395383772
 C    3.3245512549    2.7520412491   -0.5487502730
 C    3.2382985695    2.3838476662    0.8086399182
 N    2.0143722947    1.9731997462    1.1337140853
 H   -0.5993356278    2.2131123736   -0.8079733630
 H   -0.5188862979    1.8928992827    0.9302708177
 H    0.0964161365   -0.1698320007   -1.2798616015
 H    0.4631213706   -1.7705012456    0.6081578172
 H    0.2354966015   -0.4155049794    1.8035329523
 H   -2.1026256845   -0.0232338374    0.9123756340
 H   -1.8782131571   -1.3633781322   -0.2975598375
 H    1.6284383503    2.6782138905   -2.0212984881
 H    4.1778782289    3.1295161648   -1.0881616277
 H    4.0103167529    2.4100882036    1.5638807606