17

 C   -0.0220416479    1.4031971359   -0.0307673381
 C    0.0047114398   -0.0479172802   -0.0082572583
 C    0.0064501631   -1.2552225697    0.0124391871
 C    0.0476650214   -2.6907611953    0.0445315723
 O   -0.9479451887   -3.3871754355    0.1435952621
 C    1.4156747089   -3.3531555515   -0.0754799761
 O    1.2891544148   -4.7408952130    0.1161239611
 C    2.0476591405   -3.0974557815   -1.4606979910
 O    3.2404712849   -3.8338903844   -1.5855934076
 H    0.9847163161    1.8216664710   -0.1267099145
 H   -0.6252482452    1.7645657044   -0.8705366110
 H   -0.4687291494    1.7933975309    0.8901070097
 H    2.0848857185   -2.9352621339    0.6906222075
 H    0.3318830726   -4.9101719789    0.1340758186
 H    1.3153043304   -3.3724791958   -2.2379100703
 H    2.2957413274   -2.0389000093   -1.5815639873
 H    3.0184413229   -4.7331934932   -1.3111097443