17

 O    0.0313727108    0.0520578920   -0.5787842055
 C    0.0108502127    1.1805782101   -0.1437053467
 C   -1.3116279754    1.8905555406    0.1457098885
 C   -1.2305416322    3.1555889244    1.0197895787
 C   -0.1018803973    4.0783896654    0.5718651119
 O   -0.2741376167    5.2545338881    0.3443852266
 C    1.2362234660    3.4370299437    0.4071192797
 C    1.6869106441    2.4141348151    1.4247617643
 C    1.2834374046    1.9488841641    0.0477517314
 H   -1.7034916889    2.1664166822   -0.8432546438
 H   -2.0122307919    1.1566569111    0.5525927942
 H   -2.1624635250    3.7227859430    0.9795148740
 H   -1.0662576653    2.8800076616    2.0688636176
 H    1.9876021919    4.0862891068   -0.0268013475
 H    2.7444983951    2.3812831248    1.6579847926
 H    1.0394417158    2.1963076851    2.2653964173
 H    2.0870591617    1.6109548318   -0.5966990932