21

 C   -0.8171982926    1.1192505962   -0.0722477343
 C    0.0240635204   -0.1527132195   -0.0842997278
 C    1.0828723695   -0.2264671145   -1.2204904417
 O    1.6446278928    1.0346875999   -1.5987628919
 C    2.1273453632   -1.1516482337   -0.6398875053
 C    1.9873309536   -1.2795169255    0.6778027101
 C    0.7943560106   -0.5090957634    1.2208377920
 C    1.2421266051    0.6899036411    2.0677758946
 O   -0.0755457053   -1.3395388801    1.9985404192
 H   -0.1986514654    2.0172070581   -0.0025356091
 H   -1.3977872336    1.2005148723   -0.9966544133
 H   -1.5213271133    1.1097234454    0.7654299461
 H   -0.6410556110   -1.0107969190   -0.2325999340
 H    0.6367859581   -0.6052276260   -2.1460471843
 H    2.2876819427    1.2790911189   -0.9248165817
 H    2.9174995359   -1.5852106824   -1.2433372588
 H    2.6385151764   -1.8500189781    1.3340810439
 H    1.8404301927    1.3983849780    1.4870054004
 H    0.3737259069    1.2185495002    2.4703176401
 H    1.8607411506    0.3543108139    2.9095442671
 H    0.3410307727   -1.4915802916    2.8538164586