19

 C    0.1575524233    1.5373386668    0.2175026863
 C   -0.0190467678    0.0345981057   -0.0204573280
 C    0.6673584709   -0.4599997981   -1.3069996009
 O    2.0472654574   -0.1228824078   -1.2874345056
 C    2.8405812877   -1.2420990648   -1.6733654318
 C    1.8857891816   -2.4027521835   -1.6901553641
 C    0.6493908622   -1.9686874088   -1.4750233231
 C   -0.0166546867    0.1493830640   -2.5430424521
 O    0.5554263978    0.7051886059   -3.4396510555
 H    1.2186277002    1.7933044842    0.2632224154
 H   -0.2933597896    2.1301485358   -0.5856922301
 H   -0.3127889377    1.8378207306    1.1581315510
 H    0.4008171896   -0.5344201903    0.8157955749
 H   -1.0849445167   -0.2224712619   -0.0729702826
 H    3.2960514521   -1.0709880192   -2.6611627069
 H    3.6585071561   -1.3690812985   -0.9501914163
 H    2.1937461091   -3.4259491405   -1.8641205801
 H   -0.2590363896   -2.5558823450   -1.4438267863
 H   -1.1239536601    0.0034187954   -2.5552121942