13

 N   -0.0479808093    1.3203560321   -0.2797453990
 C    0.0117979987    0.0741732269   -0.0597925294
 N    1.2224385938   -0.6533204143   -0.0325733403
 C    1.5332854956   -1.3710171986    0.9687292926
 N    0.7772555517   -1.6666637875    2.0935014826
 C   -0.6097338602   -1.7166904941    2.2387136315
 O   -1.1084321503   -2.0976952187    3.2727751045
 C   -1.4539772229   -1.3970416664    1.0347319633
 N   -1.2003263736   -0.6433233471    0.0483233105
 H    0.8986084979    1.6946600656   -0.3646182907
 H    2.5255214493   -1.8212019650    1.0006399557
 H    1.2623165547   -2.0743416370    2.8840126828
 H   -2.4257521955   -1.8906825460    1.0818970559