14

 C    0.0788846175    1.4669371699    0.2418330174
 O    1.0102853512    2.1892619846   -0.6226617363
 C    2.0039080875    1.4399737842   -1.0681517231
 C    2.0651909119    0.0724201743   -1.1384896762
 C    3.3194736632   -0.1314610366   -1.7651295646
 N    3.9450311887    0.9900165007   -2.0405078536
 O    3.0711360103    2.0233321852   -1.5836787808
 C    0.9022286733   -0.6778774140   -0.7113643358
 C   -0.0743528316    0.0019729688   -0.0957488932
 H    0.4315073256    1.6015522012    1.2765647026
 H   -0.8652519297    2.0063805772    0.1395265750
 H    3.8028115437   -1.0618467534   -2.0318009288
 H    0.8106482399   -1.7353129090   -0.9321954501
 H   -0.9969796415   -0.4718048830    0.2193719675