17

 C   -0.0063281450    1.6304384188    0.0332175068
 C   -0.0770901063    0.1317183632    0.0503090395
 C   -1.2107458181   -0.8217663685    0.6532250837
 C   -0.8497838576   -1.7933883376   -0.4256838330
 C   -0.0930084480   -1.8538589952    0.9101869459
 C    0.8907963258   -0.7256077879    0.8868743162
 O    1.9146689369   -0.4860887679    1.4636985604
 C   -0.1988081092   -0.7010531545   -1.2775682666
 O   -1.0525744784   -0.1455242258   -2.2456496037
 H    0.9869111491    1.9506948325   -0.2982776427
 H   -0.7428274543    2.0533698690   -0.6567857601
 H   -0.1733366518    2.0505554885    1.0294870605
 H   -2.0853087787   -0.6434860258    1.2599747752
 H   -1.4010263258   -2.6611456251   -0.7686859897
 H   -0.1281864713   -2.7303922775    1.5430631181
 H    0.7365247436   -0.9301818257   -1.7983481858
 H   -1.9176602909   -0.0128231806   -1.8384433348