17

 C   -0.0554075015    1.4339082984   -0.0239956652
 C    0.0430529365   -0.0740698415    0.0165796790
 O    0.0552446105   -0.6848761729    1.0779225050
 C    0.0899596514   -0.7820465508   -1.2801767454
 C    0.8508659576   -2.1003969969   -1.3750132408
 C   -0.6399543566   -2.1777589180   -1.3299514075
 O   -1.2885263224   -2.6403941125   -0.2013415487
 C   -1.3579938043   -2.4568529861   -2.5452070917
 C   -1.9393260355   -2.6839018010   -3.5719809882
 H    0.8077407205    1.8568884014   -0.5502250345
 H   -0.9480949398    1.7356214255   -0.5837370096
 H   -0.1029800087    1.8320789958    0.9898660308
 H    0.0284150575   -0.1758331607   -2.1755526729
 H    1.3607826254   -2.3044546380   -2.3087290054
 H    1.3672260261   -2.4091088445   -0.4717025222
 H   -0.8501213800   -2.2238144436    0.5644043236
 H   -2.4609376367   -2.8933390244   -4.4729958663