18

 O    0.0265375378   -0.0944489444   -0.0059133989
 C    0.0082337570    1.1260788510    0.0190026270
 N   -1.1874065841    1.7899111618    0.0773734597
 C   -1.5043594581    3.2153453669    0.1023686293
 C   -0.8587465001    4.0362776417   -0.9894577445
 C    0.4358941754    4.0264207850   -1.3088804146
 C    1.5229527992    3.2415802991   -0.6789700165
 C    1.6402694118    3.0837987207    0.8202403882
 C    1.3061265803    1.8770459089   -0.0209557249
 H   -1.9644861483    1.1468358850    0.0980936565
 H   -2.5898252664    3.2813897687   -0.0058308527
 H   -1.2842015410    3.6478370199    1.0900005770
 H   -1.5234261089    4.6916710277   -1.5442280576
 H    0.7586027929    4.6662213598   -2.1267506229
 H    2.4685222351    3.3133445675   -1.2057600807
 H    2.6292472523    3.1208296401    1.2626013532
 H    0.8655419639    3.5218941279    1.4362898466
 H    2.1108677512    1.1668584328   -0.1669856343