23

 C   -0.0850927208    1.4224226229    0.1203605228
 C   -0.0064455698   -0.0697205393    0.4681579706
 C   -1.3590254076   -0.7341762544    0.3839834030
 O   -1.8936626658   -0.9822082538   -0.9283907006
 C   -1.6246298294   -2.1086897212   -0.0785077229
 C   -0.5435871272   -3.0628454450   -0.5290412933
 C   -2.8929870514   -2.7827241634    0.4108545574
 O   -2.5786434793   -3.5637500665    1.5443065081
 C   -3.6797226787   -4.2937356939    2.0303329055
 H    0.8990517697    1.8951581311    0.1885546984
 H   -0.4604982109    1.5592634339   -0.8981257215
 H   -0.7596794309    1.9538757798    0.8005354408
 H    0.6996809328   -0.5660345310   -0.2029678359
 H    0.3770500001   -0.1978593100    1.4887916770
 H   -2.0964277767   -0.3092042131    1.0712060402
 H    0.3556500200   -2.5413479832   -0.8583453929
 H   -0.2869297675   -3.7423759195    0.2881422896
 H   -0.9089451025   -3.6672269984   -1.3670952818
 H   -3.6491369469   -2.0184088544    0.6493328493
 H   -3.3082474523   -3.4168717990   -0.3923124299
 H   -3.3367023964   -4.8675317818    2.8946632607
 H   -4.5016745673   -3.6320398946    2.3464176031
 H   -4.0739431312   -4.9901333454    1.2732901824