18

 C    0.0420594996    1.5658676286   -0.4183226807
 C   -0.0274129841    0.0959919196   -0.0636678499
 C    1.1450791347   -0.7626984999   -0.2862277683
 O    0.8168072198   -0.3015532980    1.0282605293
 C   -1.4165526840   -0.5001478561   -0.0517296966
 C   -1.6293670543   -1.9150758873    0.5291321355
 O   -2.6335321455   -1.4345972380    1.4460266051
 C   -2.3709885209   -0.0646746513    1.0889282034
 H    1.0709662926    1.9280996131   -0.3580728254
 H   -0.3324881569    1.7393893540   -1.4328796889
 H   -0.5680147218    2.1600836622    0.2706017293
 H    1.0172501603   -1.8321526397   -0.4500676497
 H    2.0503311610   -0.3370886469   -0.7173669916
 H   -1.8691846178   -0.3761984053   -1.0398217934
 H   -2.0269952966   -2.6729686863   -0.1552181480
 H   -0.7573672259   -2.3151181210    1.0599895084
 H   -1.8764162314    0.4820769201    1.9029546730
 H   -3.2833792688    0.4678794921    0.7972401484