21

 C    0.0033187145    1.4788325717    0.1098031669
 C    0.0121484717   -0.0058799041    0.0063996839
 C   -0.0199253745   -0.8476292226   -1.0350528075
 C   -0.0774716428   -0.6254523609   -2.5059527265
 C    0.0236316797   -2.2283804172   -0.3194935360
 C    0.1974376745   -3.4987764983   -1.1030253642
 C   -1.0425509051   -2.0152854028    0.8033093803
 C    0.0690877691   -1.0014582443    1.1862612106
 O    1.0497195432   -1.9797155684    0.7113008782
 H    0.9040119260    1.8497802480    0.6160617184
 H   -0.0460636967    1.9529817616   -0.8748856144
 H   -0.8532645740    1.8376456380    0.6954704621
 H   -0.0885558397    0.4407083283   -2.7506439278
 H    0.7831061696   -1.0763437226   -3.0168814085
 H   -0.9742041396   -1.0774361668   -2.9503367078
 H    1.1294694956   -3.4739888789   -1.6770775440
 H    0.2299780974   -4.3630578868   -0.4345309618
 H   -0.6318940826   -3.6345041880   -1.8049765088
 H   -2.0303356370   -1.6379790292    0.5281589997
 H   -1.1019497893   -2.8636100805    1.4911994206
 H    0.2439317600   -0.6370625964    2.1987424266