13

 O   -0.0176788976    0.3790482621    1.1878166565
 C   -0.0150178067    1.2476758408    0.3430965151
 C   -1.2837856161    1.8005283072   -0.1463356265
 C   -1.5915453332    2.7419037586   -1.0502398365
 O   -0.8192840049    3.5202896515   -1.8366113495
 C    0.5292890268    3.5130330706   -1.8807740462
 C    1.4414499021    2.7914022917   -1.2135724464
 C    1.3472554420    1.7430913592   -0.1902771169
 O    2.3547308828    1.2419478617    0.2590794869
 H   -2.1423801968    1.3408720832    0.3333241441
 H   -2.6295122237    2.9854902831   -1.2477319855
 H    0.8480236293    4.2499009746   -2.6095722037
 H    2.4708468361    3.0182076258   -1.4732711014