20

 C    0.3450287859    1.0886756453   -0.2636637175
 N   -0.2154282057   -0.1127655338    0.3184444256
 C    0.5524982821   -0.8354226362    1.0011086833
 O    0.0891491749   -1.9681984051    1.5834748622
 C    1.0378106250   -2.7041713981    2.3133672829
 C    0.6960350529   -4.1430088996    2.5768781066
 C    1.8379862123   -3.7846072626    1.6405921924
 C    1.7044696279   -4.0370173692    0.1579397785
 O    3.1416291298   -3.8905392509    2.1512968094
 H    1.4132806409    1.2413898446   -0.0381437099
 H    0.2244798060    1.0602536661   -1.3526737013
 H   -0.2101313625    1.9633903905    0.0939320980
 H    1.6175806204   -0.6329734208    1.1905592526
 H    1.5365756512   -2.1475955158    3.1031169306
 H    0.9400430834   -4.5401132448    3.5554490585
 H   -0.2212541973   -4.5141561215    2.1332463348
 H    0.6898801505   -3.8279894431   -0.1883579555
 H    2.4007422479   -3.4022452857   -0.3994793443
 H    1.9365459814   -5.0823123880   -0.0780437407
 H    3.3873746028   -4.8227041812    2.1457039837