15

 O    0.1108582996    1.3763676043   -0.1619550089
 C    0.0376453756   -0.0411115917   -0.0090577085
 C    0.7439122164   -0.5089148953    1.2477842966
 C    0.0964176379   -0.6341436387    2.4083986310
 C   -1.3525811560   -0.3139699109    2.5222074951
 O   -1.7563809659    0.9707171525    2.0068363476
 C   -2.1671420584   -0.1985083504    1.2848996614
 C   -1.4334568695   -0.4864936558    0.0042736500
 O   -1.9646942192   -1.0636837746   -0.9129347504
 H   -0.2945533638    1.7516480625    0.6325519490
 H    0.4978816960   -0.4661086230   -0.9036450479
 H    1.8131091497   -0.6854353060    1.1846342387
 H    0.6115579898   -0.9376104878    3.3142657306
 H   -1.8627233951   -0.5913381689    3.4413160480
 H   -3.2321172471   -0.4174748563    1.2923572575