23

 C    0.1215022522    1.5458156347    0.0640609575
 C    0.0147580964    0.0231645826   -0.0965597633
 C   -1.4092413738   -0.5415126589   -0.0026856959
 C   -2.3354365885    0.0541881398   -1.0658881718
 C   -1.5387503531   -2.0805317332    0.0229605274
 C   -0.8788024462   -2.6868565026    1.2233595519
 C   -2.2311045192   -2.0408221840    1.3890299699
 C   -2.1109598580   -0.5199852739    1.4263032778
 O   -1.4642335116    0.0803450293    2.5281812310
 H    1.1703090911    1.8595519948    0.0548099675
 H   -0.3841554557    2.0796517153   -0.7461293907
 H   -0.3199239625    1.8628947321    1.0123817662
 H    0.4406494240   -0.2801667344   -1.0629910959
 H    0.6461065563   -0.4489675266    0.6644776727
 H   -1.9332990644   -0.1042972060   -2.0735935740
 H   -3.3240735689   -0.4159388333   -1.0265275391
 H   -2.4725417775    1.1301396443   -0.9230464373
 H   -1.8116074293   -2.6793268449   -0.8387543916
 H   -0.8906857562   -3.7713449360    1.2651407363
 H    0.0233477843   -2.2564659549    1.6525699411
 H   -3.0829911899   -2.6101532774    1.7415742549
 H   -3.0846684134   -0.0273932647    1.3590417756
 H   -0.7400134359   -0.4933711024    2.7983261898