25

 C   -0.1366120097    1.4282473269   -0.0533910341
 O   -0.0902024669    0.0237111708   -0.0337761379
 C    0.6521168517   -0.5174139403   -1.1062374715
 C    0.6460370963   -2.0360264187   -0.9831151660
 C    1.3635501061   -2.7502686843   -2.1303869446
 C    2.8838300991   -2.4858195260   -2.2232747483
 C    3.4794893090   -3.6947785352   -2.9976306777
 C    2.3424107093   -4.7513191604   -3.0788553548
 C    1.2924383997   -4.2855474097   -2.0570593340
 H    0.8689075341    1.8740011738    0.0187119906
 H   -0.6120356032    1.8110881450   -0.9712560693
 H   -0.7265593192    1.7505937186    0.8084215440
 H    0.2095837240   -0.2095378653   -2.0708742242
 H    1.6838631138   -0.1264811362   -1.0892111567
 H    1.1091020407   -2.3132349816   -0.0272493521
 H   -0.3983373918   -2.3670558858   -0.9325994210
 H    0.9001709754   -2.4401078852   -3.0795680332
 H    3.1182046746   -1.5296748309   -2.6995444015
 H    3.3008911845   -2.4430838057   -1.2092693997
 H    3.8187032237   -3.4059479130   -3.9965206617
 H    4.3555341801   -4.0931490753   -2.4776312777
 H    1.9015638458   -4.7524426215   -4.0821154740
 H    2.6974253337   -5.7680981782   -2.8892976700
 H    1.5718333907   -4.6127052687   -1.0462057737
 H    0.2906401486   -4.6776159729   -2.2586376708