19

 C    0.0259771365   -0.7716586246    1.3084518187
 C    0.0751426206   -0.0123597531   -0.0034679440
 O    0.0786600722    1.2104062656   -0.0204162262
 C    0.1146017068   -0.7639484819   -1.2719179014
 C    0.0994054016   -2.0917344672   -1.4489175997
 C    0.1818312905   -2.4722523356   -2.9038797394
 C   -0.0725349791   -1.1317533372   -3.6361292948
 C    0.2293826213   -0.0276450058   -2.6025471241
 O   -0.6829028761    1.0408356414   -2.7510021967
 H   -0.8542549126   -1.4220201987    1.3434688064
 H    0.9077979242   -1.4113171911    1.4190982427
 H   -0.0142163007   -0.0595513637    2.1332070354
 H    0.0596902774   -2.8310684579   -0.6552215413
 H    1.1773646867   -2.8815358376   -3.1277532985
 H   -0.5333206989   -3.2572054386   -3.1740209157
 H    0.5080654076   -1.0271084743   -4.5546450240
 H   -1.1314839103   -1.0394574307   -3.8946049859
 H    1.2642458195    0.3413587422   -2.7132201838
 H   -0.5375629271    1.6102181288   -1.9820909376