14

 C   -0.0748592356    1.7509208228    0.2300150551
 C   -0.1587806433    0.2775687554   -0.1666099500
 O    0.4118274065    0.1399010057   -1.4552871080
 C    0.1568705324   -1.0032641120   -2.1442941392
 O    0.6310980402   -1.2135014756   -3.2147564195
 C    0.5670625847   -0.6399282742    0.8243417764
 O    1.4007642636   -1.4469818257    0.5131908969
 C    0.1346649433   -0.4946791118    2.2289064523
 N   -0.2279490050   -0.3784608449    3.3207533130
 H    0.9663158662    2.0829890876    0.2331762183
 H   -0.6286634125    2.3486388047   -0.4963368062
 H   -0.5056180731    1.9123441525    1.2206360486
 H   -1.2137381589   -0.0419050105   -0.1694927440
 H   -0.5438887085   -1.6782175141   -1.6186934536