20

 C   -0.1475498712    1.6487360393    0.0897596617
 C    0.0240510437    0.1264720820    0.0818331933
 C   -1.2061596958   -0.5794276585   -0.4944505968
 O   -1.4027645801   -0.3227011404   -1.8761528652
 C    1.2722208882   -0.6626786085   -0.2543989232
 C    2.5995825692   -0.1519074700    0.3698895108
 N    2.3542819225    1.1064700276    1.1210349559
 C    2.0177879786   -0.2116847971    1.7231503366
 C    0.6683390035   -0.7319095714    1.1511007856
 H    0.5507960997    2.1443284894   -0.5863321463
 H   -1.1680717463    1.9109510617   -0.2238765428
 H    0.0111792916    2.0743704746    1.0793061785
 H   -1.0989450509   -1.6657548412   -0.4132571781
 H   -2.0921868085   -0.2888115414    0.0929531461
 H   -1.5136246043    0.6273415443   -1.9853654763
 H    1.2578124090   -1.4210075575   -1.0278160162
 H    3.5900594747   -0.4117301151    0.0198469147
 H    3.2509326285    1.3855935191    1.5203677015
 H    2.4542705738   -0.5261192439    2.6621339983
 H    0.1452722843   -1.5625861131    1.6114018022