16

 C   -0.0369443668    1.5573036106   -0.0213555637
 C   -0.0077087778    0.1025569699   -0.0123333056
 C    0.0444947845   -1.0990881797   -0.0185338956
 C    0.0392282848   -2.5505538583   -0.0067120874
 C   -1.3868670173   -3.1096501433    0.1109726391
 O   -1.6422983520   -4.2869369636    0.1683507208
 C    0.8154240457   -3.1722340238   -1.2199966514
 N    0.8300600697   -4.5330276378   -1.2006147178
 O    1.3858591639   -2.4864209279   -2.0342965823
 H    0.8114096703    1.9599694863   -0.5849430923
 H   -0.9541938231    1.9332980246   -0.4871234416
 H    0.0126266990    1.9640211449    0.9945132186
 H    0.5635584383   -2.9298254105    0.8836521835
 H   -2.1817024804   -2.3392679425    0.1499557679
 H    0.1305023168   -5.0202824963   -0.6570922164
 H    1.2095212742   -4.9882712926   -2.0162818456