12

 N    0.0196171670    1.3750244197    0.1372318022
 C   -0.0526248859    0.0077066368    0.0439118461
 C   -1.1776072491   -0.7389515730    0.0120171344
 O   -1.1234883674   -2.1086824517   -0.0197089427
 C    0.0869210209   -2.6775022740   -0.0169184622
 N    1.2215750617   -2.0890825609   -0.0058614480
 C    1.2559720728   -0.6908714886    0.0069797693
 O    2.2949866050   -0.0586473357   -0.0215754898
 H    0.9439035999    1.7205522831   -0.0875608786
 H   -0.7486525906    1.9229219559   -0.2152676599
 H   -2.1958707192   -0.3759064915    0.0143073513
 H    0.0037401049   -3.7604004302   -0.0292128920