13

 C   -0.0213949014    1.2924458503    0.0095372319
 N    1.1855977723    1.8310220094    0.0010100559
 C    2.0820262812    0.8049487176   -0.0134671439
 C    1.4209215388   -0.4101966266   -0.0137618561
 C    1.6774058312   -1.7912890313   -0.0239346461
 C    0.5970889999   -2.6253842519   -0.0178692370
 N   -0.7090222462   -2.1816777046   -0.0025104118
 N   -0.9970357082   -0.9441485997    0.0071682149
 N    0.0536522856   -0.0650436163    0.0016467914
 H   -0.9658413489    1.8118700882    0.0215166690
 H    3.1470162777    0.9785604673   -0.0228890034
 H    2.6927919050   -2.1695375215   -0.0360085253
 H    0.6943248929   -3.7030602707   -0.0247558896