18

 C   -0.0326154282    1.5531054897   -0.0103422938
 C   -0.0077989549    0.0476219186    0.0002652948
 C   -0.0279015747   -0.6596654645   -1.1626606829
 N   -0.0061862925   -2.0207687044   -1.1763948838
 C    0.0380089848   -2.8404342200   -0.0343372756
 O    0.0550685868   -4.0563552297   -0.1486856117
 C    0.0591721575   -2.0734654462    1.1938337534
 C    0.0379152794   -0.7083661428    1.2281777241
 C    0.0618060275    0.0210723153    2.5459611613
 H    0.8538750923    1.9823770836    0.4716107845
 H   -0.0668430806    1.9342887814   -1.0347217561
 H   -0.9049528126    1.9536923648    0.5197284753
 H   -0.0620558514   -0.1783587926   -2.1337053524
 H   -0.0217602595   -2.5237817570   -2.0524600487
 H    0.0936569679   -2.6561895848    2.1072834377
 H    0.0971997962   -0.6788179466    3.3831831478
 H    0.9315408946    0.6845191887    2.6171941751
 H   -0.8253114524    0.6538191963    2.6658873509