17

 N   -0.1081071738    1.3535830009    0.3687357217
 C   -0.1225331075   -0.0642994575    0.0188667728
 C   -1.5804831583   -0.5376603493   -0.1455462680
 C   -1.7553148149   -2.0794552375    0.0087889539
 C   -2.2376277153   -1.7682461009    1.4485003149
 N   -2.4186057490   -0.3499898024    1.0567501746
 C   -2.1496292565    0.0696026979   -1.3600628110
 N   -2.5623735626    0.5516598852   -2.3265329890
 H    0.8279319998    1.6462517784    0.6266927836
 H   -0.3816607436    1.9148780672   -0.4331429690
 H    0.4420712844   -0.3277378370   -0.8909646019
 H    0.3181975746   -0.6255849080    0.8503678621
 H   -2.5396734713   -2.4816894124   -0.6319073788
 H   -0.8465170951   -2.6713685954   -0.1086556209
 H   -3.1591207872   -2.2582608332    1.7757079892
 H   -1.4624325358   -1.9430227716    2.2058552568
 H   -2.0500014978    0.3618090158    1.6806091991