18

 N   -0.2149466192    1.0651480467   -0.8954239387
 C   -0.1675468901   -0.1724391667   -0.2459061199
 C   -0.8816016933   -0.6142418254    0.8410581258
 N   -0.4860512266   -1.9389443306    1.0019147265
 C    0.4194830051   -2.2249026713    0.0328971332
 N    0.6347061953   -1.1720642908   -0.7375188431
 C    1.0588352921   -3.5432816949   -0.1094048743
 C    1.3745192768   -4.0679759741   -1.4971991640
 C    2.4916269129   -3.6246017053   -0.6000937219
 H    0.6183362406    1.2036219486   -1.4526842319
 H   -0.3475195962    1.8453034880   -0.2660543854
 H   -1.6083643096   -0.1491789211    1.4838350093
 H   -0.8128047741   -2.5702517124    1.7130083627
 H    0.7535007958   -4.2749481710    0.6323682180
 H    1.2406515841   -5.1286492850   -1.6787914028
 H    1.1060542846   -3.4169068754   -2.3207038209
 H    2.9684219318   -2.6781515424   -0.8259991056
 H    3.1351841800   -4.3767214470   -0.1572450171