15

 O    0.1715119480    0.0353843948    0.3268759295
 C    0.0142411577    1.1878555119    0.0079674651
 C   -1.2334143588    2.0035373723   -0.0101103693
 C   -0.9443898246    3.2794028754   -0.2856729699
 C    0.5209733224    3.4380871669   -0.5841469378
 C    1.4788072622    4.2861266860    0.3093123213
 N    2.5930228476    3.3800565851    0.6628360176
 C    2.2621852337    2.2081597147    0.2958401325
 N    1.0421274125    2.0790651375   -0.3902999331
 H   -2.1974494009    1.5718566011    0.2196619517
 H   -1.6472825845    4.0996975648   -0.3633429839
 H    0.6428279283    3.7370767412   -1.6349392564
 H    1.8577624101    5.1625757807   -0.2212521977
 H    1.0061888119    4.6366908320    1.2337440725
 H    2.8492048946    1.3170427857    0.4852469279