17

 O    0.1461443789    1.2796731675   -0.2288846119
 C   -0.0478072791   -0.0853869500   -0.0894946894
 C   -0.5882267355   -0.9298139847   -1.2107917013
 C   -1.4250656811   -0.6734618329    0.0304835667
 C   -1.3725022517   -1.7204960067    1.1274280253
 N    0.0612343818   -2.0414844699    1.2145907468
 C    0.8061151106   -0.8072022151    0.9638601804
 C    2.1784452602   -1.0835935568    0.5147426901
 N    3.2627016270   -1.2587814969    0.1554900585
 H    0.8880384149    1.4204288265   -0.8285122578
 H   -0.8845737346   -0.3854912319   -2.1004678568
 H   -0.1767792743   -1.9190655329   -1.3777520232
 H   -2.2946251808   -0.0336424974   -0.0509183468
 H   -1.7855391239   -1.2910238185    2.0556131340
 H   -1.9376590207   -2.6302557853    0.8962255164
 H    0.3238539064   -2.4876369607    2.0840258175
 H    0.8738233818   -0.1240962442    1.8285895415