14

 O   -0.0126559206   -0.0070268590   -0.0699225678
 C    0.0078508868    1.1844763543   -0.0409916089
 O   -1.1095095021    1.9581430955   -0.0760086901
 C   -0.8231079115    3.3688084980    0.0068063602
 C    0.6917157163    3.5075807448    0.0015315871
 C    1.4287719016    4.5893199159   -0.7196635519
 N    1.4148052389    4.5583061902    0.7401043000
 C    1.2329137544    2.1173380802    0.0380115084
 O    2.3756629180    1.7573511344    0.0833363180
 H   -1.3101688047    3.8574935689   -0.8416391078
 H   -1.2692320334    3.7450229793    0.9343829664
 H    2.3854831591    4.3398184223   -1.1696896843
 H    0.8349256230    5.3324012615   -1.2464951758
 H    0.7420134542    5.2343718137    1.0993447565