17

 O    0.0310452089    1.4336403532    0.0082146892
 C    0.0073364072    0.0187037498    0.0097492635
 C   -1.4078304035   -0.4516115598    0.0238140410
 C   -2.5342843400    0.2717153786    0.0449881736
 C   -3.7898612442   -0.5733278715    0.0641799578
 O   -4.7151660732   -0.2035461777   -0.9502662905
 C   -3.2621932821   -2.0236412917   -0.0264424547
 C   -1.7363868415   -1.9016596454    0.0318818740
 O   -0.9368950196   -2.8088792573    0.0840898722
 H    0.9492763415    1.7178946769    0.0189803124
 H    0.5128782813   -0.4038113262   -0.8741650234
 H    0.5261891762   -0.4050505352    0.8851548791
 H   -2.5813820362    1.3542248743    0.0418005027
 H   -4.3402464694   -0.4150493263    0.9986593692
 H   -4.2451037875   -0.2119256042   -1.7919042556
 H   -3.6221028777   -2.6800868180    0.7702056645
 H   -3.5627642904   -2.4807130194   -0.9748213849