16

 O    0.1020589489    1.4709598939    0.0030586893
 C    0.0797236272    0.0640383703    0.0124794497
 C    0.2114231013   -0.5876168673    1.4130274192
 N   -1.2681318335   -0.6673915703    1.4643097237
 C   -1.3429286747   -0.5811480214   -0.0086526625
 C   -2.5048759723    0.2436863961   -0.5696747505
 C   -3.7931777758   -0.3821746220   -0.2842361106
 N   -4.7968938614   -0.9038471892   -0.0471337863
 H   -0.3502198035    1.7793123381    0.7968551807
 H    0.7710394967   -0.2619056559   -0.7652518070
 H    0.7262224112   -1.5576542252    1.3724933117
 H    0.6699732552    0.0265272274    2.1959213672
 H   -1.6686323449   -1.4966477201    1.8885786967
 H   -1.3133792465   -1.5589284783   -0.5118908257
 H   -2.4892459320    1.2483225624   -0.1381868304
 H   -2.3928502960    0.3544174416   -1.6543169652