14

 O    0.1310223645    1.3756505264   -0.0516372851
 C    0.0329574980   -0.0158429633   -0.0598409727
 C   -1.3884420107   -0.5142191915   -0.0164968031
 N   -2.3287351268    0.3871356488    0.0222839092
 C   -3.6523421919   -0.0121483378    0.0633455442
 O   -4.6164378475    0.7089040967    0.1012951173
 N   -3.8192045608   -1.4273621694    0.0577616765
 C   -2.7751709857   -2.2751639957    0.0156347460
 N   -1.5389490247   -1.8815330530   -0.0225694270
 H   -0.7805117375    1.7063086125   -0.0179204939
 H    0.5031123336   -0.4481100809   -0.9584268675
 H    0.5615734957   -0.4624237178    0.7983632330
 H   -4.7727393083   -1.7626773793    0.0871030441
 H   -3.0083541879   -3.3379404557    0.0150347788