21

 C   -0.6673423086    1.2009344942    0.0324562334
 C    0.0850479453   -0.1197832070   -0.0632316982
 C    1.4773593599   -0.1139457346   -0.7657681061
 C    2.0301692561   -1.0609918042    0.3359937281
 C    0.7819213643   -0.7412479488    1.1678461926
 C    0.7927612017   -0.2452528115    2.5966857043
 O   -0.0570077277    0.7722515987    3.0322287071
 C    0.1755871730   -1.5834648930    2.2517328938
 O   -1.2344006246   -1.6090418446    2.2575330229
 H   -0.0821192730    1.9584614079    0.5602404285
 H   -0.8889105009    1.5746782131   -0.9741323854
 H   -1.6212827475    1.0875353128    0.5571558756
 H   -0.5634373133   -0.8747356834   -0.5236000496
 H    1.5144549658   -0.4715455093   -1.7973285559
 H    1.9409589537    0.8759820956   -0.7224355000
 H    2.0673208049   -2.1080083666    0.0168562881
 H    2.9962052047   -0.7976510799    0.7762838151
 H    1.7465999356   -0.2145459133    3.1175847981
 H   -0.9550679053    0.4596752799    2.8549121147
 H    0.6567913016   -2.5186203423    2.5369231808
 H   -1.5192700557   -1.8774537737    3.1386419620