19

 C   -0.1550908776    1.2534440900   -0.0729656059
 N    0.1457927275   -0.1697261203    0.0633915911
 C    1.5729374577   -0.4861160471   -0.1179504959
 C    0.9715621911   -0.4896549030    1.2545455768
 C    1.0364272457   -1.9969504237    1.3061574531
 C    1.3069872412   -2.8656451752    2.4674630495
 N    0.0065276227   -2.9151802381    1.7666429077
 C    1.6581077548   -2.0258855853   -0.1288402801
 O    0.9762751067   -2.7079751668   -1.1334707954
 H    0.6450757242    1.9155845390    0.2974848264
 H   -0.3260849242    1.4824951224   -1.1293141994
 H   -1.0718813020    1.4813598489    0.4796392945
 H    2.2428048507    0.2338691807   -0.5723659460
 H    1.0824485318    0.2309073834    2.0565023465
 H    1.9220752183   -3.7542614580    2.3497616538
 H    1.3569883713   -2.4075695307    3.4530335227
 H   -0.7037966016   -2.4113564996    2.2929256544
 H    2.6891881529   -2.3898966016   -0.1226378206
 H    0.0670073387   -2.3831981149   -1.1009546933