24

 C    0.4817631189   -0.7593113140    1.3499515942
 C    0.2418487892    0.1135566571    0.1130613043
 C    0.8882699762   -0.3334444474   -1.1984261565
 C    2.2404008337   -1.0080443663   -1.1834924098
 C    1.0011596286   -1.8054651042   -1.5207189207
 C    0.6262510822    0.5832861326   -2.4031182313
 C   -0.8618564496    0.6560597209   -2.7801960666
 C    1.2194795203    1.9890143191   -2.2187617944
 H    0.1022887500   -1.7772029930    1.2178652045
 H    1.5427761257   -0.8254895725    1.6094621209
 H   -0.0364523983   -0.3302655004    2.2131568676
 H   -0.8414019624    0.1937464532   -0.0430294205
 H    0.5858012976    1.1302125942    0.3416652994
 H    2.9322294554   -0.7738686299   -1.9865285074
 H    2.7251423189   -1.2055814851   -0.2342614392
 H    0.6578079494   -2.5354745127   -0.7965965838
 H    0.8542632921   -2.1111032550   -2.5518988877
 H    1.1505609944    0.1222266009   -3.2516343904
 H   -0.9957883768    1.1992579596   -3.7216172917
 H   -1.2891061301   -0.3442839249   -2.9038050756
 H   -1.4481186962    1.1797852493   -2.0177029285
 H    2.2776211815    1.9398416659   -1.9423558397
 H    1.1389168582    2.5669040135   -3.1454973877
 H    0.6946305810    2.5517562193   -1.4395103793