22

 C    0.3252523491    1.4917626095    0.2355081893
 C   -0.1528328344    0.0773217155   -0.1182687760
 C    0.5187532059   -0.4792983240   -1.3500663199
 C    0.2298164414    0.1215418969   -2.7218081065
 O    0.7551454217   -0.8039377961   -3.6666689570
 C    0.6298790830   -2.1215817980   -3.1189296551
 C    1.6494606821   -3.0264272145   -3.7928073763
 C    0.7897478632   -1.9147539852   -1.6188430838
 N    1.8787847226   -1.0224715351   -1.1913448228
 H    1.4092610166    1.5016396073    0.3847007849
 H    0.0869037552    2.2101381405   -0.5563432119
 H   -0.1479103579    1.8468438295    1.1557989472
 H    0.0537331336   -0.5963571835    0.7196309128
 H   -1.2405922186    0.0752381465   -0.2683678651
 H   -0.8582854377    0.2519732934   -2.8475806337
 H    0.7143959056    1.0867870677   -2.9043628411
 H   -0.3865923758   -2.5108112373   -3.3058946344
 H    2.6694881660   -2.6999200045   -3.5695188991
 H    1.5313669531   -4.0571994811   -3.4451784571
 H    1.5124559246   -3.0100390226   -4.8774472801
 H    0.5199805325   -2.7145031246   -0.9357878556
 H    2.4519147179   -0.7735403401   -1.9970811589