19

 C   -0.0648988645    1.6655004085    0.4064939282
 C   -0.0648165896    0.1962843221   -0.0373374304
 C    0.8667606884   -0.6507092964    0.8544281618
 C   -1.4510319085   -0.3825226313   -0.0747010138
 N   -2.4442437099    0.0163561578    0.7233629242
 N   -3.4617558104   -0.7526487866    0.3753527698
 N   -3.2313044006   -1.6430952677   -0.5945189086
 C   -1.9531197386   -1.4230423108   -0.8964508503
 N   -1.3036878229   -2.0949803674   -1.9300078696
 H    0.9530154320    2.0677108027    0.3943202599
 H   -0.6860421108    2.2776993489   -0.2531031217
 H   -0.4619355376    1.7638042827    1.4207452091
 H    0.3239255559    0.1474660943   -1.0641638198
 H    0.5277415041   -0.6246494750    1.8951361873
 H    0.8872170923   -1.6999351418    0.5400782938
 H    1.8924310638   -0.2688336985    0.8184340092
 H   -4.3715520648   -0.6515038263    0.7912859865
 H   -1.8391186292   -2.8902066368   -2.2539436554
 H   -0.3610885590   -2.3774485184   -1.6973975004