18

 C   -0.1574415933    1.6319292983    0.0127320225
 C    0.0043902331    0.1002851424   -0.0064822461
 C    0.6975441087   -0.4365013333   -1.2599540832
 C    1.7284321797   -1.2138926538   -0.9351819042
 C    1.9117036100   -1.2374485047    0.5429445326
 C    2.2462196905    0.0878628690    1.1419435484
 N    0.8560944626   -0.3837617146    1.1287791236
 C   -1.3223367781   -0.5215380244    0.1209269314
 C   -2.4139699172   -1.0200971606    0.1857354219
 H    0.8043101078    2.1302947408   -0.1291025843
 H   -0.8314806648    1.9469501071   -0.7878103151
 H   -0.5855709918    1.9470835374    0.9673057994
 H    0.3541980979   -0.1907122825   -2.2572653060
 H    2.3740294455   -1.7432706162   -1.6251506829
 H    2.1575357144   -2.1638333449    1.0546417203
 H    2.6744875834    0.1516437666    2.1388312410
 H    2.5618922059    0.8663671481    0.4530343802
 H   -3.3739109146   -1.4686152245    0.2563992806