23

 C   -0.6595529608    1.8600156183    0.6639454372
 C   -0.3107985179    0.3825689167    0.3979345487
 O    0.4569584680   -0.1350444215    1.4601383834
 C   -1.5957086244   -0.4569759695    0.2596299664
 O   -2.0135715375   -0.9954637116    1.2651379038
 C   -2.2726141023   -0.6757053211   -1.1017497170
 C   -3.7288660814   -1.1173602641   -0.8862283632
 C   -2.2277923454    0.5669863466   -2.0091847206
 C   -1.4756171615   -1.8263767907   -1.7702597048
 H    0.2669741544    2.3988517439    0.8771677666
 H   -1.1553748005    2.3388659718   -0.1838163892
 H   -1.3099369362    1.9359672350    1.5410551629
 H    0.2893535612    0.3090193487   -0.5168398823
 H   -0.1860535203   -0.5628798787    2.0467755038
 H   -4.3163953438   -0.3222561941   -0.4168341162
 H   -4.1924989552   -1.3609649799   -1.8474525535
 H   -3.7807384182   -1.9935711788   -0.2378785405
 H   -1.2073701068    0.9107549634   -2.2000991005
 H   -2.6756944919    0.3236426351   -2.9782049415
 H   -2.7975911217    1.3985916658   -1.5837796606
 H   -1.5053010956   -2.7313946372   -1.1569394706
 H   -1.9181211788   -2.0578020219   -2.7446019487
 H   -0.4274671033   -1.5574849763   -1.9339203236