18

 C   -0.1329821116    1.3755555949    0.1066566136
 N    0.1836022786   -0.0364729987   -0.0265352951
 C    0.7478597109   -0.7049162508    1.0360731017
 N    0.6319390807   -2.0167425844    1.1855326298
 N    1.4161694864   -2.2396641150    2.3031503891
 C    1.6116616769   -3.5719987968    2.8141797693
 C    1.8957875655   -1.0657310257    2.7514061903
 N    2.7533351521   -0.9520323487    3.8356582092
 N    1.5022732649   -0.0640916460    1.9799248169
 H    0.7553200931    1.9097876703    0.4477267973
 H   -0.4212201891    1.7677653619   -0.8721246020
 H   -0.9453228880    1.5814678370    0.8208265683
 H   -0.5131378368   -0.5929964281   -0.4994149782
 H    2.5228669338   -3.5926736373    3.4170645460
 H    0.7639133495   -3.9060208651    3.4245886889
 H    1.7264494567   -4.2589855302    1.9732743490
 H    2.4456060388   -1.4389282934    4.6672781090
 H    2.9319522175    0.0226451962    4.0384255169