17

 C    0.0780051231    1.3741769290   -0.4868878961
 C    0.0016138761    0.0271302676    0.1948842458
 O    0.9197180593   -0.4415962154    0.8356320096
 C   -1.2720923409   -0.7307367078    0.0306877358
 C   -1.6957875925   -1.7325231676    1.1195670656
 C   -1.4392012017   -2.2825276798   -0.2173029387
 C   -2.6426739897   -2.0324597542   -1.1372887781
 C   -2.4094281159   -0.5129172332   -0.9231673902
 O   -2.8387782725    0.4610426670   -1.4766919175
 H    1.0466077007    1.8325087398   -0.2853133079
 H   -0.0712592411    1.2610340911   -1.5662078447
 H   -0.7336912611    2.0215295013   -0.1393426048
 H   -0.9121223651   -1.8606604582    1.8585811010
 H   -2.7083964433   -1.6786070570    1.5092222606
 H   -0.6036837037   -2.9340757788   -0.4340473389
 H   -2.4768413608   -2.2922936781   -2.1862418817
 H   -3.5992605810   -2.4494082956   -0.8095900600