15

 C   -0.0403740973    1.5160614243    0.0086393064
 C    0.0126310264    0.0221932093   -0.0046536422
 C   -0.0089063638   -0.8144376882   -1.0724260110
 O    0.0457475047   -2.1286322688   -0.6657357669
 C    0.0984925856   -2.1226911633    0.6860963897
 N    0.2207218439   -3.3502736534    1.3259118064
 C    0.0812135907   -0.8409312558    1.1484670613
 O    0.0313711207   -0.4848514755    2.4787225515
 H    0.8799043916    1.9531838695    0.4160148871
 H   -0.1758277528    1.9160454869   -0.9996592648
 H   -0.8664736205    1.8769734126    0.6314522332
 H   -0.0641793459   -0.6606924927   -2.1365755467
 H   -0.4348330767   -4.0403075135    0.9754667216
 H    0.0958554823   -3.2342439290    2.3243532396
 H    0.8415538311   -0.0169944924    2.7084838548