18

 C    0.2307942867    1.3784075767    0.1800619625
 O    0.3548401662   -0.0425735414    0.0568875991
 C    0.3238925184   -0.5157224130   -1.2090121295
 O    0.2007213974    0.1987346855   -2.1778185117
 C    0.4572945634   -1.9927042632   -1.2169898420
 C   -0.1068014881   -2.7552557268   -2.4032357535
 C    1.3750218296   -2.6852292211   -2.2306296538
 C    2.2582055617   -1.9220337849   -3.1917552379
 H    1.0524972756    1.8848763215   -0.3329515190
 H   -0.7132659782    1.7234743238   -0.2493923843
 H    0.2625993808    1.5876607360    1.2495525702
 H    0.3918499680   -2.4478490512   -0.2368436123
 H   -0.6283436627   -3.6832695775   -2.1982234046
 H   -0.5444563056   -2.1380337397   -3.1805710415
 H    1.8355749477   -3.5797747554   -1.8186863219
 H    1.7685084031   -1.0125801449   -3.5434693928
 H    3.2044158080   -1.6391095073   -2.7176346944
 H    2.4952882779   -2.5467061870   -4.0599194727