19

 C   -0.2332077237    1.5359024122    0.0591729799
 C    0.0473308247    0.0321501358   -0.0731526112
 C    0.7813975659   -0.5171803511    1.1178790943
 C    0.1141581749   -0.9776828377    2.4324344716
 C    1.0135268042   -1.9007561231    1.6922466086
 C    0.7723096707   -3.2824693013    1.1892015109
 O    2.3931465702   -1.5505267582    2.0488436989
 C    2.2393198863   -0.3123657387    1.4399185137
 O    3.0788487544    0.5075624221    1.2463065321
 H    0.7016774715    2.0903403572    0.1806212757
 H   -0.7448536462    1.9167267408   -0.8295042175
 H   -0.8635505997    1.7430043188    0.9299041714
 H   -0.8936755208   -0.5172365976   -0.1996853045
 H    0.6387643609   -0.1518271917   -0.9781414110
 H    0.4242167127   -0.5691561334    3.3891171845
 H   -0.9529017251   -1.1589171038    2.3304841879
 H   -0.2614034771   -3.3844368267    0.8468817470
 H    1.4431198169   -3.5165989985    0.3575583196
 H    0.9401334095   -4.0173785753    1.9835343182