14

 O    0.0475900750    1.1750698039   -0.5541273204
 C    0.0519082565   -0.1819968503   -0.1765600003
 C   -1.3464679424   -0.6114649132    0.2636738969
 O   -2.3039146971   -0.4911564072   -0.8315993406
 C   -2.6171655413   -1.8961492806   -0.8681577183
 C   -2.2605817336   -2.5469720181   -2.1229631785
 N   -1.9535827939   -3.0683994715   -3.1076907135
 C   -1.6327500751   -2.1113418252    0.3312506104
 O   -1.2851839645   -3.0368488045    0.9851693948
 H   -0.5529002850    1.2589642056   -1.3042631687
 H    0.4012739909   -0.8353610001   -0.9898949513
 H    0.7430716412   -0.2874473065    0.6654345154
 H   -1.6703091336   -0.0337960245    1.1372450750
 H   -3.6663743372   -2.0971426979   -0.6191983309