19

 C    0.0389965241    1.5568666446   -0.0587359268
 C    0.0547923061    0.0404451079    0.0480525011
 O    0.7708765794   -0.4864674843   -1.0736227824
 C    1.2058332560   -1.7981191125   -0.7521266251
 C    1.5008940200   -1.7776427334    0.7505376134
 C    2.2644770630   -0.5505786831    1.2215815262
 C    0.7638297336   -0.5454296949    1.2617405476
 C    1.5675650570   -3.0139697441    1.4640021770
 C    1.6239664132   -4.0705211328    2.0373538474
 H    1.0540087544    1.9598479857   -0.0032663787
 H   -0.4042849649    1.8638315149   -1.0100521618
 H   -0.5535840091    1.9894705339    0.7530662277
 H   -0.9818059197   -0.3385044368    0.0381882078
 H    0.4272116596   -2.5483477872   -0.9589897310
 H    2.0805811374   -2.0200131514   -1.3710094787
 H    2.7884500804   -0.6408407255    2.1652628459
 H    2.7679911488    0.0418429873    0.4643821321
 H    0.2486374565   -0.5688498643    2.2140947173
 H    1.6761591942   -4.9985885238    2.5501696612