17

 C    0.0553095228    1.5178158737   -0.1427534668
 O    1.4950877299    1.4239084774    0.1488184517
 C    1.3145053413    0.1383007373    0.6050459770
 N    2.0182316410   -0.5200943950    1.4035824642
 C    1.3603620684   -1.7294122651    1.9234867240
 C   -0.0984302553   -2.0083262656    1.4592129811
 C   -0.9117227427   -0.7262409363    1.1607783565
 C   -0.0940275812   -0.0033006174    0.0959431775
 H   -0.4349141403    2.1614601509    0.5936678872
 H   -0.1226525304    1.8855737076   -1.1551827100
 H    1.9855160151   -2.6002703048    1.6947880022
 H    1.3806415850   -1.6296383010    3.0165044520
 H   -0.0823445887   -2.6158644065    0.5457773434
 H   -0.5977837311   -2.6125511620    2.2232550434
 H   -1.9248323829   -0.9754410020    0.8313761836
 H   -0.9980387511   -0.1051215964    2.0607099183
 H   -0.1401222195   -0.5398049248   -0.8569035552