19

 C    0.3471030479    1.4440266003   -0.4667359581
 N   -0.1643233168    0.1876432745    0.0828393922
 C    0.4813333054   -0.1421562808    1.3442506692
 C    1.9184390235   -0.5955742815    1.1268234266
 O    2.8058896026   -0.4543198514    1.9241692320
 C   -1.6236129885    0.1790365963    0.1418100188
 C   -2.3053463360   -0.0673104169   -1.2135976865
 N   -1.5307942303   -0.7309426077   -2.1105820780
 O   -3.4529550876    0.2746421245   -1.4160613379
 H    1.4340695449    1.3896831328   -0.5818936099
 H   -0.0888826889    1.6214598479   -1.4528059868
 H    0.1142675609    2.3089034040    0.1785201599
 H    0.4734834581    0.6731598334    2.0870316982
 H   -0.0400380237   -0.9972758349    1.7960164835
 H    2.0743147990   -1.1097910825    0.1498361740
 H   -1.9458696390   -0.6367924151    0.7984377975
 H   -2.0522522134    1.1065831943    0.5513465695
 H   -0.5892727868   -0.9830335800   -1.8589871738
 H   -1.9140833713   -0.9747236671   -3.0079674504