20

 C   -0.2604194997    1.5572631651    0.1138588471
 C   -0.0020705214    0.0500915422    0.0619761217
 C    0.6392602065   -0.4004293313   -1.2580847017
 O    1.8605362491    0.2763857387   -1.5185306269
 C    0.8469023834   -1.9097988883   -1.3018611931
 C    1.6683766257   -2.5018350254   -2.4660520489
 C    2.6433938292   -2.8959934555   -1.3796290598
 N    3.7279925606   -3.5204471494   -1.3386500999
 O    1.9053133285   -2.3171727302   -0.3577771917
 H    0.6655409537    2.1128085711   -0.0543839543
 H   -0.9745000621    1.8611501144   -0.6596651527
 H   -0.6710437844    1.8534877435    1.0833815895
 H    0.6565256536   -0.2531782151    0.8864829528
 H   -0.9415701040   -0.4999336756    0.2016059704
 H   -0.0234333892   -0.1334022704   -2.0927635866
 H    2.4806789015    0.0020570927   -0.8315621453
 H   -0.0783511757   -2.4457819551   -1.0697516005
 H    1.2181939509   -3.3324275369   -3.0105044647
 H    2.0619121682   -1.7584852209   -3.1601708663
 H    4.0837643658   -3.5877105236   -0.3835073989