18

 C   -0.0848420935    1.4989370434    0.0224098126
 C   -0.0551084633    0.0039022066   -0.0254500804
 C    0.0381269974   -0.7775987703   -1.1068227364
 C    0.0469501200   -2.2539339515   -0.7698673794
 C    0.0140632733   -2.2491896793    0.7525579093
 O    1.1424961587   -1.6180986029    1.3664922441
 C   -0.0845662213   -0.8534894590    1.2169130741
 C   -0.7309801908   -0.3957108713    2.4941017243
 H    0.7652313834    1.8961896471    0.5914224358
 H   -0.0497148078    1.9285196331   -0.9822880384
 H   -0.9918442001    1.8697832377    0.5158927939
 H    0.1418780284   -0.4136650260   -2.1238374107
 H   -0.8256705307   -2.7781836202   -1.1816857297
 H    0.9371461829   -2.7660860663   -1.1555935381
 H   -0.4046527977   -3.0881820376    1.3034845767
 H   -0.2213836971    0.4860019834    2.8978740991
 H   -1.7806576090   -0.1295574626    2.3290681189
 H   -0.6845139729   -1.1861749443    3.2468707443