14

 N   -0.0505377400    1.3889226803   -0.1326655391
 C   -0.0185965775    0.0115515863   -0.0587091094
 N   -1.1718189798   -0.6443926638    0.0221384031
 C   -1.1471232260   -1.9845338683    0.0342410095
 C    0.0177020389   -2.7295594268   -0.0229501288
 C    1.2349734932   -2.0410359431   -0.0932499779
 C    1.2253578667   -0.6616996544   -0.1127466479
 O    2.3428932644    0.1280054038   -0.1725487816
 H    0.7883713799    1.8670073464    0.1559562314
 H   -0.9153470323    1.7962815507    0.1889692940
 H   -2.1153377124   -2.4741168086    0.0972593958
 H   -0.0101270707   -3.8123219666   -0.0070888203
 H    2.1794184824   -2.5783953104   -0.1320445399
 H    3.1271392532   -0.4303326355   -0.1793462587