19

 C    0.2572155574    1.0669338944   -0.2490440193
 O   -0.3644606635    0.0030846068    0.4458336976
 C    0.4883949460   -0.6455265209    1.3238269077
 C    0.2287014564   -2.0935514288    1.6323122329
 C   -0.6294813359   -2.8841435048    0.6465651771
 C    0.1792199594   -2.8816987930   -0.6337917648
 C    1.3379943649   -2.2340488145   -0.4980021456
 C    1.5030411983   -1.6705442989    0.8719019060
 O    2.7684598455   -1.5811281243    1.4497206086
 H    1.0910231205    0.7087801274   -0.8683929428
 H   -0.5016855302    1.5180266972   -0.8925231289
 H    0.6400512722    1.8313654126    0.4434095467
 H    0.8302452301   -0.0377657644    2.1648879297
 H    0.2741014919   -2.3965565954    2.6718746248
 H   -0.8296675537   -3.9019893221    1.0040825090
 H   -1.6039794211   -2.4047534976    0.4923373514
 H   -0.1926173814   -3.3177136817   -1.5541154903
 H    2.0837325499   -2.0799185142   -1.2694975738
 H    3.1160393933   -2.4760709378    1.5389810442