18

 N   -0.3735639625    1.4357190831   -0.1790487081
 C   -0.2492672705    0.0483483698   -0.0686439078
 C   -1.1784089753   -0.9865700181   -0.0769154964
 C   -2.6775283509   -0.9063223492   -0.0960157783
 C   -3.2891414230   -0.3189956792   -1.3686839626
 O   -3.0453720998    1.0902695577   -1.3797371678
 C   -0.3809538048   -2.1539381791   -0.0005807870
 N    0.9187111393   -1.8933756756    0.0611108383
 N    0.9716566517   -0.5407355296    0.0078528755
 H   -0.0944638626    1.9336985671    0.6587424930
 H   -1.3235857296    1.6783420833   -0.4428586550
 H   -3.0840880404   -1.9154418190    0.0349993016
 H   -3.0544432348   -0.3119851290    0.7479384166
 H   -2.8459545366   -0.7986740964   -2.2518725667
 H   -4.3729794093   -0.5087649123   -1.3815965222
 H   -3.2035609455    1.4231586999   -2.2675827426
 H   -0.7219380109   -3.1803867478    0.0286312852
 H    1.8638053055   -0.0772582054   -0.0236010559