18

 O   -0.0009410345    1.5107674084   -0.2184308069
 C    0.0204837365    0.0949182370   -0.2469093287
 C   -1.3366773268   -0.5150319463    0.1400294889
 C   -1.3084285819   -2.0136490803    0.0738400551
 C   -1.6242035443   -2.8217099682   -1.1463243011
 N   -2.5317191905   -2.9498728622   -0.0127665303
 C   -1.8507325375   -3.9309420343    0.9072393762
 C   -0.6945986048   -2.9284873731    1.0920866732
 O    0.1788528603   -2.7871882293    1.9009542963
 H   -0.0724100787    1.7872216502    0.7006977409
 H    0.2704200883   -0.1805873187   -1.2771773276
 H    0.8066016176   -0.3159156807    0.4026235619
 H   -1.5931397422   -0.2016261161    1.1605468388
 H   -2.1137247605   -0.1244771175   -0.5251095896
 H   -2.0396150016   -2.2656286814   -1.9822378985
 H   -1.0004126476   -3.6678095765   -1.4285572608
 H   -2.4156080070   -4.0646687688    1.8334462391
 H   -1.6441138647   -4.9052998024    0.4554613732