16

 C   -0.0009307657    1.4660744665   -0.0205205205
 C   -0.0178133640   -0.0398791932    0.0483778882
 C   -1.2544978815   -0.8303820581   -0.2960971863
 C   -1.1251303333   -2.0516596248    0.2212542225
 N    0.1749464266   -2.2065957321    0.8674588911
 C    0.6464105195   -0.8015779014    1.1258103030
 C    1.3660858489   -0.7714166802   -0.2208829315
 C    1.1478224895   -2.2355201784   -0.2742838789
 O    1.5728469070   -3.1721624820   -0.8724691362
 H    0.9389008944    1.8739255540    0.3636843365
 H   -0.1232972670    1.8175488088   -1.0499285479
 H   -0.8189873564    1.8824103152    0.5769583165
 H   -2.0896900702   -0.4365987043   -0.8583707938
 H   -1.7702873665   -2.9141825416    0.1376779987
 H    0.9957491561   -0.4891272506    2.1021636284
 H    2.2219822625   -0.2027800178   -0.5586162099