15

 O    0.1124402337    0.0089609392    0.3376719242
 C    0.0072961929    1.2035463761    0.1487137368
 N   -1.1032827851    1.9187178794   -0.2855046952
 C   -0.8381808129    3.2865493651   -0.3302410041
 C    0.4459652949    3.4628243305    0.0437509045
 C    1.2781973949    4.7063205847    0.1209079028
 C    2.0283060246    4.8206218204    1.3720390893
 C    2.6596556046    4.8771867553    2.3926630813
 N    0.9682475268    2.1976654677    0.3119855267
 H   -1.9830597568    1.4699641267   -0.4666903032
 H   -1.5741907997    4.0076715328   -0.6414552212
 H    1.9889851455    4.7413396532   -0.7181148031
 H    0.6188907027    5.5727372519   -0.0034014954
 H    3.2088231381    4.9441071987    3.2992680385
 H    1.8602644655    2.0125257184    0.7375820283