19

 O    0.0103722689    1.4433752954    0.1389685300
 C    0.0145219457    0.0657303737    0.0531469205
 C   -0.8870688738   -0.7402095563   -0.8807896148
 O   -1.0884024944   -1.7502650133    0.1475034996
 C   -0.3461985414   -0.9688235400    1.0908544302
 C    1.0927037627   -0.8251013098    0.6515127546
 C    1.8467358493   -1.8939768263   -0.0722708495
 C    3.2095569911   -1.6153945575   -0.6613065770
 C    3.0783015434   -2.5055138041    0.5496803952
 H    0.7892380759    1.7787975495   -0.3181135586
 H   -1.8266087244   -0.2207517911   -1.0992807905
 H   -0.4584118787   -1.1544144653   -1.8005305685
 H   -0.7111476059   -0.9161219416    2.1098476246
 H    1.6717093553   -0.2625011951    1.3841275504
 H    1.2108484224   -2.5768456431   -0.6254634510
 H    3.4643062868   -2.0692693562   -1.6129305719
 H    3.6339535794   -0.6268384500   -0.5161199705
 H    3.4109213650   -2.1122558560    1.5050373919
 H    3.2401099328   -3.5709495828    0.4298882153