16

 N    0.2753296519    1.0222051348    0.4124247344
 C    0.0750857670   -0.1417506140   -0.0061843070
 O    0.9209680440   -1.0153474866   -0.6742105631
 C   -0.1204728237   -2.0234931415   -0.7651027372
 C   -0.1485249910   -3.0394209868    0.4313762012
 O    0.8629969172   -2.8419085396    1.4222331668
 C   -0.0283743076   -2.0373141269    2.2440171767
 C   -1.1455801586   -2.1238698049    1.1883223081
 C   -1.1000250575   -1.0978491573    0.0018245307
 H    1.2284124141    1.3316396894    0.2126576481
 H   -0.2496783692   -2.3909692280   -1.7831145468
 H   -0.3138008561   -4.0903914062    0.1779803402
 H   -0.2598287530   -2.5501642929    3.1846820186
 H    0.3801794529   -1.0444563126    2.4553085965
 H   -2.1384118547   -2.4346914165    1.5063101079
 H   -2.0488811256   -0.7347899205   -0.3862668150