18

 C   -0.0409827236    1.5202948636    0.0959239671
 C    0.0587641168    0.0319614006    0.0616445179
 C   -0.0232160861   -0.7305255848   -1.1209879840
 O   -0.1437201282   -0.4974497719   -2.3073635949
 O    0.0538828239   -2.1369714967   -0.6778131809
 C    0.1343047639   -2.1591754384    0.6590380049
 C    0.1700216984   -0.8812287197    1.1572919912
 C    0.1327413652   -0.5311906162    2.5714117727
 N   -1.3198116975    0.0496653239    2.8345946463
 H   -1.4382058598    0.8492052403    2.2000379991
 H   -1.9845129101   -0.6725684077    2.5416472358
 H   -1.5093051644    0.3432575494    3.7971596483
 H    0.8196170875    2.0293530700    0.5562194944
 H   -0.1244844965    1.8868692149   -0.9318123227
 H   -0.9417331216    1.9241625712    0.6214250236
 H    0.2526038657   -3.1178415928    1.1447938428
 H    0.2394640660   -1.3756620617    3.2545889079
 H    0.7832501404    0.2935440558    2.8800643105