21

 C    0.0051322405    1.5574288800   -0.0297147542
 C    0.0550939657    0.0289065267   -0.0106002789
 C    0.6627273711   -0.5469791045   -1.2988748667
 C    0.9009243051   -2.0309777097   -1.2123122707
 C    0.8939094118   -2.7092101592   -0.0661005788
 C    0.6651089739   -2.0707714493    1.2785637029
 C    0.8030913273   -0.5281129447    1.2322429929
 C    2.2072374262   -0.1188617172    1.2558636251
 C    3.3625280927    0.2154824976    1.2760032631
 H    1.0143509856    1.9803309865   -0.0609965551
 H   -0.5415570946    1.9190748351   -0.9069725569
 H   -0.4959689235    1.9505583705    0.8615963654
 H   -0.9723788663   -0.3516116009    0.0705329831
 H   -0.0005492904   -0.3237221609   -2.1446406036
 H    1.6098732028   -0.0339972125   -1.5221298395
 H    1.0937133901   -2.5539255053   -2.1461312422
 H    1.0605267191   -3.7836964572   -0.0716683576
 H   -0.3391816126   -2.3251376275    1.6470650595
 H    1.3664548371   -2.4795582437    2.0146047045
 H    0.3228196312   -0.1151315560    2.1292663818
 H    4.3826772671    0.5088718720    1.3005790859