19

 O   -0.1504652067    0.1566339939   -0.7128988810
 C    0.0694181796    0.9977807917    0.1313120299
 C    1.2191751190    1.9111354197    0.1190072331
 C    2.0730410106    2.0781414635   -1.1217075057
 C    2.7136409887    1.4409451087    0.0554398730
 C    3.0879661240    2.4646574233    1.1360532845
 C    1.6193980543    2.9395308953    1.1644180696
 C    1.1111041487    4.3459166983    1.3026547959
 C    0.8486471192    3.3261946171    2.3910142118
 H   -0.6034406072    1.1082485743    1.0108921438
 H    1.7982529999    1.4074152525   -1.9284617905
 H    2.3498533700    3.0863224765   -1.4190679410
 H    3.0289191306    0.4052622553    0.0374428040
 H    3.3951669935    1.9966385305    2.0747474223
 H    3.8418682844    3.2035211044    0.8433153508
 H    1.8329555678    5.1309375090    1.5036132969
 H    0.2757420435    4.6542357663    0.6820781221
 H   -0.1665661335    2.9629296816    2.5102062144
 H    1.3961627538    3.4168780779    3.3239056761