20

 C   -0.0535946755    1.5561020964   -0.2477511410
 N    0.0113156193    0.1074005362   -0.0845503446
 C   -1.0680337497   -0.5049002563    0.7482638596
 C   -0.1453105676   -1.6873500943    1.1709325674
 C   -0.5156977383   -1.5300282337    2.6603145406
 C    0.4846833641   -1.9568333430    3.7147063515
 O    0.0770643120   -1.3840311971    4.9511613805
 C   -0.4779278310   -0.0760128908    2.1445342431
 C    0.7074044175   -0.3797824546    1.1455553042
 H    0.9110279982    1.9193548117   -0.6181106715
 H   -0.8104836759    1.7991955812   -1.0011126884
 H   -0.2973549556    2.1103522543    0.6742053466
 H   -2.1147853067   -0.5486807919    0.4409795675
 H    0.0461751717   -2.5838984624    0.5811152743
 H   -1.5159703872   -1.8890312986    2.9292085651
 H    0.5110716544   -3.0573283278    3.7762559470
 H    1.4971675482   -1.6220836684    3.4364668688
 H    0.6884220371   -1.6750045556    5.6340002051
 H   -0.6693959841    0.8366718268    2.7064198416
 H    1.7813699089   -0.2625130418    1.2989175824