18

 C    0.0767061474    1.6558156978   -0.0112278562
 C    0.0125689788    0.1273855398   -0.0234106049
 O    0.6683933100   -0.2961608010    1.1659109046
 C   -1.4503494631   -0.3757505990   -0.0407046462
 C   -2.2597488062    0.1036177822    1.1503077606
 O   -3.3759218789    0.5473277118    1.0690976953
 C    0.7408154077   -0.4490190684   -1.2705751483
 C    2.1581343597   -0.0988470877   -1.3208164022
 N    3.2786511437    0.1782369615   -1.3675822967
 H    1.1161524447    1.9912142335   -0.0215656816
 H   -0.4407177633    2.0736357784   -0.8793598837
 H   -0.3977135655    2.0453631558    0.8930604451
 H    0.7201404255   -1.2588293831    1.1736768878
 H   -1.9716204052   -0.0797437349   -0.9558019540
 H   -1.4421463512   -1.4762980577   -0.0044683623
 H   -1.7440042724    0.0014476039    2.1280948853
 H    0.6523911257   -1.5428057798   -1.2738570889
 H    0.2545398027   -0.0934623131   -2.1856027735