17

 C   -0.6681720006    0.6427492361    0.1418544693
 O    0.7269858340    0.3827815875   -0.0920165852
 C    0.9882404096   -0.4900312924   -1.0853185210
 C    0.7842104933   -1.8427412420   -1.2336820247
 C    0.1071717964   -2.7855907690   -0.2944381237
 O   -1.3235887949   -2.6768610759   -0.3033595924
 N    1.2846271424   -2.2496451401   -2.4573491736
 C    1.7879888795   -1.1789343364   -3.0213951103
 N    1.6273050896   -0.0738295738   -2.2323425840
 H   -1.0847534490    1.2524899529   -0.6700051919
 H   -1.2288543561   -0.2927797778    0.2205100255
 H   -0.7209332160    1.2008560457    1.0781328447
 H    0.4232713533   -3.8072598273   -0.5413314744
 H    0.3973142804   -2.5784877210    0.7401338029
 H   -1.6047627671   -2.8020654904   -1.2163499778
 H    2.2846980127   -1.1365857595   -3.9789909666
 H    1.9403800826    0.8663584832   -2.4106074868