16

 O    0.0052298425   -0.0927384878    0.0639632875
 C    0.0197389053    1.0865090954   -0.1895056261
 C    1.2484540726    1.9516346321   -0.0409478240
 C    1.5488116062    2.9279108653   -1.1927936543
 N    0.3804015649    3.8366560518   -1.2837357411
 C    1.4475897199    4.1132210452   -0.3044612347
 C    1.1645023993    3.2262347996    0.9244682421
 C   -0.0383979172    3.4694257641    1.6953407684
 C   -1.0299237453    3.6644340584    2.3462482613
 H   -0.8771908625    1.6160320792   -0.5649645651
 H    2.0966078096    1.3208517347    0.2276360027
 H    2.1862261009    2.7439571759   -2.0478381544
 H    0.5322378459    4.4499461477   -2.0833079294
 H    1.9869187642    5.0515989884   -0.3102838264
 H    2.0363656370    3.2016752705    1.5842179753
 H   -1.9102996833    3.8386040995    2.9139949081