17

 C    0.0415758825    1.5015634134    0.1511969091
 C    0.0226364040   -0.0181936458   -0.0196342536
 C    0.6794838969   -0.4770549279   -1.3313266959
 O    2.0212194414   -0.0312017790   -1.4352813729
 C    0.6222705996   -1.9916593548   -1.4708046190
 C    1.5893918116   -2.7262868247   -2.2897176317
 O    1.7227082315   -2.6801649910   -0.8584633488
 H    1.0661431598    1.8781064681    0.0985454079
 H   -0.5355015017    1.9945604064   -0.6394103038
 H   -0.3880771670    1.7975952900    1.1127138306
 H    0.5468985981   -0.5006337103    0.8161540210
 H   -1.0099744582   -0.3907413468    0.0057333109
 H    0.1431533566   -0.0256718440   -2.1774244529
 H    2.5370668714   -0.6373726149   -0.8848091015
 H   -0.3504479690   -2.4473717303   -1.2822976692
 H    1.3245452185   -3.7012621130   -2.6940103926
 H    2.3452258640   -2.1688243555   -2.8367643975