18

 C    0.1239539186    1.5941265868   -0.0151576354
 C    0.0884550187    0.0725877855   -0.0112970120
 O   -1.2577785367   -0.4203501632    0.0000479618
 C    0.7817459131   -0.6283435019   -1.1562211069
 C    2.2645411730   -0.6040424704   -1.1803335478
 N    1.5719188899   -1.7980849102   -0.6816718876
 C    1.4876861276   -1.8276614654    0.7815652565
 C    0.7675411338   -0.5548751080    1.2363293804
 O    0.6564404998   -0.1363970586    2.3592992693
 H    1.1438640874    1.9726197352   -0.1253099036
 H   -0.4853570642    1.9808692336   -0.8365029430
 H   -0.2712077076    1.9726357955    0.9338245486
 H   -1.6909848821   -0.0494395286    0.7784414243
 H    0.2083277358   -0.7734260248   -2.0662376862
 H    2.7914785232   -0.7358795366   -2.1203352341
 H    2.7844477817    0.0304234430   -0.4620894558
 H    0.8932314605   -2.6949372139    1.0934866211
 H    2.4726725377   -1.9156212280    1.2492943005