16

 C   -0.0057740580    1.5137924033   -0.0401773733
 N    1.2457691972    0.7468259939    0.0555734870
 C   -0.0474739360    0.0288493224    0.0061934311
 C   -0.4619593769   -0.7792610082    1.1904857187
 C   -0.9922776739   -1.9500618870    0.8228644211
 C   -1.0438598251   -2.0602013854   -0.6661787650
 N   -1.9182107453   -1.0186817516   -1.2893835921
 C   -0.4571408761   -0.7984999763   -1.1910495670
 H   -0.2557236848    2.0910546680    0.8459065443
 H   -0.2677060024    1.9924407131   -0.9804143799
 H    1.6975316528    0.6987483212   -0.8558031069
 H   -0.3477461794   -0.4133255782    2.2035192688
 H   -1.3763558125   -2.7110764108    1.4905430665
 H   -0.9377158138   -3.0155711792   -1.1684406154
 H   -2.1270836273   -1.3060245322   -2.2454536231
 H    0.1365174015   -0.7588363129   -2.0999101848