12

 O   -0.8497922154    1.3060505411    0.2034826588
 C    0.2607386281    0.9527828288   -0.0948743936
 C    1.4678121688    1.8899338439   -0.2438239252
 O    2.5310402003    1.3870505667   -0.5513827055
 C    1.2890382755    3.3191572804   -0.0136530710
 C    0.1778593526    4.0424644582    0.3339500954
 O    0.4769695619    5.3300737858    0.4372628280
 N    1.8447890290    5.5158379824    0.1522359182
 C    2.3020188005    4.3249768063   -0.1096344344
 H    0.5341892305   -0.1029374621   -0.2969917645
 H   -0.8433233395    3.7584674090    0.5275014748
 H    3.3431915577    4.1896085895   -0.3634057709