16

 C   -0.0301034664    1.4863638848    0.1035428401
 C    1.3580720093    2.1660086242   -0.0278903460
 C    2.1626024011    1.4184676752   -1.0389743525
 C    1.9842152846    0.0810883579   -1.3224417904
 C    0.9301346156   -0.6876535520   -0.6865815433
 C    0.0017654921   -0.0289646875    0.0210577966
 N    2.9357778059   -0.3149158871   -2.2161999876
 N    3.6939733359    0.7040050098   -2.5035117367
 N    3.2326002614    1.7610173533   -1.7835314170
 H   -0.4989162010    1.8074310832    1.0386900057
 H   -0.6830898362    1.8566855118   -0.7017831334
 H    1.2361884746    3.2232048320   -0.2843991885
 H    1.8814768111    2.1359521358    0.9389412734
 H    0.9207752805   -1.7662908101   -0.7948392282
 H   -0.8077997852   -0.5675392842    0.5032771167
 H    3.6967830465    2.6508108030   -1.8737440291