18

 O    0.0973281736    1.3628385539    0.5196693891
 C    0.0762222075    0.0127212938    0.1605183691
 C   -1.3293322030   -0.4881823697   -0.0998489983
 N   -2.2845701372    0.3381687229   -0.0594884378
 C   -3.6953259945    0.0056840181   -0.1182418773
 C   -4.1259670197   -1.0229111227   -1.1584014752
 O   -3.5770635900   -2.3095943816   -0.9058505031
 C   -2.2403078274   -2.4160243395   -1.2384447730
 O   -1.3310876214   -1.8343596267   -0.3028249217
 H   -0.8286969111    1.6482874188    0.4466179944
 H    0.6739316585   -0.1715837788   -0.7476691663
 H    0.5146578359   -0.6173809520    0.9498326793
 H   -4.0039909660   -0.3577777726    0.8718986201
 H   -4.2534243714    0.9309740892   -0.3030054514
 H   -5.2129126372   -1.1421536943   -1.1264458438
 H   -3.8420173882   -0.6876782241   -2.1681448581
 H   -1.9853550175   -3.4764126881   -1.2390377137
 H   -2.0452210110   -1.9651990765   -2.2250123822