14

 O   -0.1497517479    0.0127264719   -0.6327971879
 C   -0.1084237956    1.1727357648   -0.2777319491
 N   -1.1034382920    2.1140108963   -0.1574465791
 N   -0.6667528814    3.3408185797    0.2895439038
 C    0.6096704204    3.1773542566    0.4447240969
 N    1.0196503520    1.9077551934    0.1238816200
 C    2.3531449481    1.3286745368    0.1499163945
 C    3.0645153884    1.5893819662    1.3962137327
 C    3.6614396901    1.8252693336    2.4109332868
 H   -2.0783653474    1.9627778549   -0.3468919448
 H    1.2806480887    3.9427278960    0.8007408490
 H    2.2033497803    0.2541983757   -0.0065886525
 H    2.9420300472    1.6976536185   -0.6997553012
 H    4.1878379790    2.0173213555    3.3134766910