18

 O   -0.1477672389    1.5236260421   -0.0653370917
 C    0.0451812014    0.1231126986    0.1162258123
 C   -1.3130461312   -0.5371955473   -0.0348470608
 C   -1.9723208881   -0.6539174223   -1.4463038491
 C   -2.1761408372   -2.1582337860   -1.2167167273
 C   -0.8635792968   -2.8387864628   -0.9873011142
 O    0.3298313517   -2.4448868763   -1.6110637462
 C   -1.4359249921   -2.0571259296    0.1478047125
 H    0.7172517516    1.9422579721   -0.0863941931
 H    0.7462165923   -0.2877251008   -0.6192332349
 H    0.4451643609   -0.0954311111    1.1211323209
 H   -2.0082016603   -0.0302380378    0.6416829160
 H   -2.9052941696   -0.0944359858   -1.5253559274
 H   -1.3325270364   -0.3915311286   -2.2939089663
 H   -3.0719655341   -2.7149298057   -1.4674328665
 H   -0.9473050460   -3.9173238737   -0.8438015239
 H    0.2506533406   -2.6436294890   -2.5503433969
 H   -1.6671951680   -2.5415220758    1.0901945265