16

 C   -0.1404624757    1.5447027516   -0.0068212632
 C    0.0528716805    0.0174553179   -0.0208103527
 C    0.7522255261   -0.5129487725    1.1936597106
 C    2.0376073588   -0.9179670089    1.3513472559
 O    2.2751020764   -1.3356668488    2.6013093211
 N    1.0973076343   -1.2029267741    3.3474361973
 C    0.2068331716   -0.7281045643    2.5046678046
 N   -1.1176697307   -0.5601933638    2.8801424402
 H    0.8241757258    2.0591968725    0.0347700886
 H   -0.6700244536    1.8791124695   -0.9042084344
 H   -0.7211022158    1.8726184126    0.8625733588
 H   -0.9250618306   -0.4714504121   -0.1141175887
 H    0.6201752029   -0.2634245965   -0.9145711840
 H    2.8737736808   -0.9732347830    0.6698958219
 H   -1.2471284863   -0.6245746616    3.8815787383
 H   -1.5526880445    0.2708007914    2.5052223457