19

 C   -0.2507655512    1.3667079143   -0.7257507681
 C   -0.0531799866    0.0146952342   -0.0715621384
 C    1.0738013556   -0.8435207382   -0.5524330110
 N    1.1411115556   -0.2070666345    0.7743348192
 C   -1.2793589795   -0.6198433892    0.4755430174
 C   -2.5969755675   -0.6157221050    0.0634762451
 C   -3.3309201364   -1.4270613090    0.9738040426
 C   -2.4421507266   -1.8976824102    1.9135632248
 N   -1.2038097867   -1.4056961122    1.5962459735
 H    0.6948542730    1.7527690251   -1.1205601540
 H   -0.9560718997    1.2969296558   -1.5599672713
 H   -0.6536157537    2.0907329754   -0.0103274046
 H    0.9711523590   -1.9245538962   -0.5346425264
 H    1.7074480651   -0.4576924542   -1.3473596172
 H    1.7481493551    0.6079193407    0.7476753180
 H   -2.9904536775   -0.0983171498   -0.7981058188
 H   -4.3889197297   -1.6380977630    0.9413935095
 H   -2.5866081288   -2.5301396600    2.7746650877
 H   -0.3454233296   -1.5052834039    2.1139957320