21

 C   -0.0604910143    1.5830197357    0.0852409955
 C   -0.0199351765    0.0458068258    0.0351590289
 C    0.7320803324   -0.5011168322    1.2615342403
 C   -1.4536892689   -0.5178653128    0.0214400757
 O   -2.1012040555   -0.1159799744    1.2206541006
 C    0.6846137979   -0.4544265106   -1.2633747771
 N   -0.0088677909   -0.0177528675   -2.4806229785
 C    2.1160867266   -0.0762398779   -1.2756540312
 N    3.2258899722    0.2427341686   -1.3427501701
 H    0.9489928488    2.0058199376    0.0800022752
 H   -0.6171638009    2.0017883433   -0.7599936850
 H   -0.5662599078    1.9060017129    0.9971137999
 H    0.1878207856   -0.2434226329    2.1717999030
 H    0.8164613347   -1.5933115102    1.2191321208
 H    1.7414523903   -0.0861384839    1.3285357231
 H   -1.9837806252   -0.1493685043   -0.8644578187
 H   -1.4091370480   -1.6180342655   -0.0496700405
 H   -3.0312130442   -0.3472284258    1.1505058065
 H    0.6493593359   -1.5508572188   -1.2500468930
 H    0.1386333795    0.9766761965   -2.6245561967
 H    0.3911769484   -0.4837601935   -3.2892943688