11

 C    0.0413961767   -1.1888500342   -0.0042245507
 C    0.0131254464    0.0144995068    0.0026559359
 C   -0.0335510012    1.4294501231    0.0109200006
 C   -1.1587195178    2.2254265221    0.0305191942
 N   -0.6931543596    3.5151155177    0.0311364296
 C    0.6717320606    3.4549891656    0.0122414179
 N    1.1060023918    2.2209353728   -0.0003316047
 H    0.0744623418   -2.2498161390   -0.0104044875
 H   -2.2085444882    1.9875396899    0.0435206235
 H   -1.2573299970    4.3483025789    0.0433142448
 H    1.2865484864    4.3426146962    0.0086591565