19

 C   -0.0900023691    1.5600284172   -0.1459308076
 C   -0.0107640274    0.0420687387   -0.0495048296
 C   -1.3640500890   -0.5882781148    0.2722550153
 C    0.6937441072   -0.6795433614   -1.2191779571
 N    2.0751385667   -0.1589198118   -1.2845517529
 C    1.7453754398   -1.2376226359   -0.3318448536
 C    1.1297525151   -0.5617613182    0.9041043269
 C    1.9720401858    0.3499131145    1.6616836515
 N    2.6273997343    1.0761135758    2.2781575931
 H    0.8767592216    1.9825159512   -0.4250222431
 H   -0.8288614692    1.8518052822   -0.9007178237
 H   -0.3956273182    1.9980622119    0.8098877799
 H   -2.1020994198   -0.3218416498   -0.4923158299
 H   -1.3020683865   -1.6814316095    0.3104031546
 H   -1.7402618571   -0.2341103475    1.2377046888
 H    0.2157494857   -1.1186094804   -2.0868933763
 H    2.5358758904   -0.5887396899   -2.0853861893
 H    2.2612695072   -2.1887670871   -0.3520273905
 H    0.6928393525   -1.2928613054    1.5890260035