18

 C    0.0712561078    0.9753532863   -0.3489080077
 O   -0.4274132147   -0.1333552844    0.3902615199
 C    0.4800280923   -0.6132853346    1.3237321472
 C    0.2457299591   -1.9993566575    1.8251552970
 C    1.4429327007   -1.7197617634    0.9338439103
 C    1.4311631981   -2.2350283342   -0.4904994192
 O    2.2468024810   -1.4765901525   -1.3725640814
 C    1.8148009174   -3.6631862900   -0.5323200383
 N    2.1489337293   -4.7692250430   -0.5579188004
 H    0.9643561125    0.7006277704   -0.9223952635
 H   -0.7241758146    1.2827690675   -1.0307746788
 H    0.3134772420    1.8159616108    0.3175567338
 H    0.8513074757    0.1375806915    2.0227026645
 H    0.4172340126   -2.2219961974    2.8713758754
 H   -0.5847705432   -2.5356431906    1.3781089937
 H    2.4225154366   -1.7250583129    1.4053690216
 H    0.4159830101   -2.1401213822   -0.8873645892
 H    3.1610516473   -1.5470611738   -1.0742648451