19

 C    0.1315443820    1.4909890008    0.2061274788
 C    0.2179998740   -0.0353038795    0.1124347347
 C    0.5998625664   -0.5155764408   -1.2869511462
 C    2.1055250591   -0.3441979784   -1.6541225186
 C    2.3417848656   -1.8483301501   -1.3601162456
 C    0.7987827621   -2.0702980857   -1.4355272995
 C    0.1791486103   -2.9535162017   -0.4627052141
 N   -0.3077901357   -3.6453338489    0.3263101665
 H    1.0845167710    1.9662259735   -0.0501958093
 H   -0.6289778168    1.8851416920   -0.4769316050
 H   -0.1339739991    1.8071255330    1.2190976771
 H    0.9443211474   -0.4111736381    0.8446409814
 H   -0.7457863510   -0.4772797529    0.3916288886
 H   -0.1039976199   -0.1028803709   -2.0159582018
 H    2.2543980978   -0.0969511156   -2.7082194666
 H    2.6731464597    0.3667624536   -1.0497063662
 H    2.9440708108   -2.4200216743   -2.0679261552
 H    2.7234803582   -2.0244828829   -0.3527557882
 H    0.5045553680   -2.3960586632   -2.4373176011