20

 C   -0.1180127571    1.5668031820    0.0345094610
 C   -0.0354599095    0.0392928570   -0.0206921942
 C    0.7559967440   -0.4716120532   -1.2316242974
 C    0.8197283833   -1.9910417039   -1.2872487882
 C   -0.4564699912   -2.7665117954   -1.6879108758
 O    0.2351198439   -3.4419097235   -2.7669394804
 C    1.4385482416   -2.6906050180   -2.5388145664
 C    1.7856982250   -1.8237205806   -3.6718326253
 N    2.0683656189   -1.1337656074   -4.5549915556
 H    0.8798989847    2.0149663512    0.0922512535
 H   -0.6088056008    1.9688889752   -0.8583048046
 H   -0.6856495250    1.9024340232    0.9075495252
 H    0.4275948686   -0.3390378632    0.9002720345
 H   -1.0499057031   -0.3807663284   -0.0445914943
 H    0.3058693731   -0.0892297243   -2.1564260332
 H    1.7758307200   -0.0665070694   -1.2004948772
 H    1.2723349919   -2.3852075044   -0.3734504827
 H   -0.8540339988   -3.4783251997   -0.9577378274
 H   -1.2730674990   -2.1383835629   -2.0654051789
 H    2.2929562596   -3.3464709243   -2.3337645625