19

 C   -0.2068693076    1.4903685371    0.0189354271
 C    1.2241375403    1.0511040462   -0.0704841808
 C    0.1099699608    0.0086854533    0.0019128795
 C   -0.0988713389   -0.7622817545    1.3068224713
 C    0.1522333189   -2.2610288049    1.1906652238
 O   -0.9889317993   -3.0565283295    0.8507687059
 C    0.0682665815   -2.9136632840   -0.1227945117
 C   -0.1953738973   -2.0753852642   -1.3173216606
 C   -0.1606653880   -0.7424654001   -1.2473790167
 H   -0.5573621003    1.9084579725    0.9572131242
 H   -0.6713589963    1.9239207381   -0.8606444584
 H    1.7446568619    1.1737802619   -1.0140060471
 H    1.8560246020    1.1637013152    0.8042417778
 H    0.5383707383   -0.3416356519    2.0914941958
 H   -1.1362468885   -0.6384913824    1.6397500906
 H    0.7854617976   -2.7078469435    1.9566334947
 H    0.6247863360   -3.8350707677   -0.2932891804
 H   -0.3920414191   -2.5761666942   -2.2602474420
 H   -0.3137254117   -0.1481528573   -2.1460294331