16

 O   -0.6242795616    1.5457211236    0.8877754500
 C    0.1888346533    1.0988832452    0.1213072713
 C    1.2533171266    1.9520151550   -0.5833823982
 O    1.9413237922    1.4169549543   -1.4204439522
 C    1.3178960145    3.4138639031   -0.2195491854
 C    1.5292472900    3.8427435525    1.2872291511
 C    2.7843108338    4.5965435349    0.8333787647
 N    3.6723516079    3.5666838382    0.2485010545
 C    2.5998286846    4.1665196021   -0.5801927024
 H    0.2323130199    0.0284430601   -0.1729069178
 H    0.4166021236    3.8990991417   -0.6089996475
 H    0.7211968410    4.4811883497    1.6447696947
 H    1.7082784472    3.0388483563    2.0034831428
 H    3.1836321979    5.5195325084    1.2339612871
 H    4.5439097985    4.0236029484   -0.0176313070
 H    2.8288460706    4.6730252765   -1.5084848755