13

 O    0.1431020202    1.3484312193    0.1227040166
 C    0.0286897830   -0.0398409506    0.0426013463
 C   -1.4126494008   -0.4914369987    0.0446829929
 O   -2.3250541009    0.3020182923    0.0867711824
 C   -1.7572757369   -2.0014588341    0.0125884676
 O   -3.1326983683   -2.1932520881    0.1137580743
 C   -1.2003199983   -2.5987923839   -1.2201901051
 N   -0.7482713584   -3.0539307853   -2.1810228939
 H   -0.7574321894    1.7024669496    0.1313779689
 H    0.5066478316   -0.4324045820   -0.8694932417
 H    0.5378922249   -0.5302089268    0.8894651456
 H   -1.2480062086   -2.4776066258    0.8648379159
 H   -3.5303221380   -1.3124219360    0.0116540202