19

 C    0.0212402767    1.5352270615    0.0050253753
 C    1.2715082216    0.6873453100   -0.0554240310
 O    2.1070897083    0.4432163439    1.0323859421
 C    2.4505653439   -0.9574912551    1.1461342658
 O    1.7970357885   -1.8250679635    0.2635921013
 C    0.3635323692   -1.9498333090    0.3020256953
 C   -0.2926299793   -0.8681495300    1.1889249715
 C   -0.0751137577    0.0349184705   -0.0277557268
 C   -0.2324778122   -1.1919930117   -0.9351641156
 H   -0.2584817729    1.9934160960    0.9484258155
 H   -0.1966675823    2.1392255405   -0.8702245247
 H    1.7789682546    0.6948318781   -1.0207713589
 H    3.5137828823   -1.0739344904    0.9088323654
 H    2.2769241948   -1.2260157100    2.1977426220
 H    0.1155165010   -3.0044795183    0.4497133420
 H   -1.3520372748   -1.0922836870    1.3461426890
 H    0.1680124965   -0.6006742771    2.1395845836
 H    0.3484625140   -1.2279024938   -1.8589963163
 H   -1.2685083221   -1.4942166946   -1.1207039357