18

 C    0.1267416805    1.4271330136    0.0890166324
 C    0.0377794106   -0.0476896368   -0.0634151412
 N   -0.0488252362   -0.7437437070   -1.1587363006
 C   -0.0825222742   -2.0561767403   -0.7091800949
 C   -0.0173310490   -2.0788024317    0.6317798163
 C   -0.1078772729   -3.4157235930    1.2718593839
 C    0.0010596791   -4.3221900666   -0.0131212328
 C   -0.2281330683   -3.4276495596   -1.2884983573
 O    0.0569777150   -0.7982867274    1.0906101495
 H    1.0649767158    1.7204743750    0.5721918277
 H    0.0781431960    1.8859762012   -0.8987801050
 H   -0.6936013310    1.8123408952    0.7036827995
 H    0.6908060739   -3.6310132991    1.9897310068
 H   -1.0587727896   -3.5633366506    1.8004147251
 H    1.0050764056   -4.7521743980   -0.0544915212
 H   -0.7023303082   -5.1566286244    0.0286922453
 H   -1.2239294085   -3.5846511890   -1.7214162409
 H    0.4969598312   -3.6578581115   -2.0756476024