17

 C    0.0129259742    1.5501779170    0.0995179754
 N    1.2791477492    0.7934164988    0.1600881072
 C    0.0240815507    0.0694461644    0.0066473016
 C   -0.4612808136   -0.8557191658    1.1675512260
 N   -1.6972141660   -1.5234080423    0.6614889979
 C   -1.5611063593   -1.4342817275   -0.5883519626
 O   -2.4080468976   -1.4338266588   -1.6631824573
 C   -1.5140267144   -0.4324917247   -2.2985646711
 C   -0.4191127123   -0.7151382930   -1.2240236183
 H   -0.2771816376    2.0326369259    1.0290240276
 H   -0.2118100082    2.1217222869   -0.7976895571
 H    1.7748012789    0.8587651720   -0.7251286711
 H    0.3139705133   -1.5853221399    1.4340037669
 H   -0.7032226617   -0.2872958579    2.0694735584
 H   -1.2777804928   -0.7206777992   -3.3236653738
 H   -1.9818283016    0.5538512154   -2.2559559596
 H    0.3706652288   -1.3624617012   -1.6175767002