25

 C    0.3983536284    1.5167753485    0.1263554296
 C    0.1114947342    0.0149605231    0.0019722148
 C    0.7533750193   -0.6031528943   -1.2268573478
 C    2.0022139632   -1.4696625893   -1.1328760078
 O    2.5250898250   -1.8063367512    0.1151518078
 C    3.5421356741   -0.9264133506    0.5487147277
 C    0.6950100235   -2.1001423859   -1.5240104206
 C    0.0126456508   -3.0369618436   -0.5439029453
 C    0.5307426645   -2.5070623120   -2.9774836347
 H    1.4735171584    1.7160748286    0.1901647455
 H    0.0151590805    2.0652112627   -0.7414583499
 H   -0.0735132453    1.9370621579    1.0201385500
 H    0.4642266965   -0.5013105083    0.9000571259
 H   -0.9752593454   -0.1368427158   -0.0340358092
 H    0.7020324831    0.0319235422   -2.1103945290
 H    2.7657470697   -1.3537776369   -1.9054583246
 H    4.3891402404   -0.9144320212   -0.1542743265
 H    3.1755695392    0.1030181808    0.6638534830
 H    3.8930036390   -1.2915555838    1.5170174879
 H    0.2405221832   -2.7889411114    0.4927921856
 H   -1.0752996419   -3.0138217125   -0.6768739110
 H    0.3428345461   -4.0681440883   -0.7141350399
 H    0.9206946831   -3.5171494964   -3.1515795828
 H   -0.5269518119   -2.5042200322   -3.2676332479
 H    1.0592741323   -1.8243144204   -3.6505754909