19

 C    0.3061091541   -0.3938700229    1.2403756385
 N   -0.2171569860   -0.1484706595   -0.1111449239
 C    0.5923678152   -0.6086023334   -1.1652040446
 C    0.7941722047   -1.8727484519   -1.6833569433
 O    0.1764808797   -2.9860689821   -1.1744262278
 C    1.6893860810   -1.7712817915   -2.7772534235
 C    2.0163011270   -0.4342011531   -2.8942483681
 N    1.3525519672    0.2687250954   -1.9316546724
 C    1.4491192609    1.6931552613   -1.6988787073
 H    0.4914438881   -1.4565343966    1.4518092249
 H    1.2484331168    0.1475693344    1.3669092169
 H   -0.4066801726   -0.0070004766    1.9757301599
 H   -1.1485797696   -0.5404216971   -0.1911075520
 H    0.4258203720   -3.7420244123   -1.7127988070
 H    2.0479723798   -2.5730651739   -3.4058171183
 H    2.6748836315    0.0658145951   -3.5865515335
 H    1.4447986944    2.2293860727   -2.6517721818
 H    0.5862867529    1.9989389522   -1.1052718670
 H    2.3628675229    1.9571268897   -1.1525233598