16

 O   -0.0195179422    1.4232894449   -0.0594424065
 C    0.0422231593    0.0334696024   -0.0190468961
 C   -0.3862304057   -0.7498037767    1.1874904415
 C   -1.2478734224   -0.7461754229   -0.0556935046
 N   -2.5702586512   -0.0480818469   -0.0928659783
 C   -2.8089687164    0.1927854380   -1.5213857185
 C   -3.0928183783   -1.1722530326   -0.9921900936
 C   -1.7882987573   -1.9194800316   -0.8280302657
 O   -1.4156776781   -3.0356736112   -1.0506144818
 H   -0.8665026481    1.6989504908    0.3116639221
 H    0.8820903591   -0.3305509893   -0.6013511188
 H    0.1293051537   -1.6761591694    1.4197192303
 H   -0.7783953629   -0.2033443517    2.0394974898
 H   -3.6741271585    0.8183575600   -1.7206666622
 H   -1.9565572773    0.3574232157   -2.1747376080
 H   -4.0950239739   -1.5742930296   -0.9048633697