19

 O   -0.3400977365    0.0760827511   -0.2737906620
 C   -0.1811272727    1.2381101245   -0.0515290342
 C   -1.0476223829    2.4141732527    0.4069142990
 O    0.1069563681    3.2713129599    0.3289743587
 C    1.0056558782    2.2066604437   -0.1170368771
 C    2.1934451493    1.9792019169    0.8523223090
 C    3.4674304090    2.0022543165   -0.0167255121
 C    3.0797512438    2.8858153744   -1.2132244774
 C    1.6345664568    2.4497733634   -1.5036915883
 H   -1.8494305111    2.7002732443   -0.2860929989
 H   -1.4579833810    2.3331837340    1.4217369512
 H    2.1793409816    2.8157599663    1.5578926701
 H    2.0866325434    1.0573734594    1.4305053720
 H    4.3393241932    2.3704781100    0.5304822839
 H    3.7044458401    0.9904991099   -0.3657592630
 H    3.1007061455    3.9434166796   -0.9244896985
 H    3.7428605615    2.7649755789   -2.0740859587
 H    1.6351794659    1.4994618883   -2.0521669104
 H    1.0473476178    3.1713292962   -2.0758797135