20

 C    0.0956506303    1.5063034866   -0.3213694172
 C   -0.1397516687    0.0060282533   -0.2917734489
 O    0.9338206623   -0.6251763790   -0.9820375023
 C    0.8178915565   -2.0140712475   -1.1636939290
 C    1.1007701201   -2.8507742108    0.0607382957
 C   -0.1739903456   -2.4800424465   -2.2184871252
 C    1.3115313911   -2.4217723340   -2.5248785064
 O    1.8081334226   -1.4409155956   -3.3764815191
 H    1.0500329363    1.7557713711    0.1508725366
 H    0.1159031604    1.8744313967   -1.3514198454
 H   -0.7032903412    2.0260359129    0.2157010755
 H   -0.1838432631   -0.3547328427    0.7458418459
 H   -1.0951071212   -0.2520734933   -0.7708073976
 H    0.3289316462   -2.7240692046    0.8283721660
 H    1.1305013281   -3.9122534153   -0.2014174248
 H    2.0674271780   -2.5771398713    0.4960682215
 H   -0.6565051854   -3.4438326801   -2.0915928069
 H   -0.7832189357   -1.7203390226   -2.6966659282
 H    1.8550735985   -3.3584894893   -2.6150774321
 H    1.7479329806   -0.6118357380   -2.8812591982