10

 N    0.0191839129    1.3688025048    0.1587142355
 C   -0.0296522992   -0.0065935241    0.0418354259
 N   -1.1237742506   -0.7468995835    0.0410434632
 C   -0.6222471845   -2.0162424765   -0.0137292605
 N    0.6898898698   -2.1163151047   -0.0551193781
 N    1.0642183678   -0.7986439090   -0.0165064290
 H    0.7187161503    1.8239558807   -0.4115604224
 H   -0.8949801071    1.7772074080    0.0187939022
 H   -1.2551503103   -2.8911518316   -0.0298826596
 H    2.0392170808   -0.5554122740    0.0224123929