18

 C   -0.0144051863    1.4964280458    0.0952655365
 C   -0.0569422328    0.0017636845   -0.0445660931
 C    0.3175097792   -0.8058564324   -1.3201707484
 C   -0.3660263607   -1.9536730067   -0.5176921443
 C    0.5585685205   -2.0301811274    0.7015630457
 O    0.7556923708   -0.6251383860    0.9667533945
 C   -1.3560744243   -0.8453757084   -0.0216844775
 O   -1.9861267153   -0.9549621069    1.2241428105
 H    1.0150577852    1.8596259434    0.0217186526
 H   -0.6102864991    1.9748553267   -0.6872004292
 H   -0.4132712184    1.7929561760    1.0697773283
 H   -0.2354948336   -0.5089188630   -2.2132857915
 H    1.3838507363   -0.9015443937   -1.5329503903
 H   -0.6953666699   -2.8864375573   -0.9746225752
 H    0.0861562030   -2.5083679127    1.5659959746
 H    1.5191254621   -2.5142288889    0.4908507876
 H   -2.0498408824   -0.5399187791   -0.8144837866
 H   -2.7797747742   -1.4885519638    1.1196988259