15

 C    0.0085197270    1.4499778415   -0.0147136479
 N    0.0047591682    0.0027127047    0.0692351120
 N   -0.0328769901   -0.7394843745   -1.0692473473
 N   -0.0288739084   -1.9865966449   -0.7309326562
 C    0.0132246203   -2.0667252072    0.6356915687
 C    0.0297128616   -3.2899542618    1.3510914462
 N    0.0442911610   -4.2646346855    1.9757761366
 C    0.0345382788   -0.7862840015    1.1662004207
 C    0.0790919740   -0.2931180720    2.5692066004
 H    0.9161597951    1.8601802346    0.4364489617
 H   -0.0225126274    1.7090123354   -1.0725043616
 H   -0.8663985238    1.8679841137    0.4906703814
 H    0.9716679315    0.3147605852    2.7537880699
 H   -0.7961452181    0.3211921708    2.8076908125
 H    0.0969523205   -1.1408389487    3.2565664529