18

 O   -0.7934856480    0.6690977823   -0.4689308957
 C   -0.0245549165    1.1117472205    0.3457558176
 C    1.1516026435    2.0183757813    0.0295683434
 C    1.0496065729    2.8144326291   -1.2941317260
 C    0.7805352485    4.2330937115   -0.7846008943
 C   -0.5360138810    4.2592281894    0.0581719001
 C    0.3208091728    4.0291099238    1.3114083489
 C    1.5760495586    4.3176749891    0.5544752659
 N    1.3656396842    2.9962876940    1.1258685199
 H   -0.1143921687    0.8616989639    1.4261705660
 H    2.0300248239    1.3565273907    0.0261122551
 H    1.9878808761    2.7627493223   -1.8551646426
 H    0.2473788951    2.4251018184   -1.9264203710
 H    0.9015669441    5.0258091216   -1.5214255374
 H   -0.9813592360    5.2570247997    0.0830706792
 H   -1.3121524418    3.5289245207   -0.1909611791
 H    0.0498885801    4.2639952657    2.3346633537
 H    2.4594374019    4.8957747161    0.7978616563