15

 O   -0.1975804698    1.4147463519   -0.0058831556
 C   -0.0908668720    0.0273109561    0.0286721095
 C   -0.3964123870   -0.8153966974   -1.1815075498
 C   -1.3204222227   -0.8376914738    0.0219801771
 C   -1.0616346132   -1.9231142343    1.0474453106
 O    0.3535852421   -1.9267247718    1.2498780341
 C    0.8317351326   -0.6004636661    1.0661214846
 H    0.5285126507    1.7581520433   -0.5374339438
 H   -0.7647160186   -0.2849678303   -2.0526505545
 H    0.2194571003   -1.6858975512   -1.3868169498
 H   -2.3047402089   -0.3937458594   -0.0604857812
 H   -1.5967822996   -1.6954979569    1.9833900380
 H   -1.3411233586   -2.9316465240    0.7255247899
 H    1.8820296890   -0.6728124945    0.7618029828
 H    0.7727293457   -0.0040724517    1.9912066078