19

 O    0.0919351920    1.3466372698   -0.0017423618
 C    0.0381725628   -0.0821381836    0.0318950413
 C    0.8520731849   -0.5482218368   -1.1820026773
 C    2.3009675660   -0.1114818559   -1.1144910319
 O    3.2374638532   -0.8699306785   -1.1556498636
 C    0.5698374896   -0.5997643713    1.4005184318
 C   -0.6855961647   -0.7052335451    2.2333408513
 C   -1.7831847232   -0.6777506159    1.4756908203
 C   -1.4451856913   -0.5493100555    0.0092014799
 H   -0.3845818063    1.6711592588    0.7710812011
 H    0.8198597757   -1.6362441975   -1.2770469820
 H    0.4049643094   -0.0985386931   -2.0788512614
 H    2.4489064201    0.9843601606   -1.0187488161
 H    1.0589056675   -1.5782866096    1.3006591485
 H    1.3210119678    0.0876200489    1.8047383646
 H   -0.6687137201   -0.8235961155    3.3108585670
 H   -2.8003355555   -0.7698626307    1.8395370272
 H   -2.0590410467    0.1770979544   -0.5339703307
 H   -1.5593771311   -1.5141645435   -0.5038040980