14

 O    0.0670867163   -0.0024624283    0.1814756850
 C    0.0117904035    1.1714836199   -0.0577460956
 O   -1.1838903123    1.7947445580   -0.1822245438
 C   -1.2512578915    3.0353418313   -0.9104784975
 C   -0.2736924030    4.0874274101   -0.3981474638
 C    1.1218094062    3.4987929825   -0.2843964102
 O    1.4263102757    2.9013691661    0.9724756925
 C    1.2469122393    2.0344961511   -0.1579450459
 H   -1.0639395317    2.8244858135   -1.9711215940
 H   -2.2876101674    3.3634021626   -0.8095158568
 H   -0.2799908734    4.9397284328   -1.0852571421
 H   -0.5809171133    4.4515125405    0.5872301771
 H    1.9485164847    4.0515902397   -0.7277981062
 H    2.1369554669    1.5005974202   -0.4797243485