21

 C   -0.0516463409    0.7092095195   -2.1416242900
 C    0.0820325703   -0.3627238781   -1.0833735332
 C    1.3408424841   -0.6096119280   -0.3070434329
 C    2.6120110954    0.1867017852   -0.4995152685
 C    0.1380423803    0.0089033113    0.3924034769
 C   -0.0155279922    1.3805414840    1.0761817172
 C   -0.8528464287    0.6975310628    2.2087343272
 C   -0.6607393902   -0.6471548749    1.4749213317
 O   -1.0102718902   -1.7771848523    1.6822278433
 H    0.5122516949    1.6120017929   -1.8937088671
 H    0.3108158773    0.3463741713   -3.1097508901
 H   -1.0997978312    1.0002354628   -2.2687631586
 H   -0.5145713919   -1.2526672576   -1.2723596700
 H    1.5040308494   -1.6485605172   -0.0282294662
 H    2.4156649074    1.2396365960   -0.7171742621
 H    3.2347623493    0.1472319829    0.4005856309
 H    3.2024836002   -0.2194147300   -1.3282045933
 H    0.9185947917    1.8308159976    1.4205948250
 H   -0.5684239413    2.1252189462    0.4984726255
 H   -0.4104825970    0.7240424433    3.2084756034
 H   -1.8966122367    1.0151066423    2.2838617208