19

 C    0.0187372857    1.4631684286    0.1205366441
 C    1.3379018745    0.7743371047   -0.0545008698
 C    1.7539593153    0.1284781901    1.2724207202
 C    0.4477480118   -0.7358838151    1.2245549376
 C    0.6349753515   -2.2586280551    1.1168709931
 O    0.3878906451   -2.7205267412    2.4345757748
 C   -0.6428585987   -1.8868887347    2.8982537710
 O   -0.4182790214   -0.6029728598    2.3513118966
 C    0.0296155887   -0.0305781392   -0.0619305051
 H   -0.2548076137    1.8917747934    1.0808125786
 H   -0.3412659616    2.0198635793   -0.7386650906
 H    1.9967253122    0.9822200188   -0.8874260537
 H    2.6625477877   -0.4763127214    1.2210447024
 H    1.8238436635    0.8075723713    2.1270051039
 H   -0.0955177408   -2.6843173402    0.4086944734
 H    1.6392158349   -2.5652873770    0.8204949343
 H   -1.6302239872   -2.2649840074    2.5747604895
 H   -0.5987324037   -1.8435449810    3.9913327805
 H   -0.4837548538   -0.5087398643   -0.8891718608