21

 C   -0.0172271185    1.4731957721   -0.2851858357
 C    0.0514857423   -0.0052513556    0.0299525726
 O   -1.0891133658   -0.7029465470   -0.4179185660
 C    1.3667812104   -0.7532064372    0.0014429356
 C    0.6397667933   -0.5361125061    1.3195387992
 C    1.2412864064    0.4108073235    2.3409218871
 C   -0.0448548174   -1.7542925774    1.9483018458
 C    0.8912449201   -2.6441854234    2.6291298656
 C    1.6741995948   -3.3678224882    3.1853460459
 H    0.8669979295    2.0142180672    0.0573830131
 H   -0.0912988847    1.6215541235   -1.3697954965
 H   -0.9025846857    1.9239424103    0.1746121265
 H   -1.0530101923   -0.7360303030   -1.3801614782
 H    1.3580215703   -1.7548812658   -0.4159889802
 H    2.2813493403   -0.1961044059   -0.1772352813
 H    1.8109337612    1.2183008930    1.8757252715
 H    0.4646912032    0.8644658223    2.9682930830
 H    1.9222314211   -0.1386403464    2.9990441447
 H   -0.8026866563   -1.4100842679    2.6654737090
 H   -0.5889194071   -2.3039045879    1.1762586756
 H    2.3564023450   -4.0159295101    3.6766864327