19

 C   -0.1383138834    1.4983232254    0.1687221582
 C    0.1337646380    0.0330485500    0.0273354324
 C    0.5912613648   -0.7076095850   -1.2401525839
 C    1.3545089701   -1.7321586368   -0.3303404423
 C    0.8592887633   -0.9483028985    0.8908416702
 C    1.5755737129   -0.7657537113    2.2040548081
 C    1.5194470796   -1.9564763989    3.0590121224
 N    1.4753789533   -2.8980629023    3.7268571519
 N   -0.6231602453   -0.9830016262    0.8093723693
 H    0.6583086374    2.0945931506   -0.2887308120
 H   -1.0803251777    1.7690979626   -0.3224672586
 H   -0.2190220670    1.7924680829    1.2213462549
 H   -0.2162389303   -1.1095901781   -1.8560531275
 H    1.2677570900   -0.1146803355   -1.8603275308
 H    1.0258395783   -2.7722284387   -0.3770172533
 H    2.4381529978   -1.6820608428   -0.4622853419
 H    2.6304961708   -0.5223578463    2.0276654349
 H    1.1465072080    0.0777991064    2.7587316833
 H   -0.9845893104   -0.5111444774    1.6400873747