17

 C   -0.1049080399    1.5151502534   -0.0487313664
 C   -0.0298643295    0.0247472573    0.0502974721
 N   -0.0516804438   -0.6853386107   -1.0661736877
 O    0.0415943373   -2.0634375460   -0.6583790628
 C    0.0976417434   -2.0520418031    0.6607536924
 C    0.0495944970   -0.8061673561    1.1947101702
 C    0.1920974340   -0.9220691710    2.6877661717
 C    0.0002636713   -2.4713348530    2.8805847845
 N    0.2808193402   -3.0899947850    1.5485003271
 H    0.7842601093    1.9800572933    0.3900663057
 H   -0.1791918908    1.8189351861   -1.0945157424
 H   -0.9760946550    1.8991143169    0.4923018643
 H    1.1843181537   -0.6096178648    3.0374327832
 H   -0.5447912867   -0.3642685312    3.2733314212
 H    0.6719406165   -2.8855626248    3.6355950345
 H   -1.0324735323   -2.6828749562    3.1851328275
 H   -0.2050948147   -3.9558341951    1.3551210748