17

 O    0.0231037399    0.0268129549    0.0309313892
 C   -0.0233240853    1.2183172436   -0.0102782659
 C   -1.0662580946    2.3461185273    0.0376641530
 C   -0.0394200777    3.0199492560    1.0395449012
 C    0.9927945126    2.3824664949    0.0431606132
 C    2.4081371652    2.1714616917   -0.5254555157
 C    1.7267303441    2.2623175080   -1.9510032575
 C    0.5975042597    3.0775403267   -1.2443702244
 O   -0.8421701782    2.9370370627   -1.2683059778
 H   -2.1277345122    2.2346591979    0.2395822938
 H   -0.0370548369    4.1105340104    1.0781041212
 H   -0.1059446845    2.5819085136    2.0373763709
 H    3.0876625061    3.0078320319   -0.3465636717
 H    2.8981596898    1.2332390029   -0.2608415603
 H    2.2789861433    2.7645670388   -2.7463917511
 H    1.3935737818    1.2798464266   -2.2902855387
 H    0.8418622470    4.1462891420   -1.2718485296