20

 C    0.0091026698    1.5257647561    0.0467772323
 C   -0.0718345399   -0.0009096340    0.0109335827
 O   -1.4112797444   -0.4717726576   -0.1149200896
 C    0.6898470037   -0.5656429858   -1.1682797921
 C    0.1390556466   -0.4071796794   -2.6065412664
 N    0.5353481732   -1.8180530385   -2.9198732311
 C    0.9345188945   -2.0557062893   -1.5095572843
 C    2.4175648550   -1.7277909440   -1.2708197584
 O    2.1091643683   -0.3208716876   -1.0630649303
 H    1.0535265866    1.8463772111    0.0888340409
 H   -0.4576582034    1.9577805552   -0.8441914660
 H   -0.5051824908    1.9215786449    0.9300755577
 H    0.3911265068   -0.4055673105    0.9255701976
 H   -1.9389737171   -0.0493922089    0.5696713689
 H   -0.9412103510   -0.2320615734   -2.6196759173
 H    0.6478884843    0.3400584871   -3.2229808554
 H   -0.2597425213   -2.3842746125   -3.1911324292
 H    0.4856340679   -2.9074073685   -0.9979374997
 H    2.8596038538   -2.1686481147   -0.3681596505
 H    3.0738655477   -1.8879938696   -2.1319307699