21

 O   -0.5666965996    0.7158081392   -1.7890512060
 C   -0.3281018143    0.2320080168   -0.4688928698
 C   -1.6135024890   -0.3087000230    0.1516054214
 O   -2.1639783119   -1.2633273785   -0.7495206104
 C   -3.5312163718   -1.0688290059   -1.1025177601
 C   -3.7278975263   -0.0538402360   -2.2100975127
 O   -3.4008212295    1.2644545657   -1.8713123098
 C   -3.5238685842   -0.4837764927   -3.6468054172
 C   -4.9150576957   -0.2038895607   -3.1128958233
 H   -0.8637949323   -0.0563682653   -2.2886944966
 H    0.4408053020   -0.5526386515   -0.4884774872
 H    0.0577159807    1.0715624117    0.1168896293
 H   -1.3941759237   -0.7890668652    1.1165940106
 H   -2.3178665873    0.5116592201    0.3228355039
 H   -3.8986992888   -2.0475461972   -1.4284580866
 H   -4.1107983822   -0.7637029496   -0.2198793413
 H   -2.4316485025    1.3392043459   -1.8901976265
 H   -3.0977431725    0.2505070996   -4.3211024419
 H   -3.2460258269   -1.5123123109   -3.8525020452
 H   -5.5892179542   -1.0399311761   -2.9603008601
 H   -5.3907612299    0.7185558336   -3.4236975206