23

 C   -0.0845412153    1.5543313880    0.1415129363
 C   -0.0744845801    0.0250783135   -0.0035378206
 C   -1.5066253761   -0.5271706385   -0.0484367254
 C    0.7076575858   -0.4562150409   -1.2491728402
 O    0.0927425099   -0.0060624018   -2.4498855471
 C    2.2221797598   -0.1054152397   -1.2413522348
 C    2.9638893838   -0.6364282704    0.0037247471
 C    2.8634888236   -0.6019389492   -2.4589950882
 C    3.4192447516   -1.0311007602   -3.4345708426
 H    0.9204939307    1.9732153793    0.2563573129
 H   -0.5542488730    2.0299916676   -0.7272121417
 H   -0.6631489167    1.8514344264    1.0214245953
 H    0.4198153030   -0.3998008061    0.8786852941
 H   -2.0256489043   -0.1731944088   -0.9434330506
 H   -1.5080587205   -1.6220830312   -0.0738566594
 H   -2.0759572742   -0.2104553638    0.8312086750
 H    0.6283603859   -1.5495202206   -1.2943321654
 H    0.3113271567    0.9237169979   -2.5715664403
 H    2.3082602924    0.9916542077   -1.2426833617
 H    4.0355219551   -0.4442911507   -0.0868350154
 H    2.6065465858   -0.1538577352    0.9166116200
 H    2.8241044014   -1.7172426593    0.1038725665
 H    3.8955784547   -1.4023309939   -4.3077685538