19

 C   -0.0488377083    1.5108479189    0.0955086928
 C    1.2649500168    0.7738193226   -0.0510892958
 C   -0.0291929547    0.0177248642    0.0030067579
 C   -0.4359518947   -1.0007237374    1.0545776582
 N   -1.9061072152   -1.1818090827    0.9178579554
 C   -0.9821313913   -1.9070348010    0.0043639379
 C   -0.5897512862   -0.9168455256   -1.0786074703
 C   -1.2087469684   -0.6082796567   -2.3794650146
 N    0.0848593293   -1.3305148577   -2.3011407405
 H   -0.2878112407    1.9604075871    1.0534596409
 H   -0.4147021546    2.0693857013   -0.7604697186
 H    1.7848184324    0.8404888354   -1.0028342396
 H    1.9276311071    0.7168810514    0.8066034853
 H    0.0810855556   -1.2368001969    1.9765213269
 H   -2.1876595587   -1.8512531301    1.6354662811
 H   -0.9711279084   -2.9868892085   -0.0674660275
 H   -2.0420222303   -1.1992673257   -2.7491332356
 H   -1.2077783683    0.4282622310   -2.7091914571
 H    0.8568640187   -0.7008900096   -2.5106720569