23

 C   -1.7479418274    0.3239233142    2.0603676303
 C   -1.1002796896   -0.5586397141    0.9808650220
 C   -1.1751459036    0.0907311693   -0.3909007732
 C   -1.1780208774   -0.7394213016   -1.6495354701
 C   -2.4294470430   -0.0124706855   -1.2198616647
 C    0.3446548238   -0.8414796472    1.3474500086
 O    0.5907310289   -1.6340277631    2.5156767531
 C    1.0271241236   -2.1427384506    1.2480038233
 C    0.4018418915   -3.4258494260    0.7643455979
 H   -1.2437056577    1.2952091711    2.1261194478
 H   -2.8011841283    0.5095153120    1.8299634611
 H   -1.6817626699   -0.1569167498    3.0400914911
 H   -1.6475589473   -1.5077815877    0.9446238460
 H   -0.6483509452    1.0410731033   -0.4546382202
 H   -0.6387219694   -0.3715125454   -2.5154499281
 H   -1.1623760690   -1.8192885646   -1.5448742105
 H   -3.2482162093   -0.6062132828   -0.8257247508
 H   -2.7468001630    0.8527440408   -1.7912983392
 H    0.9836062387    0.0454532302    1.2888021411
 H    2.1122588000   -2.1071445148    1.1223246583
 H   -0.6798831297   -3.4336973581    0.9102698040
 H    0.6157538010   -3.5778468624   -0.2993278992
 H    0.8203159523   -4.2761949871    1.3132758413