16

 O    0.0214005177    1.5007131061    0.0364268846
 C    0.0297358767    0.1035382272   -0.0112668971
 C   -1.3337132149   -0.5763613117   -0.1108533467
 C   -2.0095881337   -0.2581042428   -1.5026757089
 C   -1.8680826848   -1.7786496666   -1.7598673850
 N   -0.6670272525   -1.7461877425   -0.8380784319
 C    0.2516124833   -0.6301355513   -1.3700764052
 C   -0.7340080009    0.1651427417   -2.2344273510
 O   -0.5613945687    0.8536151142   -3.1984890921
 H    0.9249237188    1.8247460940   -0.0391916291
 H    0.6257096355   -0.3552846601    0.7869722359
 H   -1.9750856224   -0.7870619458    0.7449432160
 H   -2.9154866777    0.3232493285   -1.6563265610
 H   -2.6451091171   -2.3883001432   -1.2920663405
 H   -1.6865390915   -2.1254656500   -2.7821543373
 H    1.2255815521   -0.9032626879   -1.7696043206