21

 C    0.0390381560    1.3692509004   -0.0222778779
 O   -0.0360943086   -0.0389389133    0.0211863509
 C   -1.3306784518   -0.5784745277    0.0418659036
 C   -2.2455807958   -0.2516425412   -1.1949877511
 C   -3.3072637287   -1.3901788263   -1.1415484227
 C   -2.8745065094   -2.2137425131    0.1209285400
 C   -1.3372152458   -2.1193668930   -0.0031000416
 C   -3.1031494698   -1.3135900717    1.3259434046
 C   -2.1912783435   -0.3383156821    1.2825577611
 H    1.1002750795    1.6295423781   -0.0130721002
 H   -0.4155219166    1.7821536176   -0.9338535043
 H   -0.4416295897    1.8413012778    0.8469957470
 H   -2.6924092747    0.7428789859   -1.1322193024
 H   -1.6459430007   -0.2974132886   -2.1095036325
 H   -4.3289972536   -1.0133536403   -1.0529004154
 H   -3.2622060238   -2.0158907164   -2.0380251321
 H   -3.3115475823   -3.2108912193    0.1757913130
 H   -0.9417840797   -2.5170395059   -0.9433300520
 H   -0.8042305369   -2.5563608205    0.8435611249
 H   -3.9336622758   -1.4059670115    2.0155705001
 H   -2.1183665782    0.5289327013    1.9262974570