20

 C    0.0273905393    1.4621077538   -0.0277213696
 N   -0.0249205526    0.0120947581    0.0281858000
 C   -1.3959154826   -0.5313950965    0.0433349621
 C   -1.3112104512   -1.7376263526    0.9810439209
 C   -2.5889244765   -2.4587668411    1.3167054675
 O   -0.2991347333   -2.6388290067    0.3983164720
 C    0.6735617290   -2.0741856615    1.2716382071
 C    0.6379527891   -0.5619167056    1.1885422756
 C   -0.3194254949   -1.3025030159    2.0968690206
 H    1.0689242360    1.7966670021   -0.0622066504
 H   -0.4612329342    1.8087015888   -0.9440519487
 H   -0.4679898225    1.9599668002    0.8281751976
 H   -2.1215329493    0.2015776960    0.4382665725
 H   -1.7151145577   -0.8324561596   -0.9604412447
 H   -3.0645230536   -2.8370203191    0.4060585381
 H   -2.3848400225   -3.3082064360    1.9733368318
 H   -3.2917000592   -1.7864585113    1.8198607827
 H    1.5391058827   -2.6734954223    1.5310404858
 H    1.4764279031   -0.0080413572    1.5944766157
 H   -0.5001188492   -1.2026170435    3.1590208936