21

 C   -0.0982939194    1.5409191984   -0.1154563085
 C   -0.0438539375    0.0227849855    0.0142449747
 C   -1.3870979135   -0.6204757863   -0.2964055951
 O    1.0004967470   -0.5162503620   -0.8527637651
 C    1.8191175381   -0.8893883350    0.2675531468
 C    0.6955887921   -0.5502533143    1.2690602013
 C    1.0041209354    0.3530098157    2.4658708905
 C    1.8634363510   -0.3613757335    3.4863274026
 O    1.5567805443   -0.5484086820    4.6352027997
 H    0.8824050453    1.9935642036    0.0530736117
 H   -0.4172938040    1.8076079848   -1.1277396564
 H   -0.8102540208    1.9777747194    0.5926275729
 H   -1.7173692122   -0.3460622243   -1.3034655096
 H   -1.3135048117   -1.7102143204   -0.2465894358
 H   -2.1505247819   -0.2883864003    0.4157850900
 H    2.1409843396   -1.9355163481    0.2159249043
 H    2.7117147902   -0.2520609519    0.3539020762
 H    0.1883294660   -1.4526133245    1.6228579175
 H    1.5567872264    1.2407389580    2.1298179023
 H    0.0882048941    0.6847962713    2.9639985891
 H    2.8397896916   -0.7287703441    3.0908121208