19

 C    0.2807739671    0.9864169703    0.4180248165
 O   -0.4016471172   -0.0200248301   -0.3098791024
 C    0.3733699812   -0.5960148680   -1.3061255144
 C    1.4720572686   -1.6178540063   -1.0125991333
 C    1.0397227772   -2.5166178692    0.1013730883
 O    1.6146751401   -2.9789288051    1.0471729668
 C   -0.3321710756   -2.8206623462   -0.5425968153
 C    0.1152139088   -1.9761669381   -1.7534275410
 C   -0.0899712782   -2.3799587237   -3.1844030376
 H    1.1671814625    0.5826326644    0.9253888922
 H    0.5949939772    1.8124862406   -0.2370490996
 H   -0.4185498555    1.3701983043    1.1633384916
 H    0.6692416911    0.1025645701   -2.0939074538
 H    2.4814525807   -1.4878402233   -1.3861882533
 H   -0.4146734956   -3.8881297893   -0.7684124692
 H   -1.2231311682   -2.4817929706   -0.0115277255
 H   -1.1524123377   -2.3324187759   -3.4505963577
 H    0.4540032678   -1.7200734714   -3.8672865796
 H    0.2510973158   -3.4058256525   -3.3595920926