16

 C   -0.0819123004    1.5323744633   -0.0627965917
 C    0.0218583401    0.0426673485   -0.2797430294
 C    0.7900894459   -0.6715051715   -1.3118709193
 C    2.1146756394   -0.0221127511   -1.6873981857
 C    2.1878645128    1.2403160488   -2.5015829587
 O    1.2327024930    1.8001046495   -2.9774182379
 C    2.3856849016   -0.0114430583   -0.1485452007
 O    3.2744777654    0.3629249709    0.5458989541
 N    1.2038191252   -0.7703646770    0.1779769241
 H    0.8377906813    2.0710714077   -0.2925114526
 H   -0.8722840307    1.9387086645   -0.7003042755
 H   -0.3398348992    1.7342790518    0.9813507346
 H   -0.8821173341   -0.4892038463    0.0104408499
 H    0.3991716954   -1.5536108882   -1.8045365067
 H    2.8205939636   -0.7490020371   -2.1098941239
 H    3.2181995309    1.6372846948   -2.6296451107