20

 C   -0.1026149981    1.5978566824   -0.0330930886
 C    0.0899881682    0.0957750734    0.0550984918
 N    1.0256395207   -0.5337481560   -0.9188191871
 C    2.4585683281   -0.5497270910   -0.3342828564
 C    2.8227424648    0.3539636678    0.7834004670
 C    1.8981884557    0.2572935591    1.7481519133
 C    0.7831631339   -0.6455921633    1.2856682561
 C   -0.1007830239   -1.2815967895    2.3372385320
 C    1.4327593131   -1.4960985951    0.1464758846
 H    0.8284241471    2.1421108294    0.1365250791
 H   -0.4684607248    1.8541637770   -1.0330822596
 H   -0.8450303726    1.9408258719    0.6962142885
 H   -0.8685814227   -0.4090779357   -0.1110002465
 H    3.1666953354   -0.8258966366   -1.1056215778
 H    3.6774146525    1.0183953611    0.7636624880
 H    1.8343597582    0.8656831381    2.6431948077
 H   -0.5967314360   -0.5195932561    2.9490219395
 H   -0.8802302903   -1.9005058406    1.8800446963
 H    0.4818431313   -1.9186364840    3.0117357019
 H    1.4152144695   -2.5747289424    0.0173000002