17

 C   -0.0678043266    1.5318470214    0.0260404061
 C    0.1134334630    0.0461320674    0.0113240719
 N   -0.7894382974   -0.8632782634    0.7518797357
 C    0.6676515608   -0.9198757662    1.0152636123
 C    1.2974301286   -1.7930843979   -0.0934815623
 C    0.3831082232   -2.8144884315   -0.8128438298
 O   -0.0741577613   -1.8054435738   -1.7539168168
 C    0.7447703252   -0.8022360722   -1.1379832458
 H    0.8191322347    2.0428447578   -0.3638753755
 H   -0.9233685544    1.8306492851   -0.5912702774
 H   -0.2436586335    1.8987009708    1.0436862040
 H   -1.2088324044   -0.3125968719    1.5010241802
 H    1.0569369225   -0.7477142698    2.0120297831
 H    2.3588708114   -2.0129415800    0.0026639728
 H    0.9225755659   -3.6153677806   -1.3319488119
 H   -0.4399375695   -3.2257156368   -0.2231639602
 H    1.3610844318   -0.2400504087   -1.8461173365