17

 C    0.1047553536    1.4039457722   -0.1486245093
 N   -0.0497587329   -0.0312985521   -0.1773052127
 C   -1.1590918759   -0.6146999947    0.0036892082
 C   -2.5161584819    0.0108945610    0.2539447236
 N   -1.1236040863   -2.0489890576    0.0146087011
 C   -2.2167514207   -2.7883235982   -0.4733434105
 O   -2.3355956484   -3.9800850370   -0.4313932513
 C    0.0673274930   -2.6762041329    0.4831701327
 O    0.3083596615   -3.8447746901    0.4004244972
 H    0.3858474768    1.7437203242   -1.1523195509
 H   -0.7743909163    1.9790689790    0.1689173812
 H    0.9411721813    1.6555096201    0.5120134585
 H   -3.0848158736    0.1183363898   -0.6761652608
 H   -3.1092555560   -0.5947134123    0.9422750450
 H   -2.4059051850    1.0077230436    0.6813961372
 H   -2.9777876915   -2.1287480397   -0.9262710510
 H    0.7333215922   -1.9284194453    0.9369470715