22

 C    0.0640437687    1.6515264924   -0.1154487649
 C    0.1211822525    0.1188768882   -0.1094699677
 C    0.6246577671   -0.5206910249    1.1968268867
 C    2.0745615552   -0.1168399577    1.5175239293
 C   -0.2931053176   -0.2050675652    2.4007359804
 O   -0.1706855639   -1.3177466582    3.3002126144
 C    0.2719879532   -2.4240256713    2.6264391096
 N    0.4525972923   -3.5577495606    3.1512928388
 C    0.5055051824   -2.0606382558    1.1778882656
 H    1.0548335061    2.0997499515    0.0025386486
 H   -0.3481915375    2.0145025989   -1.0616525652
 H   -0.5737524964    2.0364209940    0.6877767757
 H   -0.8812468916   -0.2753074076   -0.3215570266
 H    0.7608175353   -0.2223096171   -0.9334313479
 H    2.1713063666    0.9627471584    1.6643939870
 H    2.4235945216   -0.6073569323    2.4316716856
 H    2.7468026494   -0.4090042402    0.7039439508
 H   -0.0073977000    0.6958962618    2.9491739614
 H   -1.3429568104   -0.1098118126    2.0919398017
 H    0.2025465806   -3.5346972416    4.1418638623
 H   -0.3633830485   -2.3785887161    0.5885842622
 H    1.3806499948   -2.5756113541    0.7789345423