21

 O   -0.0857719892    1.3975168602   -0.0181365334
 C   -0.0381622445   -0.0226207536    0.0190917418
 C    0.5048810713   -0.6119548852    1.3601121512
 C   -0.7614850607   -1.3221398049    1.8453361991
 C   -1.3208266734   -2.0392208268    0.5723409503
 C   -2.7450311005   -2.4640408497    0.9475371203
 C   -3.2080725653   -1.1674682340    1.6816370618
 C   -1.9316721961   -0.3306054830    1.5396702362
 C   -1.4615999237   -0.5673288022    0.0668362079
 H    0.8186882572    1.7255856498   -0.0164190183
 H    0.5150756542   -0.4044108337   -0.8514006524
 H    1.3452909804   -1.2988473667    1.2156439281
 H    0.8265789485    0.1913285659    2.0308473178
 H   -0.7169087972   -1.8476723856    2.8026043684
 H   -0.7042582262   -2.7582997764    0.0268129313
 H   -3.3557696173   -2.6953237162    0.0694769135
 H   -2.7543490357   -3.3444094040    1.5975780553
 H   -4.0692394749   -0.6943233644    1.2000216567
 H   -3.4729214802   -1.3464119767    2.7283135506
 H   -1.9292012057    0.6769018615    1.9564540464
 H   -2.1104478810   -0.3207798442   -0.7761016428