20

 C    0.1065437761    1.4015480846   -0.0102165142
 O   -0.0488333607    0.0361202697   -0.3217666744
 C   -1.3277531746   -0.5596931170   -0.1025078393
 C   -1.8508081441   -0.3044323816    1.3199199779
 C   -2.3328950539   -0.0876640301   -1.1665286058
 C   -1.1130687371   -2.0625975063   -0.2696166348
 C    0.0881647431   -2.6461803653   -0.8741932514
 O   -0.1195627032   -2.6771211364    0.5431852720
 H    1.1116611312    1.6781619647   -0.3388978958
 H   -0.6148735761    2.0442218157   -0.5349231636
 H    0.0295972631    1.6004844485    1.0669715572
 H   -2.1008557177    0.7479839384    1.4799620891
 H   -2.7593564623   -0.8887044687    1.4954965384
 H   -1.0995910983   -0.6110824321    2.0520715838
 H   -1.9383395495   -0.2739352799   -2.1694402381
 H   -3.2860045477   -0.6158772070   -1.0635684984
 H   -2.5403316826    0.9817057782   -1.0694069230
 H   -2.0470221371   -2.6251926342   -0.3305038594
 H    0.0219320117   -3.6115153495   -1.3748212446
 H    0.8818837897   -1.9842189618   -1.2057792056