18

 N    0.1469071695    1.3360699001    0.2745710470
 C   -0.0214591237   -0.0212673728    0.0340560568
 C   -1.0716092326   -0.8787870681    0.1638498977
 C   -0.5551843032   -2.1913844307   -0.1488702092
 C    0.7559908471   -2.0133181728   -0.4488118627
 O    1.0992799634   -0.6838431341   -0.3340645398
 C   -1.3230142066   -3.4571547389   -0.1476771035
 C   -0.6352644167   -4.7935032222   -0.0205460937
 C   -1.4683449726   -4.2736194033    1.1220980997
 H    0.8482878349    1.7511930577   -0.3260561342
 H   -0.7206727517    1.8510931560    0.2174937581
 H   -2.0802976355   -0.6287423755    0.4520516605
 H    1.5479359370   -2.6700895273   -0.7634312885
 H   -2.2070045285   -3.4439264788   -0.7809851466
 H   -1.0184639459   -5.6212449309   -0.6066461273
 H    0.4409632374   -4.8016560713    0.1089489836
 H   -0.9464975792   -3.9172066806    2.0030300340
 H   -2.4255916632   -4.7427011864    1.3217571780