13

 O    0.1239909870   -0.0382257299    0.5412376230
 C    0.0107261591    1.1061547711    0.1875407332
 C    1.1400970432    1.9283527923   -0.1945064560
 C    2.0817392168    2.6218550694   -0.4776587098
 C   -1.3663388337    1.8431998381    0.1281892693
 C   -1.6269678217    2.2766224658   -1.2466782916
 C   -1.8218293024    2.6169450387   -2.3812164230
 C   -2.4452231367    1.0271730654    0.6766473291
 C   -3.3349943353    0.3691810470    1.1393089410
 H    2.9202944417    3.2236234115   -0.7331480037
 H   -1.2401432153    2.7419845801    0.7519807924
 H   -2.0033735660    2.9190745207   -3.3832073813
 H   -4.1202134665   -0.2201719800    1.5445426774