17

 C    0.0476178692    1.5761149454   -0.0236537623
 C    0.1250109712    0.0832630006    0.0389263640
 N    0.6236211017   -0.7045215095   -1.0860874145
 C    1.1977297844   -1.7377302420   -0.1653220603
 C    0.6939608801   -0.9291699706    1.0169944058
 O    1.3994340110   -0.8385114826    2.1863080003
 C   -0.8290544278   -0.7958560650    0.9063887980
 C   -1.4349949664   -0.1753753685    2.0433101327
 N   -1.8573966628    0.3313463320    2.9968517450
 H    1.0086433345    1.9846611985   -0.3481401753
 H   -0.7179859944    1.8981432623   -0.7390103787
 H   -0.2066681347    2.0000746748    0.9511285128
 H   -0.1000171169   -1.0566436256   -1.7088888937
 H    0.8034965152   -2.7548654324   -0.2675872692
 H    2.2894452943   -1.7621534033   -0.2298716863
 H    0.8329509741   -0.4830755911    2.8832570399
 H   -1.4215492028   -1.5784650830    0.4356391518