18

 C    0.0775013070    1.4680319164   -0.0102419920
 N   -0.2793937209    0.0743669818    0.2216484847
 C    0.4869496583   -0.6617035854    1.1084264844
 C    0.7707150236   -1.9928652279    1.0774095315
 N    0.4529235466   -2.9901119694    0.1641986323
 O    1.4951747845   -2.2716248550    2.2451594877
 C    1.6089508938   -1.0841341494    2.8672311566
 C    2.3621293784   -1.0344159134    4.1484729834
 N    1.0334849372   -0.0943475647    2.2509393301
 H    1.0496399682    1.5999403678   -0.5113305988
 H   -0.6972886770    1.9342953736   -0.6245293838
 H    0.1209533631    1.9877646915    0.9482361375
 H   -0.4578334975   -0.4497506596   -0.6246304404
 H   -0.1932631420   -3.6855363625    0.5254396629
 H    1.2656782666   -3.4716363362   -0.2072337878
 H    1.9127297858   -1.6958460796    4.8966622301
 H    3.4005898020   -1.3540988123    4.0100219920
 H    2.3521740124   -0.0115018358    4.5256709998