19

 C   -0.0141979248    1.4754461239    0.0443549375
 O    0.9888014951    0.5200602419   -0.3020816254
 C   -0.3182067738    0.0389980444    0.0258225646
 C   -0.4131703049   -0.7465608246    1.3034803890
 O   -1.7838443531   -0.9163603179    1.7459478888
 C   -1.5988026098   -2.3381582988    1.9344954847
 C   -2.1014206036   -3.1695625334    0.7342698198
 C   -0.6766924974   -3.0835764040    0.0975935608
 C   -0.1702843397   -2.2728257868    1.3236854888
 H    0.1299204914    1.9801854859    0.9987304259
 H   -0.3605913650    2.1075122195   -0.7716306425
 H   -0.8868448559   -0.3489479986   -0.8187169196
 H    0.1841845135   -0.2331805997    2.0708561113
 H   -1.8489997617   -2.6557055790    2.9500962935
 H   -2.4017361202   -4.1878640557    0.9957384659
 H   -2.9144670810   -2.6903346746    0.1845092176
 H   -0.1869737918   -4.0559958059    0.0139630675
 H   -0.6022321709   -2.5912468901   -0.8744578744
 H    0.7371709836   -2.6158625965    1.8176534661