18

 C    0.0269767399    1.5149595410   -0.2900349883
 C    0.1157798302    0.0068472533   -0.1368805634
 C    1.4619039313   -0.6535820257   -0.0490265079
 C    0.5958043542   -0.6267443729    1.1887823311
 C    0.9850497874    0.2181842561    2.3409712714
 O    0.7082845518   -0.0342641948    3.4876788432
 C   -0.9408014186   -0.8529281583   -0.8051350462
 N   -1.9504970033   -0.1846687333   -1.4325801465
 O   -0.8802622327   -2.0695426627   -0.7960213246
 H    0.8949499948    2.0150646393    0.1440648869
 H   -0.0026923783    1.7917325566   -1.3495513064
 H   -0.8612937972    1.9288049292    0.2016043532
 H    1.5740446718   -1.6163302812   -0.5313595356
 H    2.3316523438   -0.0042658891   -0.0661274677
 H    0.0956710190   -1.5512337818    1.4516574005
 H    1.5884562022    1.1203079139    2.0873876475
 H   -2.0893209183    0.8051387125   -1.3409563852
 H   -2.6977243680   -0.7406844722   -1.8155042419