16

 O   -0.8724303305    1.1754765362   -0.0161083693
 C    0.2721968555    0.8689338559   -0.2510559118
 C    1.4377727248    1.7604677637    0.0589472524
 N    2.5830192876    1.3386119453   -0.3119896237
 C    3.7666357398    2.1551186206   -0.1485872970
 C    3.9217486286    2.8660797353    1.2174105954
 N    3.0628471712    4.0094078924    1.4533626544
 C    1.8191894993    3.9567616393    1.2208460278
 N    1.0503683299    2.9343233353    0.6756454816
 H    0.5683937132   -0.0824796346   -0.7279257698
 H    4.6387633450    1.5130601618   -0.3124110545
 H    3.7862200597    2.9196711666   -0.9372546269
 H    3.7698752445    2.1219958408    2.0110791722
 H    4.9593676213    3.2062524013    1.3039992932
 H    1.2041691696    4.8213770422    1.4751308779
 H    0.0418859006    3.0274515179    0.7338132179