16

 C    0.2168667651    1.2431936602   -0.2168393332
 O   -0.1487507936   -0.0965061367    0.0589123291
 C    0.5525931801   -0.6585774585    1.1220104612
 C    0.2358555886   -2.0983670662    1.4733686262
 C    1.0204890688   -3.0206388183    0.5902434137
 N    1.6493615764   -2.3982442442    1.8390499011
 C    1.9998726837   -1.1800973803    0.9101713107
 C    1.8863176377   -2.1518994988   -0.2676237326
 O    2.4453909107   -2.2783654274   -1.3163707898
 H    1.2650486377    1.3220800314   -0.5379508808
 H   -0.4266181600    1.5907147783   -1.0270654096
 H    0.0685749139    1.8889429223    0.6617088607
 H    0.5001579566   -0.0283677716    2.0223401468
 H   -0.5929231070   -2.4746033650    2.0624484175
 H    0.8056976568   -4.0789822530    0.5192011233
 H    2.8922822944   -0.5878759722    1.0923626056