21

 C    0.2900109312    1.3427191150   -0.5728284473
 C   -0.0158796698    0.0670102785    0.1756101795
 N    1.0804029982   -0.9055548693    0.3405482671
 C    0.4866332680   -0.2701075258    1.5358295343
 C    1.4194875924    0.6005309586    2.3482134815
 N    2.4413494724   -0.2040364164    2.9950861942
 C    2.6042153193   -0.2577727705    4.3489185755
 C    3.7056610264   -1.1922472413    4.8286103868
 O    1.9302227740    0.3960024846    5.1261547934
 H    1.3071286198    1.6889000973   -0.3790317567
 H    0.1981347636    1.1784833808   -1.6517786772
 H   -0.4095498676    2.1377382627   -0.2929864669
 H   -0.9959426525   -0.3495242816   -0.0559795229
 H    0.7353915686   -1.8551959356    0.2334972951
 H   -0.1653456840   -0.8929886424    2.1467793840
 H    1.8910595815    1.3556575404    1.7112004930
 H    0.8787290385    1.1158551810    3.1453729228
 H    2.9949875721   -0.7969443874    2.3983847688
 H    4.1942757022   -1.7489581976    4.0246572094
 H    4.4584240359   -0.6037819644    5.3603105397
 H    3.2786836596   -1.8980526665    5.5456086958