25

 C    0.5619467719   -0.5738420146   -1.5793123013
 C    0.0432626045   -0.0472926838   -0.2339460993
 C    0.2532671083    1.4685170763   -0.1134875895
 C   -1.4349021722   -0.4374135001    0.0501492965
 C   -2.4644487910    0.0049941045   -1.0330742791
 C   -2.9349632499   -1.2904068393   -1.7476493091
 C   -2.4596346756   -2.3831971672   -0.8256685198
 C   -1.6559355942   -1.9402585980    0.1430827393
 C   -1.0174341029   -2.7653468945    1.2186251425
 H    1.6312220582   -0.3655020338   -1.6902698412
 H    0.4158016135   -1.6541118815   -1.6700958090
 H    0.0489705691   -0.0954730438   -2.4211793509
 H    0.6450673155   -0.5172232695    0.5566251210
 H   -0.3137495304    2.0151310081   -0.8754961260
 H   -0.0669179767    1.8380598063    0.8668185649
 H    1.3091293433    1.7293875744   -0.2420814813
 H   -1.6853875268    0.0277769223    1.0148226353
 H   -3.3179390503    0.4884933296   -0.5494076902
 H   -2.0504427166    0.7353036681   -1.7330782609
 H   -4.0216272759   -1.3083306816   -1.8951312063
 H   -2.4933573537   -1.3962857292   -2.7484672340
 H   -2.7407864560   -3.4234372659   -0.9603602732
 H   -1.3182011577   -3.8144578365    1.1501117171
 H    0.0777145949   -2.7270748075    1.1666741355
 H   -1.2926236892   -2.3967748728    2.2154941490