16

 C   -0.0137023176    1.4919969522    0.0471840948
 C   -0.0099106839    0.0029380513   -0.0259213675
 N   -0.0128435636   -0.7170510465   -1.1155295492
 C    0.0152097929   -2.0465352485   -0.7011786089
 C    0.0257747890   -3.1597876551   -1.5689547063
 C    0.0400355464   -4.1436722971   -2.2666389380
 C    0.0251108405   -2.1055126468    0.6790788485
 N   -0.0341676976   -3.1758943817    1.5698697081
 N    0.0108956107   -0.7995153022    1.0991881822
 H    0.8799256820    1.8795408801    0.5508184653
 H   -0.0354917663    1.8867363133   -0.9691891743
 H   -0.8886836837    1.8747563275    0.5859858345
 H    0.0468493814   -4.9952868107   -2.8999342695
 H   -0.0807674812   -4.0486909419    1.0558948352
 H    0.7560501666   -3.2150207846    2.2061146560
 H   -0.0615821757   -0.4985672892    2.0570596591