21

 C   -0.1159464598    1.4898815378    0.0942612501
 C   -0.0843530711   -0.0297926178   -0.0910388787
 C    0.7935378060   -0.5115391136   -1.2783677875
 C    0.9413684021   -1.9660264833   -1.2459043658
 C    1.0537408243   -3.1635636958   -1.1837027500
 C    1.1910116921   -4.6116106163   -1.1086213019
 C    0.2431047465   -0.0011635115   -2.6081223604
 C    0.1997018050   -0.7939049983   -3.8406185654
 O   -0.9825123090   -0.5693015486   -3.0642276071
 H    0.8935948636    1.8986552340    0.2183214740
 H   -0.5823095424    2.0001000918   -0.7537066170
 H   -0.6905201442    1.7534571870    0.9873601581
 H    0.2981756864   -0.5022823203    0.8193052196
 H   -1.0975704307   -0.4161651451   -0.2439289013
 H    1.7905677069   -0.0581926422   -1.1633304203
 H    2.0029633372   -4.9712695552   -1.7504685477
 H    1.4104199006   -4.9367083673   -0.0855467226
 H    0.2705998075   -5.1147923381   -1.4246921730
 H    0.2920290237    1.0834614751   -2.7138556896
 H    0.2265040750   -0.2878723747   -4.8049896673
 H    0.5714983601   -1.8154605975   -3.8268904163