19

 C   -0.2208358998    1.4686447926   -0.0353391682
 C   -0.0605216804   -0.0184935729    0.0218595227
 N   -0.1121479028   -0.7440321335   -1.0949308888
 N    0.0661928069   -2.0123502146   -0.6835550628
 C    0.2287288174   -2.1181190571    0.6579437078
 C    0.1539193719   -0.8349974616    1.1676524233
 C    0.2660342921   -0.3814623769    2.5704069012
 C   -0.2810273016   -1.2091494725    3.7170167393
 C    1.2052178508   -1.0583457035    3.5495034798
 H    0.6623317676    1.9873052578    0.3547944723
 H   -0.3706540599    1.7813614750   -1.0707551917
 H   -1.0816665215    1.8068850315    0.5526664250
 H    0.0658158278   -2.7514184664   -1.3646942934
 H    0.3816073408   -3.0743534070    1.1339158688
 H    0.1702478520    0.6930059872    2.6882038508
 H   -0.7640847802   -0.6912083260    4.5384675034
 H   -0.7323079733   -2.1630111840    3.4650649246
 H    1.7699347423   -1.9091464005    3.1831387565
 H    1.7448207999   -0.4366412976    4.2556877194