15

 N   -0.1342739398    1.5411717363   -0.0178192570
 C    0.0034653432    0.0815302169   -0.0593616647
 C   -1.3037495294   -0.5510111829    0.1474174788
 C   -2.3782579915   -1.0664440024    0.2950037654
 C    0.6451275823   -0.4652611693   -1.3230418013
 N    0.6997694014    0.2315704156   -2.4471895443
 N    1.3330632755   -0.6269622762   -3.2828724327
 C    1.6298711405   -1.7719288806   -2.6376701615
 N    1.2109667706   -1.7066953771   -1.3905432917
 H    0.7736377826    1.9537742917   -0.2174919607
 H   -0.7373064931    1.8293447559   -0.7840548042
 H    0.6546853085   -0.2178896755    0.7725448511
 H   -3.3257041484   -1.5246252258    0.4359407188
 H    1.5232975389   -0.3551990936   -4.2333944028
 H    2.1421644288   -2.6000939729   -3.1044027531