17

 C    0.0773312286    1.5184094986    0.0094710494
 C   -0.0495613558   -0.0031017034    0.0031763047
 C   -1.4986103792   -0.4816086515    0.0121587210
 O   -2.4333321826    0.2933548289    0.0237169573
 C   -1.7357839370   -1.9372388536    0.0066662110
 C   -2.9329347759   -2.6384259783    0.0124236548
 C   -2.5603517075   -3.9911402432    0.0026280186
 N   -1.2317373834   -4.1397702847   -0.0084852314
 N   -0.7568021486   -2.8899972908   -0.0057675883
 H    1.1291118765    1.8166939946    0.0027288852
 H   -0.4139917212    1.9523470435   -0.8645333893
 H   -0.4003366150    1.9439252488    0.8951039072
 H    0.4464913096   -0.4323132771   -0.8791939174
 H    0.4600158317   -0.4406544726    0.8736776393
 H   -3.9180432839   -2.2032505712    0.0222919040
 H   -3.1927261897   -4.8662927532    0.0030705137
 H    0.2398593736   -2.7511688947   -0.0126726698