21

 C   -0.5922695735    1.4509108305   -0.1052949665
 C   -0.1746945065    0.0137758709   -0.0455671118
 C    0.2154770338   -0.7434872008   -1.0741618218
 C    0.5556091943   -2.1570732141   -0.6759764232
 C   -0.0064664091   -2.2437085417    0.7646824245
 C   -0.1341184902   -0.7765654057    1.2575598820
 C    1.0557381475   -0.3812969553    2.1813916076
 C    0.9379350264    0.9249526059    2.8181061156
 C    0.8315133592    1.9891492123    3.3684335796
 H    0.0560355608    2.0848951697    0.5080082889
 H   -0.5747826004    1.8251586044   -1.1328793375
 H   -1.6087690377    1.5807425157    0.2880564137
 H    0.3012209124   -0.3871670916   -2.0959830527
 H    0.1086322053   -2.9060756232   -1.3397724235
 H    1.6405967367   -2.3321629444   -0.7099975973
 H   -1.0013474388   -2.6981504882    0.7374203907
 H    0.6088997543   -2.8588051578    1.4282116394
 H   -1.0521664380   -0.6332738363    1.8400596973
 H    1.1425977673   -1.1412221620    2.9686845251
 H    1.9882161661   -0.4281598634    1.6041470589
 H    0.7422417300    2.9312449752    3.8497486411