19

 C   -0.0342278184    1.6070933541    0.2070197839
 C   -0.0117217260    0.0740117149    0.0518379118
 C    0.7557454881   -0.6003292424    1.2028435897
 O    2.0938375690   -0.1334413326    1.1519079357
 C   -1.3600847157   -0.4804998046   -0.0394401852
 C   -2.4717663797   -0.9432164638   -0.0925473841
 C   -3.8097530172   -1.4664976781   -0.1441730780
 C   -4.2214586217   -2.4614676026   -1.1547546078
 O   -3.9969698058   -2.8531265882    0.1927581017
 H    0.9879247348    1.9813796541    0.2896052297
 H   -0.5188730427    2.0773946714   -0.6522154901
 H   -0.5865132212    1.8931948291    1.1077353463
 H    0.5339575338   -0.1705110848   -0.8698754678
 H    0.2712219775   -0.3449306399    2.1578352662
 H    0.7042309001   -1.6918905239    1.0823068700
 H    2.5747240303   -0.5130855834    1.8925970684
 H   -4.5838248998   -0.8143234285    0.2594915274
 H   -5.2585751040   -2.4813536118   -1.4880074751
 H   -3.4857389013   -2.8121404891   -1.8759795724