11

 O    0.0025511691    1.4171289981    0.0093609365
 C   -0.0054789770    0.0191638725    0.0019729852
 C   -1.4403414392   -0.4615961980    0.0131398159
 O   -2.4172176664    0.2374915944    0.0262343683
 C   -1.6027917194   -1.9936753537    0.0065517699
 O   -0.6721158857   -2.7577168305   -0.0065139457
 C   -2.9984663756   -2.4637583963    0.0175808603
 N   -4.0759133348   -2.8823873966    0.0258052416
 H    0.9174935372    1.7134012028    0.0012573529
 H    0.4815488622   -0.4219505015   -0.8846669764
 H    0.4983524996   -0.4313157912    0.8744152014