15

 N   -0.2168375184    1.3107594641   -0.1643297570
 C   -0.0167426200    0.0486727177   -0.0977819090
 N    1.1766931261   -0.6200661028   -0.2253310397
 C    1.3589661172   -2.0617544606   -0.1180660658
 C    0.1401241912   -2.8217158343   -0.6439707994
 O    0.2273104893   -3.7919093854   -1.3554317089
 C   -1.1694817562   -2.2683518117   -0.1783990300
 O   -1.1420862766   -1.7740132337    1.1666000103
 C   -1.2206431339   -0.8148087667    0.1165618393
 H    0.6527049638    1.8246678673   -0.3238744211
 H    2.0117102863   -0.0564420674   -0.2396284119
 H    2.2203064685   -2.3675700527   -0.7151605376
 H    1.5276206284   -2.3833682582    0.9215134587
 H   -2.0650743017   -2.8036858464   -0.4830975392
 H   -2.1640368240   -0.2841605294    0.0326153314