19

 C    0.0924132086    1.5220121749   -0.1190394867
 C    1.3583358872    0.7278621804    0.0409045475
 C   -0.0127494583    0.0381354731    0.0670154003
 C    0.3242345021   -0.7094315931   -1.2374343961
 C   -0.5048826891   -0.5506711261   -2.4707979162
 C    0.0419652870   -0.0626048639   -3.5831835052
 C    1.4672456836    0.4319709173   -3.6080752481
 O    1.9031920110    0.9247832691   -2.3510766175
 C    1.7050640110    0.0320479945   -1.2749513911
 H   -0.1854923329    2.1164448843    0.7451231411
 H   -0.1383390445    1.9786120856   -1.0763172735
 H    2.0520332118    0.9009831994    0.8537215061
 H   -0.5241706800   -0.4042280899    0.9131496150
 H    0.4804220804   -1.7738933843   -1.0274196849
 H   -1.5441564304   -0.8705337748   -2.4458785922
 H   -0.5216752991    0.0066249218   -4.5095574788
 H    2.1439587586   -0.3620084878   -3.9737955014
 H    1.5663489432    1.2725481478   -4.3030005305
 H    2.5534316996   -0.6610724583   -1.1924003381