13

 C   -0.0445195743    1.4631605345    0.0375237233
 C    0.0001560580    0.0102686789    0.0205506070
 C    0.0308315537   -1.1949018474    0.0081901453
 C    0.0674156907   -2.6073422346   -0.0064689326
 C    1.1162328800   -3.4288767824   -0.2928289392
 O    0.6942365713   -4.7193018331   -0.1830824854
 C   -0.6096190156   -4.6149674628    0.1698160964
 N   -1.0457900015   -3.4085789081    0.2918232554
 H    0.6649883769    1.8754042855    0.7637478807
 H    0.2035913355    1.8811662014   -0.9445448511
 H   -1.0438182696    1.8203122246    0.3086316632
 H    2.1433526498   -3.2707225123   -0.5700157187
 H   -1.1472146650   -5.5392834444    0.3120556758