15

 N    0.1942378611   -0.0500323738    1.4501162679
 C    0.1216552791    0.5667819018    0.4761434962
 C    0.0383949979    1.3467854136   -0.7713094832
 O    1.1997958265    2.1193814850   -1.0229942463
 C    1.3448684126    3.2638638922   -0.2265110091
 C    2.0187524733    3.1452907977    1.1312702146
 C    2.7652587397    3.7288821847   -0.0356767875
 C    0.2966565548    4.2461851299   -0.4023328885
 N   -0.5665824576    5.0021588622   -0.5487107163
 H   -0.0530330895    0.6565221571   -1.6139786894
 H   -0.8637604801    1.9720617134   -0.7445230348
 H    1.6784067215    3.8050258875    1.9203233274
 H    2.2675656606    2.1386846585    1.4426227865
 H    3.5111775619    3.1098086108   -0.5199909903
 H    2.9526905981    4.7950911293   -0.0639927571