20

 C   -0.4352800595    1.5186557557    0.3576797218
 C   -0.1406030797    0.0354351794    0.2525969388
 O   -1.2308214775   -0.7519463028    0.7278676416
 C    0.2651634857   -0.5316818776   -1.1137964768
 N    1.5395914531    0.1283113441   -1.4770100807
 C    1.5506990747   -1.0601894152   -0.5893236967
 C    1.2546660382   -0.5461516125    0.8380662170
 C    2.2605394200    0.4056089522    1.4544635609
 O    1.0171090376   -1.5925580443    1.7478116562
 H    0.3528372373    2.0956045277   -0.1294290569
 H   -1.3909016086    1.7504883364   -0.1243001853
 H   -0.4928495743    1.8358827430    1.4063596790
 H   -1.5139942194   -0.3790068451    1.5706160432
 H   -0.4099460098   -0.9258724005   -1.8638013712
 H    1.7859698848   -0.1865826002   -2.4144114682
 H    2.0954803517   -1.9599269791   -0.8498882759
 H    2.5670742639    1.1657851531    0.7340411878
 H    1.8395763904    0.8945111227    2.3388400926
 H    3.1445783457   -0.1554692262    1.7742573646
 H    0.1394417358   -1.9386060309    1.5273332683