21

 C    0.2055984639    1.6053253140    0.1382306134
 C    0.0977288694    0.0736264769    0.0754176251
 C    0.8770049578   -0.5671972351    1.2257517907
 O   -1.2506627376   -0.3366154420    0.2631196058
 C    0.6098565772   -0.4919144717   -1.3019434138
 C   -0.0443502436    0.1586242501   -2.5378047391
 O   -1.4627760621    0.0350173209   -2.4387036318
 C    2.0572296039   -0.3868091257   -1.4639155073
 C    3.2427780079   -0.2686252124   -1.6281173447
 H    1.2267982343    1.9445820227   -0.0629485513
 H   -0.4670461058    2.0779512264   -0.5840915758
 H   -0.0869198515    1.9491346925    1.1339798404
 H    0.4162457349   -0.2734662513    2.1729126603
 H    0.8354193728   -1.6581110549    1.1543237655
 H    1.9231934481   -0.2546260232    1.2256492403
 H   -1.7298584425   -0.1100122175   -0.5457244900
 H    0.3264467699   -1.5526098528   -1.2984293282
 H    0.2558438216    1.2122556062   -2.5996957389
 H    0.3249587534   -0.3477763964   -3.4394261322
 H   -1.8680599848    0.5596794044   -3.1348792330
 H    4.2931860630   -0.1823366610   -1.7583513052