21

 C    0.1921291620    1.6394510243   -0.0822905970
 C    0.0439201112    0.1161774242    0.0486753663
 C    0.6852932583   -0.6343351538   -1.1449250293
 C    2.1475060107   -0.8414919007   -0.7153470684
 C    2.0357047021   -1.2131134382    0.7736167875
 O    3.1661508846   -0.8707419134    1.5602998599
 C    0.7911141826   -0.4594699641    1.2619143137
 C    0.7028793987    0.0776918875    2.6234496103
 O    0.0201410902   -1.1289471608    2.2692717478
 H    1.2429235050    1.9392953560   -0.1558636470
 H   -0.3220435742    1.9981670372   -0.9801430190
 H   -0.2387013176    2.1599883827    0.7778911903
 H   -1.0179959728   -0.1271145004    0.1479528274
 H    0.1972733397   -1.6065544157   -1.2804723273
 H    0.5893815442   -0.0894817882   -2.0883957068
 H    2.6712494443   -1.5988141208   -1.3062812923
 H    2.7144734811    0.0928353910   -0.7952317117
 H    1.8138352540   -2.2866126283    0.8742835699
 H    3.8753044526   -1.4838245259    1.3442675942
 H    1.5524479398   -0.0426643801    3.2910719805
 H    0.0598133536    0.9330492876    2.8277100109