14

 O   -0.0347900039    0.0775444120    0.0061059959
 C   -0.0217532078    1.2739899715    0.0110853983
 C   -1.2926435113    2.1662002772    0.0322849445
 N   -0.7056658554    3.4827858394    0.0308123378
 N   -1.2431307664    4.7210606320    0.0434497395
 C   -0.1464722861    5.4727618176    0.0327473456
 N    1.0430759508    4.7987147951    0.0139459421
 C    0.6411851805    3.5426341755    0.0134124917
 C    1.2368202580    2.1761612614   -0.0007285880
 H   -1.9136733112    1.9789412521   -0.8496048089
 H   -1.8900624918    1.9703889075    0.9285169203
 H   -0.2065154832    6.5507436180    0.0384952661
 H    1.8620570559    1.9573732819    0.8712887098
 H    1.8395876819    1.9657398687   -0.8904339847