22

 C    0.3532383873    1.7098262288    0.1625624452
 C    0.0732739142    0.2089642478    0.2411238781
 N    0.6510006946   -0.4572295409   -0.9225622731
 C    1.8771091998   -1.2352064037   -0.9097707745
 C    2.4028449866   -1.8101743612    0.4031942216
 C    1.2430075662   -2.6405261501    1.0044088214
 C    0.2310548621   -2.8900535509   -0.1467326680
 O   -1.1329119276   -2.7605581130    0.2418052647
 C    0.5571374460   -1.8726192351   -1.2259491640
 H    1.4302472941    1.9081391743    0.1775581818
 H   -0.0510259166    2.1287730214   -0.7630505056
 H   -0.0984485398    2.2325942191    1.0122205680
 H    0.4456335372   -0.1739562569    1.2014459662
 H   -1.0037640035    0.0183221126    0.2264146825
 H    2.6031960365   -0.9807508363   -1.6791019888
 H    3.2670956732   -2.4453663913    0.1806850459
 H    2.7566241848   -1.0331046135    1.0905256861
 H    1.6001472798   -3.5796146473    1.4376280423
 H    0.7283413554   -2.0974246734    1.8013291719
 H    0.3972443193   -3.8898359419   -0.5800864872
 H   -1.3248075531   -3.4452334774    0.8903787484
 H    0.2354446436   -2.1076164308   -2.2382224627