19

 C    0.1047615258    1.5651817859    0.0272631150
 C    0.0095160722    0.0403951283   -0.0643314141
 N    0.6535383969   -0.5010725066   -1.2474550549
 C    0.0760093127   -0.8123092794   -2.4749280956
 C    1.0555297677   -1.2233933579   -3.2872053577
 O    2.2649254616   -1.1748606351   -2.6135810723
 C    2.0179969045   -0.7090880607   -1.3355768383
 N    2.8664071918   -0.5082695177   -0.4176684183
 C    4.2576980223   -0.8120184931   -0.7032802077
 H    1.1536701858    1.8701076538    0.0498318057
 H   -0.3833728526    2.0451195845   -0.8267511889
 H   -0.3790586331    1.9190716742    0.9430153049
 H    0.4994121255   -0.4153267930    0.8009840258
 H   -1.0346356020   -0.2883454434   -0.0742423151
 H   -0.9832452297   -0.7215964793   -2.6458931641
 H    1.0783437376   -1.5697179723   -4.3044725671
 H    4.8582802722   -0.5964267722    0.1844440478
 H    4.4140525108   -1.8682230019   -0.9671321038
 H    4.6574752498   -0.2120202741   -1.5338592714