21

 C    0.1971519653    1.4749677216   -0.4217563346
 C    0.0843742014    0.0564823665   -0.1173962767
 C   -0.0059427804   -1.1160925873    0.1448217582
 C   -0.1030316296   -2.5325049177    0.4396124993
 O   -0.2823920505   -2.8366853621    1.8470612812
 C   -1.3435817729   -3.7679229318    1.5564887579
 C   -1.4114966425   -3.3221842461    0.0745713344
 C   -2.6148859511   -2.4339243397   -0.2273079210
 C   -1.2341631928   -4.4139472377   -0.9738045983
 H    1.0480440261    1.6756958376   -1.0819264213
 H   -0.7055190000    1.8514594509   -0.9154296595
 H    0.3422696492    2.0598189123    0.4932181868
 H    0.7911579158   -3.0467140846    0.0556718156
 H   -1.0257854387   -4.8095009719    1.7041699631
 H   -2.2340393066   -3.5749811649    2.1662730561
 H   -2.7263313350   -1.6480086897    0.5245755270
 H   -2.5127608807   -1.9495237862   -1.2036985746
 H   -3.5332561964   -3.0317356162   -0.2389737345
 H   -2.1265597803   -5.0470349587   -1.0346849595
 H   -1.0694468447   -3.9798014132   -1.9664221914
 H   -0.3805500755   -5.0593918611   -0.7422598682