17

 C    0.2327111690    1.3414738585    0.3280707912
 C   -0.0862887976   -0.1357773611   -0.0100982893
 C   -1.5312051440   -0.3342075361   -0.1343364554
 C   -2.7214867875   -0.4699080709   -0.2317829409
 C    0.6551227124   -0.5960420769   -1.2433591713
 C    0.1349585128   -0.9724238423   -2.4417447526
 O    1.1224215052   -1.3076012040   -3.3151171109
 C    2.2997506951   -1.1428754874   -2.6587826057
 C    2.0821918578   -0.7102846912   -1.3912952114
 H    1.3099664022    1.4752997809    0.4595768137
 H   -0.1002766450    1.9956060771   -0.4816392877
 H   -0.2726964559    1.6413713298    1.2497633454
 H    0.2596824714   -0.7459276514    0.8367869564
 H   -3.7724536344   -0.6006239371   -0.3101710714
 H   -0.8741916880   -1.0585229927   -2.8063092450
 H    3.1879531858   -1.3740192007   -3.2233766160
 H    2.8353572907   -0.5009519943   -0.6470983289