18

 C   -0.2194336735    1.5651398931   -0.0895118265
 C    0.0689548267    0.0831995983    0.0122507526
 O    1.1448139955   -0.3908665987   -0.8530554145
 C    1.7568217222   -1.1430478860    0.2063970580
 C    2.9126313280   -0.4568293189    0.9838164746
 N    2.6317012810    0.9943963643    1.0159941809
 C    1.9347904139    0.1058976691    1.9673914475
 C    0.7493383427   -0.5799764394    1.2442051938
 O   -0.0048345950   -1.3235700564    2.1448988801
 H    0.6809314094    2.1453565544    0.1072269283
 H   -0.5922387937    1.8087744721   -1.0898705789
 H   -0.9970674933    1.8374441021    0.6331645198
 H   -0.8486565117   -0.4871590312   -0.2193030730
 H    1.8838510478   -2.2077712357   -0.0067858285
 H    3.9199658551   -0.8276224599    1.1288360098
 H    3.3978286382    1.4313398729    1.5276376332
 H    2.0052566651    0.2416753814    3.0394628557
 H   -0.6188131083   -1.8745860416    1.6467723072