18

 O    0.1311623876   -0.1241012756   -0.5877751109
 C    0.0626974514    1.0197363412   -0.2203232676
 C    1.2571596582    1.9464987256   -0.0421048753
 C    1.2724148105    2.9526773917   -1.1591292477
 C    1.0020249831    4.2613581041   -1.0894877363
 C    1.0857842211    4.9493820170   -2.4366498479
 C    1.5321554695    3.8261845944   -3.3683153226
 N    2.8596680518    3.2699149398   -3.0318664224
 C    1.6234753884    2.5765496701   -2.5665095017
 H   -0.9193438164    1.5052892387   -0.0183043270
 H    1.1586798403    2.4596404418    0.9215071037
 H    2.1672956887    1.3383482949   -0.0400880191
 H    0.7858650079    4.8008955028   -0.1733586841
 H    0.1146092576    5.3618718552   -2.7408289924
 H    1.8001345544    5.7812404263   -2.4311057985
 H    1.2132825194    3.8219944551   -4.4048070368
 H    3.2133661108    2.7788577717   -3.8518625964
 H    1.3944043856    1.5911650754   -2.9584275069