21

 C   -0.0371502795    1.5682987273   -0.1006208214
 C    0.0208207519    0.0404204843   -0.0262606711
 C    0.7145364521   -0.4781252872    1.2389598364
 O    0.0765761162    0.0210137181    2.4217077091
 C    0.8325090805   -2.0091481162    1.2470704174
 C    1.6646543082   -2.5611065081    2.4364275611
 N    1.0753734299   -2.4371826652    3.7730108790
 C    1.9928605943   -3.9741319284    2.1866391209
 N    2.2234506727   -5.0834669352    1.9607204879
 H    0.9696532564    1.9972542219   -0.1464310354
 H   -0.5818657320    1.8978064024   -0.9898685351
 H   -0.5325455419    1.9832630914    0.7808513610
 H   -0.9960431114   -0.3782425276   -0.0635998800
 H    0.5439378554   -0.3605005559   -0.9026342130
 H    1.7253993807   -0.0505867118    1.2865088658
 H   -0.8551730712   -0.2247119833    2.3762517768
 H   -0.1667383267   -2.4650094105    1.2673489234
 H    1.3031084726   -2.3246722916    0.3084206105
 H    2.6193131041   -2.0164770305    2.4535515763
 H    0.7655803018   -1.4743650839    3.8777558423
 H    0.2461093156   -3.0222016398    3.8327113680