12

 C   -0.1057453333   -1.2273794908   -0.0033695774
 C   -0.0474773327   -0.0291294114    0.0026994867
 C    0.0146241628    1.4326576075    0.0096718754
 C    1.3798081218    1.9499604551   -0.0006136724
 C    2.5098337436    2.3850208963   -0.0090856513
 C    3.7705922377    2.8709900091   -0.0185260855
 C    4.9043014078    3.3096656347   -0.0270059575
 C    6.1715691110    3.8008751331   -0.0364796012
 N    7.2562332205    4.2220306195   -0.0445805205
 H   -0.1555851229   -2.2884857950   -0.0091152433
 H   -0.5264179349    1.8330922402   -0.8593740049
 H   -0.5097741015    1.8240054119    0.8929414319