21

 O   -0.0588651772    1.3553335568    0.6376702424
 C    0.0478033817    0.0064617448    0.1944126270
 C   -1.3350610584   -0.5012903539   -0.1288372929
 C   -2.1604580483   -1.0355759444    1.0185663713
 C   -1.5787729509   -1.9894937245    0.0038192345
 C   -2.4866296353   -2.7102777424   -0.9784863795
 C   -3.3877147450   -1.7897383953   -1.7559514471
 C   -3.1926107998   -0.4769711013   -1.8655237971
 C   -2.0483112336    0.2665192651   -1.2348822507
 H    0.8295272751    1.7127993837    0.7253820911
 H    0.6856817951   -0.0589147953   -0.7030354570
 H    0.5043615434   -0.6296239671    0.9699467579
 H   -1.7268734157   -1.0095669428    2.0124909395
 H   -3.2312954242   -0.8624391582    0.9904231380
 H   -0.7344917434   -2.5838520504    0.3443817474
 H   -1.8707452925   -3.2865638721   -1.6855215132
 H   -3.0898968143   -3.4594867645   -0.4465308388
 H   -4.2309563828   -2.2515978430   -2.2637804047
 H   -3.8794092007    0.1170635650   -2.4640075622
 H   -2.3907418093    1.2334208621   -0.8464817187
 H   -1.3170891539    0.5193980676   -2.0190135073