12

 N   -0.0108511035    1.4155261893    0.1476577155
 C   -0.0336165027    0.0330319529    0.0352359945
 N   -1.1728614482   -0.5958189359    0.0288157690
 N   -1.0859701186   -1.9405847634    0.0149262761
 C    0.0624364413   -2.7266658000   -0.0322277934
 O   -0.0021341507   -3.9346439136   -0.0625166935
 N    1.2671019206   -1.9996639423   -0.0394469545
 C    1.2040236750   -0.7130328001    0.0002503861
 H    0.7226836632    1.8763573945   -0.3717941902
 H   -0.9147552169    1.8423728543   -0.0049876709
 H   -1.9715452463   -2.4265893980    0.0208048609
 H    2.1460452568   -0.1596366476    0.0072838803