19

 C    0.0389469805    1.5301930316   -0.0559289871
 C    0.0752477208   -0.0054856905    0.0684117091
 C    0.7416935422   -0.4126238689    1.3104934910
 N    1.2477413538   -0.7359814707    2.2982909990
 C   -1.3360131774   -0.6194018418    0.0098095842
 C   -2.1386938329   -0.5807798911   -1.3211969308
 N   -2.4088886961   -2.0619671096   -1.2694392446
 C   -1.0845485056   -2.6992172698   -1.3475324220
 C   -1.4990907347   -2.1359247832   -0.0475192803
 H    1.0468449153    1.9513162414   -0.0402160699
 H   -0.4398575478    1.8131743078   -0.9975922782
 H   -0.5294672254    1.9724188253    0.7670894168
 H    0.6701477636   -0.4096171151   -0.7599567155
 H   -1.9311084436   -0.2003371998    0.8257467113
 H   -3.0717641853   -0.0185902614   -1.2631334181
 H   -1.5911077122   -0.2706222396   -2.2190151978
 H   -1.1389551251   -3.7780283868   -1.4543169278
 H   -0.3038154817   -2.2281485378   -1.9421273642
 H   -1.7386285282   -2.7655331501    0.8025119149