25

 C    0.0047899746    1.5937853007   -0.0049874887
 C   -0.0211052693    0.0585224931    0.0180560876
 C    0.6409740059   -0.4905345061   -1.2627115363
 C    0.6038538481   -2.0096937256   -1.5039003440
 C    1.3521629337   -2.8534214976   -0.4553840888
 C    0.5477020963   -3.0568989866    0.8157464865
 C    1.1607776879   -2.9185020233    2.1886214406
 C    0.1899315831   -1.8761452106    1.6851661179
 C    0.6378266222   -0.4761866250    1.3098474610
 H    1.0353206592    1.9691102645    0.0199595609
 H   -0.4685450838    1.9896496559   -0.9097679773
 H   -0.5198503533    2.0132942878    0.8598910918
 H   -1.0739167601   -0.2608028871    0.0220675035
 H    0.1703590715    0.0005330643   -2.1244820372
 H    1.6916337125   -0.1622367420   -1.2711304963
 H   -0.4385321938   -2.3512571809   -1.5641400329
 H    1.0412655918   -2.1978430684   -2.4924631389
 H    1.5991867105   -3.8341540166   -0.8800138704
 H    2.3139761763   -2.3766960992   -0.2284361665
 H   -0.2285827820   -3.8128285880    0.7202816519
 H    0.8409729514   -3.5943826564    2.9746636941
 H    2.2095288608   -2.6412426300    2.2443994621
 H   -0.8047223297   -1.9088307262    2.1241930678
 H    1.7288763292   -0.4394343189    1.1949277899
 H    0.4058202471    0.2002686823    2.1424434616