13

 O   -0.1213313231    1.3564538669    0.0100246911
 C    0.0281006539    0.0204144947    0.0025900866
 C    1.0947622834   -0.8121715738   -0.0068438690
 O    0.6691485831   -2.1409058787   -0.0115113392
 C   -0.6764183332   -2.0861463003   -0.0046522265
 N   -1.6307997648   -2.9693392764   -0.0043748987
 C   -2.7703712415   -2.1752970098    0.0054392329
 C   -2.4877795911   -0.8295752007    0.0105833895
 N   -1.0994460037   -0.7834454971    0.0039740614
 H    0.7456055318    1.7764091146    0.0087375411
 H    2.1556558110   -0.6433172809   -0.0111983487
 H   -3.7500179420   -2.6285139290    0.0081177494
 H   -3.1003372739    0.0537228603    0.0179481000