12

 C   -0.0330009769    1.5217178590    0.0086594583
 C   -0.0353780581    0.7683226024   -1.3140363275
 C   -0.0124804640   -0.0003962215   -0.0003231635
 C    1.5460098367    0.0205782535   -0.0152322365
 C    1.5255973595    1.5426923224   -0.0060073335
 C    1.5232168671    0.7895085701   -1.3288235834
 H   -0.7706295124    2.1989137180    0.4177151941
 H   -0.7751730745    0.7630082269   -2.1031450040
 H   -0.7315156724   -0.7020345315    0.4005728468
 H    2.2912015483   -0.6613616944    0.3716433885
 H    2.2523035067    2.2395864897    0.3892817058
 H    2.2477804300    0.8041146354   -2.1318252151