17

 O   -0.0635644868    1.3771533853    0.0949499830
 C   -0.0495223547   -0.0323621176    0.2394233833
 C   -1.3487459974   -0.5564573453   -0.3835102679
 C   -1.4700001016   -2.0055483625   -0.2999219388
 C   -1.5434881309   -3.2065031309   -0.2170065780
 C   -1.6598037684   -4.6358358027   -0.1454430505
 C   -1.5566519083   -5.3290059872    1.1745538377
 N   -2.8503886259   -5.2566112465    0.4898980789
 H    0.7485715595    1.7282147194    0.4710416857
 H    0.8105825669   -0.4876285039   -0.2736642227
 H   -0.0034988732   -0.3345511959    1.2964323787
 H   -2.1936321557   -0.0725670779    0.1218805957
 H   -1.3878928106   -0.2290492684   -1.4296512882
 H   -1.3242583101   -5.1760662550   -1.0272052157
 H   -1.1150680259   -6.3206685357    1.2182473005
 H   -1.3862354975   -4.7091073321    2.0497286534
 H   -3.4155115595   -4.5199781428    0.9059733251