23

 C    0.0013174592    1.5836604701   -0.0628872839
 C   -0.0131962564    0.0698443044    0.1734639756
 C   -1.3961549473   -0.5487916142   -0.0079196353
 C   -2.0277459815   -0.6693073711   -1.4409134259
 C   -2.2214141635   -2.1738009881   -1.2091782361
 C   -0.8918335945   -2.8216567967   -0.9457464160
 C   -1.5652337279   -2.0686998029    0.1715187049
 C   -1.9387040935   -2.7219940080    1.4624248533
 O   -0.7977532706   -2.7023069048    2.3186205353
 H    1.0046361857    1.9994742064    0.0729956330
 H   -0.3256875703    1.8321413170   -1.0788493307
 H   -0.6695021424    2.0997114811    0.6335757418
 H    0.7010730888   -0.4115783623   -0.5060903685
 H    0.3329296413   -0.1567837731    1.1892068924
 H   -2.1037991534   -0.0320614439    0.6523073364
 H   -2.9608871988   -0.1113874719   -1.5436774915
 H   -1.3743011706   -0.4089761739   -2.2814811522
 H   -3.0915010959   -2.7502508427   -1.5017085638
 H   -0.9092086846   -3.9016529461   -0.8359290330
 H    0.0087632034   -2.4417307599   -1.4210696552
 H   -2.7792611347   -2.1792458440    1.9258276561
 H   -2.2786226438   -3.7540749104    1.2746130934
 H   -1.0727767487   -3.0078785248    3.1884794699