14

 O   -0.1896756814    1.3638317817    0.0599307068
 C    0.0197706743   -0.0311175655   -0.0546891229
 C    0.7328525750   -0.4038852967   -1.2723185022
 C    1.3623551051   -0.6760291697   -2.2585969670
 C    0.7681992867   -0.5565416133    1.2177622996
 C    0.0957499559    0.0414325543    2.4702347780
 O    0.6827043420    0.7126769010    3.2679903895
 C    0.7337140689   -2.0134990263    1.2890112128
 N    0.6644410695   -3.1648997788    1.3623781024
 H    0.6363454828    1.8156393284   -0.1494391895
 H   -0.9822637604   -0.4749194069   -0.0615046562
 H    1.8995302113   -0.9299692329   -3.1398499572
 H    1.8062060161   -0.2104521376    1.2027270105
 H   -0.9816269358   -0.2059266578    2.5687915752