19

 C   -1.5009304424   -0.2291073924    0.0450727137
 C    0.0231389808   -0.1317784100    0.1141572923
 C    0.7344796918   -0.6095414826   -1.1756221796
 C    2.2412034384   -0.2935561789   -1.1512483647
 O    2.3736308066    1.1157780902   -1.0892826396
 C    0.5236708620   -2.0308578137   -1.4197345768
 C    0.3808263475   -3.2168877695   -1.6060182099
 C    0.1677902266   -4.6222866123   -1.8311473715
 O    1.0477692572   -5.4262962612   -2.0408185103
 H   -1.9003836643    0.3850121325   -0.7696368026
 H   -1.8280811412   -1.2599596272   -0.1222231449
 H   -1.9544875664    0.1205278513    0.9771627938
 H    0.3334745401    0.9029528397    0.2818757323
 H    0.4010173484   -0.7213649835    0.9582287705
 H    0.3086131267   -0.0528852302   -2.0233405014
 H    2.7001609050   -0.7863590682   -0.2805748521
 H    2.7120859800   -0.7048675530   -2.0553287765
 H    3.3082575073    1.3304141800   -1.0211528508
 H   -0.8975043543   -4.9299991510   -1.7979551219