21

 C    0.0458020949    1.5987554201   -0.0338345812
 C   -0.0101294175    0.0958487205    0.0806661062
 N    1.2601219605   -0.6418500446   -0.1396826765
 C    0.6347917516   -0.6497664623    1.1791850683
 C    1.3360585717   -0.1440650813    2.4241807084
 N    0.2597876012    0.0039923155    3.4434441122
 C    0.8606487551   -1.3278823432    3.1910889115
 C    0.1536294437   -1.9141097231    1.9508357664
 C   -1.3338948066   -2.2207225980    2.0426619540
 H    0.9795990226    1.9810506281    0.3865190101
 H   -0.0065343648    1.9151041044   -1.0812556976
 H   -0.7893795992    2.0580140380    0.5052190013
 H   -0.9098693263   -0.3618889049   -0.3301790667
 H    1.0819961420   -1.5223442863   -0.6186212260
 H    2.2645138321    0.4086203047    2.4892236387
 H    0.6984886843    0.3721262817    4.2874983854
 H    1.3473677282   -1.8780312924    3.9869636742
 H    0.7152126090   -2.7841453404    1.5884387849
 H   -1.8678246871   -1.3696768494    2.4721934326
 H   -1.7583833608   -2.4333141508    1.0550096236
 H   -1.5158214248   -3.0982395062    2.6730900205