21

 C    0.4060657007    1.5176895134   -0.7307434906
 C    0.0350441443    0.1542047103   -0.1864591833
 C    0.6228262556   -1.1103138250   -0.8499504027
 C    1.1087493403   -1.4570493278    0.5697751161
 C    2.5844151598   -1.7258957247    0.8061309564
 C    3.0321879998   -3.0869212246    0.2937208385
 C    4.4647079413   -3.4878006034    0.5956123373
 O    2.2816523402   -3.8093671753   -0.3243135200
 O    0.7147304225   -0.1536529924    1.0600401811
 H    1.4857765240    1.5913051557   -0.8941663660
 H   -0.1047210468    1.7004431324   -1.6827188543
 H    0.1107483297    2.3042358382   -0.0289083823
 H   -1.0538398172    0.0893149085   -0.0450796485
 H   -0.0747899887   -1.8079105449   -1.3122894324
 H    1.4350932917   -0.8955468728   -1.5498900375
 H    0.5103807660   -2.2484975011    1.0394312518
 H    3.1932133744   -0.9490839428    0.3230119023
 H    2.8119622833   -1.6481514393    1.8779737400
 H    4.6073800094   -3.5797700178    1.6785330895
 H    4.6924167159   -4.4406325284    0.1163272299
 H    5.1637132940   -2.7187858284    0.2489734849