21

 C   -0.3287879620    1.5265681079    0.0455130515
 C   -0.0081388438    0.0261361263    0.0106415819
 C    0.7299798118   -0.3636374920   -1.2844043575
 C    1.1221629943   -1.8427631969   -1.2993281147
 C    2.4884968094   -2.1711859519   -1.9383868245
 O    3.1123566929   -2.3114701886   -0.6443738262
 C    1.8094434560   -2.3008131755    0.0072803647
 C    1.6910115126   -1.3966860142    1.1880994566
 C    0.8265091257   -0.3820923188    1.2062501113
 H    0.5897736434    2.1235052892    0.0187228153
 H   -0.9443130058    1.8177576586   -0.8116725036
 H   -0.8738118217    1.7933118087    0.9571180577
 H   -0.9652669056   -0.5178889227    0.0447586137
 H    0.1187935254   -0.1213948237   -2.1613909922
 H    1.6361634890    0.2519355671   -1.3468865172
 H    0.2859077687   -2.4689221867   -1.6198670539
 H    2.5118464810   -3.1124070217   -2.5050720997
 H    2.9563606013   -1.3810884694   -2.5378396378
 H    1.5381170548   -3.3287050693    0.2952788028
 H    2.2999703535   -1.6309336532    2.0577060277
 H    0.7146812691    0.2157735467    2.1089770540