13

 O    0.4286277687    0.3622232589    0.8821206481
 C    0.1509604111    1.2865611651    0.1644816348
 C    1.1415797719    1.8280566995   -0.7935410874
 N    1.9016961715    2.2550294333   -1.5532789036
 C   -1.1487994857    2.0230445900    0.1582309054
 N   -2.2850877917    1.3575713452    0.7901073585
 C   -1.7348980679    2.5310744867    1.4691066736
 C   -1.0800516537    2.3455532914    2.7310076481
 C   -0.5348040064    2.2398510035    3.7959708862
 H   -1.3101680749    2.6624034949   -0.7063332227
 H   -3.1433293848    1.5982111580    0.3006196147
 H   -2.2711259844    3.4731387669    1.3683017542
 H   -0.0519546037    2.1263172765    4.7354622502