18

 C    0.1555387418    1.3865608352    0.1399833280
 N   -0.0040568660   -0.0495579038    0.1340197103
 C   -1.3744677763   -0.5335822081    0.2588491545
 C   -1.2142083847   -1.9832846248    0.6686786654
 O   -0.2445561617   -2.7148779497   -0.0616931097
 C    0.1672100432   -2.1313239960    1.1881398714
 C    0.8437397596   -0.7834934140    1.0717403785
 C    0.4970656614   -3.1003828440    2.2632993701
 O    1.2061540596   -2.8480112687    3.2052240624
 H    1.2032255427    1.6432254061   -0.0470302406
 H   -0.4456454082    1.8303747538   -0.6604092248
 H   -0.1452364923    1.8598195613    1.0948798382
 H   -1.9584896067   -0.0235394606    1.0507789539
 H   -1.9175513277   -0.4092564506   -0.6860316462
 H   -2.0609729793   -2.5509645224    1.0459958802
 H    1.8709274104   -0.8465200017    0.6953550289
 H    0.8847044223   -0.3421250081    2.0841314645
 H    0.0249697419   -4.0964781338    2.1180117652