14

 N    0.0011434017    1.3478553718    0.0106574588
 C    0.0648096823    0.0782304783    0.0035576917
 C    1.2291339491   -0.8322658284   -0.0084113322
 C    0.8309243766   -2.1044170314   -0.0129515143
 C   -0.6665353768   -2.1844057396   -0.0043559138
 N   -1.0665809340   -0.7764009176    0.0058359031
 C   -2.4032848851   -0.4224741395    0.0172214608
 O   -2.8581626895    0.6897322160    0.0268184582
 H    0.9455537632    1.7339491716    0.0070707921
 H    2.2451963431   -0.4609202176   -0.0125678862
 H    1.4565598919   -2.9869119350   -0.0216189672
 H   -1.0540337229   -2.7083776717   -0.8892105145
 H   -1.0434653719   -2.7181755929    0.8791921949
 H   -3.0377196078   -1.3346987940    0.0164799588