20

 C    0.3823674599    1.3945525044   -0.1687471666
 C   -0.3385032350    0.1039157978    0.2611674286
 C    0.2782209763   -0.5414633568    1.4159427421
 C    0.7907457214   -1.0517451919    2.3795627898
 C    1.4360185051   -1.7034529174    3.5122925545
 C    2.5160957007   -2.7141552259    3.0630481586
 N    3.1981147631   -3.3440406814    4.1810808416
 C    2.7130816202   -4.4540253613    4.7992652673
 O    1.7028862796   -5.0419488196    4.4756724054
 H    1.4219669616    1.1878166728   -0.4374632228
 H   -0.1155308223    1.8401632909   -1.0351618580
 H    0.3836971502    2.1273616939    0.6427653830
 H   -1.3882583375    0.3296633300    0.4890403531
 H   -0.3603463607   -0.6004737316   -0.5803854058
 H    1.8950339519   -0.9537853114    4.1702034047
 H    0.6971635094   -2.2419007292    4.1172003581
 H    2.0457723009   -3.5032497874    2.4729033849
 H    3.2577031863   -2.2135376290    2.4348156774
 H    4.0161828158   -2.9025783965    4.5689254743
 H    3.3601861231   -4.7755583006    5.6399819299