20

 C    0.0551974440    1.5636369266   -0.0428178520
 C    0.0497649988    0.0465588527    0.0605834483
 O    0.7294104284   -0.4884554660   -1.0804529756
 C    1.1883157958   -1.7940192133   -0.7555444867
 C    1.5047339703   -1.7777193100    0.7351706564
 C    1.5932633939   -3.0914304831    1.4700669940
 C    2.2833196465   -0.5645204089    1.1820752997
 C    0.7740437920   -0.5610463235    1.2537663143
 H    1.0772784673    1.9508028931   -0.0059013209
 H   -0.4021427237    1.8822064044   -0.9838668603
 H   -0.5140933342    2.0030024057    0.7822927267
 H   -0.9951786331   -0.3118314765    0.0707818302
 H    0.4124686090   -2.5524272984   -0.9596974079
 H    2.0511945749   -2.0078978215   -1.3965237734
 H    2.4400323352   -3.6915265209    1.1159464609
 H    1.7296674042   -2.9351887039    2.5445515059
 H    0.6837499543   -3.6879254229    1.3312097390
 H    2.8228609397   -0.6409832522    2.1200533741
 H    2.7663220020    0.0505892516    0.4291721129
 H    0.2790255049   -0.5644752531    2.2185607545