20

 C    0.0446308727    1.5688291902   -0.0667119375
 C    0.0618554190    0.0420486421    0.0058455875
 C   -1.3503798311   -0.4982115227    0.2572678129
 C    0.7678185811   -0.7530369307   -1.0995577983
 C    1.2734901428   -1.7848317099   -0.1715264353
 N    2.2468971476   -0.8593065774   -0.8134593492
 C    2.4518510502   -0.1605692360    0.5012423946
 C    1.0890886035   -0.6671455064    0.9627459689
 O    0.8558738722   -0.7952951788    2.3153339602
 H    0.9994381234    1.9827454784   -0.3964508958
 H   -0.7201429425    1.9107050615   -0.7730386622
 H   -0.1946325046    2.0020723347    0.9114322944
 H   -2.0299305009   -0.2195244666   -0.5547513330
 H   -1.3615910418   -1.5907990106    0.3355029540
 H   -1.7703767406   -0.0785683130    1.1806442830
 H    0.4782252751   -0.8518861954   -2.1386981941
 H    1.3414303271   -2.8643033031   -0.2067134105
 H    3.2735242988   -0.6570944359    1.0232962025
 H    2.6381460096    0.9169738210    0.4571321651
 H   -0.0671645417   -1.0362381215    2.4534977130