17

 O    0.0497191149    1.4209369806    0.4149061217
 C   -0.0747374951    0.1005303676   -0.0285762650
 C   -0.5704814805   -0.9587859473    0.9246142906
 C   -1.4681453752   -0.4314044490   -0.1853683093
 C   -2.6628616445    0.4341493916    0.1516564610
 N   -3.8056729614   -0.3585050130    0.5862216266
 C   -4.9976400377   -0.3762809043   -0.0662350640
 O   -5.2750845112    0.2792709728   -1.0486366617
 H    0.8220023331    1.4710881958    0.9875694682
 H    0.6567846961   -0.1973652674   -0.7793891670
 H   -0.1724443041   -1.9650775817    0.8538080959
 H   -0.7895805290   -0.6240639645    1.9344070289
 H   -1.6282400834   -1.0985612664   -1.0274657037
 H   -2.3883167464    1.1617547595    0.9214387536
 H   -3.0000697653    0.9916513013   -0.7250087040
 H   -3.6853137214   -0.9809236126    1.3697516820
 H   -5.7135757789   -1.0733833330    0.4145626163