19

 C   -0.2125539302    1.5525607797   -0.0194814762
 C    0.0544686462    0.0583194360    0.0116499862
 N    0.9997233915   -0.4968538590   -1.0381582693
 C    2.3574548739   -0.0045262728   -0.7279952057
 C    1.8210121724   -1.1129047183    0.0847674639
 C    0.8841736999   -0.5805442927    1.1407773025
 C    1.2180346645   -0.0648973494    2.5114744369
 C    0.3660067001   -1.3043567435    2.3426605927
 H    0.6928988566    2.1444769155    0.1405349084
 H   -0.6435017620    1.8386943754   -0.9845175688
 H   -0.9292769145    1.8269992079    0.7624368603
 H   -0.8904820650   -0.4801113265   -0.1170683849
 H    3.0681440880   -0.2454673389   -1.5129535230
 H    2.4974574654    0.9737932046   -0.2762279662
 H    2.1922680620   -2.1316782569    0.0237310068
 H    2.2345909695   -0.1842407264    2.8727652613
 H    0.7302480362    0.8452849533    2.8459763195
 H   -0.6944300336   -1.2333918661    2.5657295877
 H    0.8076339593   -2.2644101219    2.5914129278