23

 C   -0.0552357642    1.4395735494   -0.1868028598
 C    0.0712446988   -0.0626509368    0.0995142563
 C    0.7032689429   -0.3339845487    1.4710994569
 C   -1.2929359088   -0.7344877752    0.0113464860
 O   -1.9469794777   -0.5820784726   -1.2864074745
 C   -2.2122084404   -1.9942218927   -1.3375103780
 C   -3.5466466149   -2.4233494689   -1.8526100150
 C   -0.9223567093   -2.7495010783   -1.4131407038
 C   -1.4302792212   -2.2545990516   -0.0676428910
 H    0.9269686982    1.9231959342   -0.1849161981
 H   -0.5226119549    1.6094902811   -1.1601740833
 H   -0.6707556591    1.9334127004    0.5749493666
 H    0.7134510975   -0.5051141490   -0.6722888061
 H    0.0886577389    0.0830215443    2.2780751348
 H    0.8178449735   -1.4070480637    1.6556838867
 H    1.6939208799    0.1260163215    1.5408079683
 H   -1.9553981792   -0.3231379750    0.7878025669
 H   -3.6548111128   -2.1521474139   -2.9091042275
 H   -3.6594892931   -3.5082264817   -1.7699769812
 H   -4.3567068540   -1.9423713670   -1.2953442122
 H   -1.0160195625   -3.8226295206   -1.5507201293
 H   -0.0556966294   -2.3021145759   -1.8908121495
 H   -1.6391111482   -2.9178867392    0.7611370868