20

 O    0.2006868858    1.3700449227    0.4392064563
 C    0.1068156567   -0.0077883125    0.1033797805
 C   -1.3262659704   -0.4480202817   -0.1307350133
 C   -2.1079519016   -0.9872005715    1.0234784844
 N   -1.5328107102   -1.8915925642    0.0271132494
 C   -2.4692474198   -2.5769776174   -0.8701373596
 C   -3.4458433758   -1.7016577222   -1.6096827135
 C   -3.2658469123   -0.3919890803   -1.7591706610
 C   -2.0661905954    0.3292783500   -1.2140751251
 H   -0.2842924072    1.4993380711    1.2611872743
 H    0.6889045376   -0.1263732253   -0.8177939941
 H    0.5615199675   -0.6535112344    0.8679487047
 H   -1.6656553959   -1.0492505610    2.0159765248
 H   -3.1844741435   -0.8295162987    1.0112394141
 H   -1.8677535222   -3.1454847062   -1.5943254790
 H   -3.0057673051   -3.3283774610   -0.2764397694
 H   -4.3138966841   -2.1934612911   -2.0416982862
 H   -3.9875981126    0.2004179920   -2.3152353190
 H   -2.3469574982    1.3166402224   -0.8292742532
 H   -1.3641971334    0.5374439893   -2.0356767749