17

 C    0.3959082834    1.5162388593   -0.0629689995
 C    0.1100075893    0.0416254176    0.0934778339
 O    0.8988728792   -0.8067212888   -0.7977532667
 C    1.2563754257   -1.6907144336    0.2924437654
 C    0.6545193281   -0.7265836152    1.3226613061
 O    1.7228434073   -0.0966558296    2.0246539067
 C    2.9840918887   -0.4257915744    1.4601646247
 C    2.7653670233   -1.6196705572    0.5295215902
 O    3.6111821398   -2.3407291586    0.0762055745
 H    1.4334121588    1.7514593000    0.1827833284
 H    0.1997252346    1.8246170629   -1.0943184937
 H   -0.2546086097    2.0980215808    0.5981238330
 H   -0.9575240819   -0.1666280752   -0.0651158272
 H    0.8700486924   -2.7060962108    0.1768693646
 H   -0.0739761240   -1.0790576740    2.0540851441
 H    3.4048943061    0.4133668238    0.8868938151
 H    3.6889264891   -0.6811920470    2.2578638705