22

 C   -0.0566249676    1.5446323043    0.1960601826
 C   -0.0395456393    0.0166896185    0.0279381812
 C    0.9054808099   -0.6537898504    1.0310904886
 C   -1.4478340847   -0.5183439910    0.0861156309
 C   -2.1917951291   -0.9625855017    1.3134425081
 C   -2.0392355375   -1.9106019988    0.1467897750
 C   -2.9168009954   -1.5126632210   -1.0498887292
 C   -3.7445274948   -0.3066267654   -0.8531729401
 N   -2.3024966705   -0.1404953659   -1.1292039527
 H    0.9433045371    1.9658755730    0.0495469544
 H   -0.7316460031    2.0031562174   -0.5318487606
 H   -0.3966635625    1.8217758198    1.2004951764
 H    0.3270636060   -0.2022477172   -0.9842804893
 H    0.6413430160   -0.4014132540    2.0639744005
 H    0.8940602611   -1.7444195316    0.9327553016
 H    1.9330847592   -0.3154169976    0.8663244015
 H   -1.5377301043   -1.2065899115    2.1443987018
 H   -3.1481029000   -0.5638903418    1.6340666875
 H   -1.5482968329   -2.8711822874    0.2336877043
 H   -2.9910192649   -2.1295248741   -1.9402712883
 H   -4.3482091954    0.0130927925   -1.6984729820
 H   -4.1682745674   -0.0428732662    0.1085907581