21

 C   -0.2319091452    1.5133922097    0.0024071708
 C    0.0605282803    0.0155671291   -0.0516169937
 O    0.9295665461   -0.3077389321   -1.1425035880
 C    0.7561994202   -0.5139439390    1.2114901325
 C    0.8101984383   -2.0475095126    1.2402931187
 N    2.0824007515    0.0863439435    1.2958906026
 C    2.7316610099    0.1805609065    2.5029725501
 N    4.0679747703    0.5594293601    2.3989868181
 O    2.2020438871   -0.0602286182    3.5739475528
 H    0.6886352343    2.0788607544    0.1677871468
 H   -0.6893084786    1.8535444833   -0.9342002525
 H   -0.9308199206    1.7429358048    0.8130270404
 H   -0.8884621168   -0.5328259865   -0.1593077266
 H    0.5680471657    0.0855703843   -1.9421409426
 H    0.2018126528   -0.1661925038    2.0872427130
 H   -0.2001484118   -2.4707683358    1.2315376341
 H    1.3491436845   -2.4320897781    0.3698131504
 H    1.3130668855   -2.3803512751    2.1510360949
 H    2.6278582013    0.0224692213    0.4494436229
 H    4.3220242302    1.1592145200    1.6280068312
 H    4.4488394249    0.8535690042    3.2857191541