18

 O    0.0921693053    1.4154870587    0.1653313143
 C    0.0522002760    0.0113801808    0.0731115316
 C   -1.3777924872   -0.5146607214   -0.0735943662
 C   -1.5790272704   -1.2060036656   -1.3663526119
 C   -0.1273127352   -1.6842122213   -1.6583867080
 C   -0.3417661565   -2.6600223040   -0.4782649847
 N   -1.6254727562   -1.9837592958   -0.0757361539
 C    0.7571909328   -0.5178571447   -1.2253991172
 O    0.8130859603    0.5144651466   -2.2089635122
 H    0.3869401213    1.7211695422   -0.7057345077
 H    0.5291208291   -0.3997901646    0.9712465518
 H   -2.1763051389    0.0459122032    0.3986606760
 H   -2.4288334221   -1.1342936807   -2.0350181353
 H    0.1264339428   -2.1029306904   -2.6318271442
 H   -0.5823315559   -3.6737044870   -0.8046798496
 H    0.4292779637   -2.7104723193    0.2987747684
 H    1.7953076591   -0.8100888106   -1.0435596777
 H   -0.0571788179    0.5769864239   -2.6214808136