20

 O    0.4838385515    0.4493590031    0.9465715920
 C   -0.0722685455    0.3275831523   -0.3608633816
 C   -1.4091723176   -0.3998318916   -0.3447174050
 C   -2.0906819887   -0.7804696961   -1.6736257266
 C   -1.3438510664   -1.8706610397   -2.3964102757
 C   -2.2043063007   -2.2420890780   -1.2211177961
 C   -1.4659972261   -1.8935572459    0.0564692738
 C   -0.4878051836   -2.6858670735    0.8348626892
 N   -1.8454057549   -2.4052897659    1.3645117468
 H   -0.0903778254    1.0297913722    1.4566174486
 H   -0.1805673847    1.3128335100   -0.8413951758
 H    0.6655156342   -0.2357568063   -0.9393578110
 H   -2.1164869870    0.1638329517    0.2803921980
 H   -2.8322306614   -0.1732303508   -2.1775290227
 H   -1.7467491166   -2.1279386791   -3.3709099031
 H   -0.2623183635   -1.9559356891   -2.3305926265
 H   -3.0472387918   -2.9177914565   -1.2896302386
 H   -0.3069827744   -3.7273958939    0.5824974801
 H    0.3523665698   -2.1566667211    1.2735847502
 H   -1.7889614772   -1.6603127518    2.0560196543