19

 C   -0.2215053801    1.3692863023   -0.1989641927
 C    1.2259822447    1.1737153031    0.1681525112
 C    0.3052233541   -0.0204868959    0.0731621997
 C   -0.1091002606   -0.7424527228    1.3219239282
 C   -1.2263748163   -1.8390495821    1.1619338786
 O   -0.1952702700   -2.7205258237    0.6045514089
 C    0.6381161133   -2.0916674060    1.6345085107
 C   -0.0637723912   -2.5401424052    2.9245293485
 C   -1.3478977447   -2.3661148890    2.5990661443
 H   -0.8754309550    1.8186834463    0.5415819604
 H   -0.4644275593    1.6328029196   -1.2223539643
 H    1.9771064748    1.3029079966   -0.6031487284
 H    1.5453759516    1.4916342994    1.1555217963
 H    0.4361637369   -0.6673367165   -0.7877201834
 H   -0.2297128552   -0.0551312110    2.1652058226
 H   -2.1096469574   -1.7179821283    0.5357179882
 H    1.7101332212   -2.2355316574    1.5039019378
 H    0.3989482169   -2.8794636962    3.8391889600
 H   -2.2532261435   -2.5200411235    3.1669913534