25

 C    0.1244508311    1.6575996157   -0.0066066265
 C   -0.0112655094    0.1318340583   -0.0048817164
 C    0.6389394583   -0.5211576795   -1.2305863131
 C    0.6236564592   -2.0599851408   -1.2370351013
 C   -0.7951136790   -2.6399594114   -1.2766651196
 C    1.4684852802   -2.5820397357   -2.4275247093
 C    1.6653210425   -4.0279869792   -2.4311060830
 C    1.8279720275   -5.2214701158   -2.4106484842
 C    2.0338592010   -6.6633073229   -2.3984381656
 H    1.1771071020    1.9618775344   -0.0129471470
 H   -0.3498510527    2.0958842752   -0.8919080535
 H   -0.3455763726    2.1019349152    0.8763667365
 H    0.4469136596   -0.2752905203    0.9065162407
 H   -1.0735170328   -0.1344984564    0.0429863171
 H    0.1455104339   -0.1525078361   -2.1422209982
 H    1.6816773513   -0.1796757117   -1.2944442041
 H    1.1127498866   -2.4096945031   -0.3174084742
 H   -0.7638507921   -3.7312763357   -1.3374743088
 H   -1.3687420813   -2.3688550730   -0.3861903301
 H   -1.3423426355   -2.2697457887   -2.1527927171
 H    0.9872690458   -2.2725941189   -3.3665505086
 H    2.4473205804   -2.0845748184   -2.4140773586
 H    3.0266665534   -6.9273777883   -2.7799821315
 H    1.9529805469   -7.0700133605   -1.3840938221
 H    1.2938880457   -7.1795473725   -3.0203356714