18

 O    0.4828943593    1.0915982132    0.5690679485
 C    0.0627600815   -0.1726849802    0.1472834263
 C   -1.4516146734   -0.4354183703   -0.0595499945
 C   -2.3146632234    0.7494759726   -0.5366080542
 C   -2.1015779114    0.2133296120   -1.9780698309
 N   -1.2245042739   -0.9039982457   -1.4905202582
 C    0.2447387246   -0.5563429537   -1.3743574323
 C    0.7713934345    0.5096145286   -2.2000863930
 C    1.2125565290    1.4472873919   -2.8149489226
 H    0.6163997103    1.6431650273   -0.2131937054
 H    0.5252365534   -0.9102022532    0.8097724087
 H   -1.9156731383   -1.1477212255    0.6275552128
 H   -3.3464896749    0.7452317202   -0.1812309315
 H   -1.8763546598    1.7273325308   -0.3232497517
 H   -3.0025973192   -0.1955185632   -2.4441463673
 H   -1.6207255181    0.8904504925   -2.6883311066
 H    0.8481749323   -1.4585895097   -1.5171804902
 H    1.6157138377    2.2419705023   -3.3938836078