18

 C    0.0974820898    1.5928723230   -0.1118512367
 C    0.0600310180    0.1016679124    0.0419030789
 C    0.5842604351   -0.8613814344   -1.0435428418
 C    1.2702046636   -1.7206995504    0.0615253044
 C    0.7770774422   -0.7354544721    1.1651583064
 N    1.7608670018   -0.2566028853    2.0852557753
 C   -0.6582362043   -1.0526741535    1.6018646972
 O   -1.2060462514   -1.6083469538    2.5016910196
 O   -1.2373536355   -0.3872992135    0.5471284819
 H    1.1188151949    1.9194116990   -0.3287011829
 H   -0.5513279130    1.9183519870   -0.9319568486
 H   -0.2349181800    2.0874530793    0.8055334273
 H   -0.2029607169   -1.3473884839   -1.6220895419
 H    1.2963732777   -0.3966544811   -1.7289488707
 H    0.9416341260   -2.7560734392    0.1679542205
 H    2.3603159611   -1.6998993136   -0.0074377429
 H    1.3372317681    0.1202548853    2.9269404760
 H    2.3804198427   -1.0069161452    2.3723418781