19

 C    0.0056016212    1.5213660495    0.0467592852
 C    0.0287079265    0.0063278718    0.0056808143
 C   -1.2199286768   -0.6185954298   -0.5895388377
 C    1.3262957307   -0.6979869300   -0.2341977914
 O    2.4658805103    0.0787603205   -0.4344780962
 C    0.7340517455   -0.7276945729    1.1874512692
 N    1.4672673246   -0.0314007333    2.2089307020
 C    0.1592726187   -1.9760781823    1.6330461480
 N   -0.3191236634   -2.9744889410    1.9714014966
 H    0.9246363114    1.9465890084    0.4495442235
 H   -0.1249240820    1.9184563880   -0.9653921850
 H   -0.8367827741    1.8739304460    0.6520939944
 H   -1.3506360288   -0.2878262625   -1.6259472136
 H   -1.1785133247   -1.7101763555   -0.5834105837
 H   -2.1092712984   -0.3187680238   -0.0249504499
 H    1.2981579842   -1.6306338569   -0.7941821032
 H    3.2388741410   -0.4868188979   -0.3261038909
 H    2.2325751421    0.4818479858    1.7848386783
 H    0.8825983923    0.6242674360    2.7155505401