18

 O    0.0575058795    1.4248118598   -0.0428445507
 C    0.0010636023    0.0172784410    0.0094373536
 C   -1.4215469213   -0.4595130062    0.0513883397
 C   -2.4711123241    0.3727749373    0.1355611589
 C   -3.8591216695   -0.1223894056    0.0827311850
 O   -4.8212952888    0.6190858748    0.1315121707
 C   -4.0163665508   -1.6362365528   -0.0890698483
 N   -2.9158910868   -2.4284165815    0.4619302818
 C   -1.6204504118   -1.9604864043   -0.0199524500
 H    0.9800814093    1.6930276420   -0.0164182332
 H    0.4975355811   -0.4448246641   -0.8634338269
 H    0.5238003957   -0.3787688460    0.8991009114
 H   -2.3342808186    1.4459792546    0.2006866400
 H   -4.9645216899   -1.9444383035    0.3585482373
 H   -4.0903845899   -1.8426540578   -1.1674258387
 H   -2.9319821248   -2.3406935133    1.4740322925
 H   -1.4980005634   -2.2845821180   -1.0661519962
 H   -0.8303110382   -2.4721884963    0.5433772032