18

 O    0.7162546670    1.0495411166   -0.4776135890
 C   -0.0356626022   -0.0522419363   -0.0431083199
 C   -0.0552317018   -1.1314382063   -1.1111136418
 O    0.5211754865   -0.9884330460   -2.1623105397
 C    0.5672249455   -0.6168180770    1.2381797541
 C    0.2792429909   -0.1340197143    2.6020241965
 C   -1.1773987069    0.2794665793    2.7900370241
 C   -1.5443658283   -1.1433867179    2.3029694358
 N   -0.0951434726   -1.5539285828    2.1710931618
 H    1.0215433895    0.8177518421   -1.3698379337
 H   -1.0830708034    0.2447788645    0.1239835559
 H   -0.6162647630   -2.0555013179   -0.8699001340
 H    1.6021574371   -0.9175381128    1.0839791866
 H    1.0777055503    0.0498882535    3.3138296484
 H   -1.4423850151    0.4471364132    3.8347957938
 H   -1.5202428028    1.1370194746    2.2031582955
 H   -2.0084442143   -1.7575746559    3.0765192073
 H   -2.1359203965   -1.2415418065    1.3871977784