13

 C    0.0164376963    1.4704131864    0.0293150254
 C    0.0093074110   -0.0183311079   -0.0495510126
 N    0.1678008818   -0.7504698484   -1.1418586860
 C    0.0876729051   -2.0291133289   -0.6696355469
 N    0.2661989241   -3.1196397023   -1.4984692016
 N   -0.1166176171   -2.1430421515    0.6363282669
 N   -0.1578776524   -0.8281415938    1.0112010715
 H    0.9951086392    1.8667750316   -0.2580568548
 H   -0.7227266507    1.8918305382   -0.6576461857
 H   -0.2123096000    1.8170590854    1.0406275055
 H    0.0087739401   -2.9301483583   -2.4558575496
 H   -0.1449011399   -3.9699926630   -1.1419733230
 H   -0.3026000276   -0.5902870173    1.9776777308