23

 C   -0.0119431422    1.4998611616   -0.2251313360
 C   -0.1482337166   -0.0134989938   -0.2002330686
 O    0.9350691881   -0.5645082910   -0.9348420327
 C    0.8732252709   -1.9500537644   -1.1425260337
 C    1.1071000675   -2.7950891673    0.0907102022
 C   -0.0838212435   -2.4348417678   -2.2253684111
 C    1.4159317480   -2.3918353274   -2.4740073927
 C    1.9943425392   -1.3886397618   -3.4446755965
 O    2.1049539248   -3.6180536976   -2.4407484598
 H    0.9427492384    1.8057088222    0.2122304176
 H   -0.0521545498    1.8746119244   -1.2520706198
 H   -0.8205550034    1.9648914201    0.3469281534
 H   -0.1374270395   -0.3788053644    0.8373877183
 H   -1.1049118174   -0.3268006978   -0.6459977750
 H    0.2747030011   -2.7104279432    0.7970030869
 H    1.2226015797   -3.8437165854   -0.1841189422
 H    2.0214995780   -2.4697194731    0.5974108452
 H   -0.5429278286   -3.4091603677   -2.0940055455
 H   -0.7002637908   -1.6933068228   -2.7227013496
 H    1.4967656050   -0.4226937174   -3.3537177650
 H    3.0617883458   -1.2482086070   -3.2479564866
 H    1.8818869911   -1.7443551826   -4.4764043748
 H    1.9463118440   -4.0626473158   -3.2807317940