19

 O   -0.1486746341    1.4558641948   -0.0336714393
 C    0.0221369395    0.0624596636    0.0048881570
 C    0.2742109477   -0.6625922416    1.3818365018
 C   -0.7519013399   -1.7546783502    0.9429075366
 C   -1.9336192398   -2.1862966018    1.8049802016
 O   -3.0033947248   -2.5640646742    0.9435501781
 C   -3.5462877243   -1.5022641333    0.1725411605
 C   -2.5161412698   -0.5419999376   -0.3698173226
 C   -1.2413426780   -0.7512440708   -0.0794112883
 H    0.7160976807    1.8671902608   -0.1257045953
 H    0.7690715886   -0.2693880974   -0.7332221081
 H    1.2945750981   -0.9793072088    1.6108336107
 H   -0.1174052935   -0.0454641856    2.1949965030
 H   -0.2560357057   -2.6272196121    0.5045446288
 H   -1.7269869609   -3.0648277599    2.4228734380
 H   -2.2359593316   -1.3585395380    2.4668188615
 H   -4.1124849623   -1.9844725919   -0.6338999536
 H   -4.2766272017   -0.9299224861    0.7738113778
 H   -2.8660883983    0.3423588002   -0.8938369881