18

 C    0.0509045571    1.4967177462   -0.0341700503
 C    0.0452755152   -0.0038269017   -0.0207559248
 C   -0.9232068152   -0.8490995459    0.7630336057
 C    0.5574956213   -0.9731499011    1.0328099577
 C    1.3429910907   -1.7621513894   -0.0521654015
 C    0.4790825361   -2.2846890204   -1.1869347840
 C    0.8281898549   -0.8241382795   -1.1099191038
 O    1.5758385656   -0.1778565774   -2.0802941989
 H    1.0468561321    1.8836601748   -0.2720258807
 H   -0.6456770912    1.8980163387   -0.7814100720
 H   -0.2483509824    1.8950100939    0.9407422962
 H   -1.4657173251   -0.3005337661    1.5290661252
 H   -1.5083588181   -1.6491949386    0.3230832569
 H    0.9816488769   -0.7405674274    2.0019053451
 H    2.3510493360   -2.1248818255    0.0992359647
 H    1.0587406402   -2.8073228380   -1.9427886179
 H   -0.5178219726   -2.6879871495   -1.0440267085
 H    1.0189490286   -0.0551387131   -2.8577270192