13

 O   -0.0111823243   -0.0780470316   -0.0021847760
 C   -0.0593388959    1.1266951979    0.0357730662
 C   -1.3253905061    1.9590303066   -0.0052529953
 C   -1.1019563825    3.2856440124    0.7047402197
 O    0.0407642395    3.9759639604    0.1713962167
 C    1.1970425063    3.2967472482    0.0313452359
 O    2.2419914182    3.8529631625   -0.1550121174
 N    1.0926867984    1.9038026928    0.1067110131
 H   -1.5868286302    2.1303645564   -1.0563772446
 H   -2.1353703376    1.3869641698    0.4514264479
 H   -1.9396115338    3.9698807686    0.5649879972
 H   -0.9532770390    3.1338637282    1.7809198834
 H    1.9743466170    1.4116480578    0.0439709134