18

 O    0.0526167531    1.4570908079   -0.3297950153
 C    0.0018622072    0.0425832534   -0.2701390401
 C   -1.3760312677   -0.4705878428    0.1806615776
 C   -1.4400586892   -1.9661861361    0.2160868141
 N   -1.5445470067   -2.8059313709   -1.0353764560
 C   -2.5436440622   -2.9792543438    0.0261632754
 C   -1.9176521482   -3.9739066566    1.0131556341
 C   -0.8194548069   -2.8943255489    1.2416212236
 O    0.0394663500   -2.7457709993    2.0624451149
 H    0.0448180137    1.7921368490    0.5723324275
 H    0.2155466097   -0.3106519011   -1.2842115971
 H    0.7781994430   -0.3695562355    0.3896717035
 H   -1.5898732823   -0.0796507342    1.1844833849
 H   -2.1461166426   -0.0690756818   -0.4894209398
 H   -1.9429205635   -2.1825729633   -1.7402426486
 H   -3.5955737933   -2.7824403968   -0.1349121778
 H   -2.4897407880   -4.1354742041    1.9310633280
 H   -1.6014137759   -4.9287255153    0.5887939713