19

 C   -0.0412528034    1.5135625457    0.0563890467
 C   -0.0739106415   -0.0179937684   -0.0142308404
 C   -1.4722420157   -0.5657709106   -0.0894120226
 C   -2.5760254000   -0.2760988583   -1.1207733052
 C   -3.2289931308   -1.1382493831   -0.0422904873
 C   -1.9723160982   -2.0269164487    0.1809278432
 C   -2.0465492555   -1.7183304407    1.6706886876
 N   -2.4901140125   -0.3785623984    1.0912050389
 H    0.9854042891    1.8796727608    0.1488645236
 H   -0.4764230301    1.9611820560   -0.8429178314
 H   -0.6147898253    1.8693638984    0.9168742810
 H    0.4850959670   -0.3700751917   -0.8912685341
 H    0.4318684321   -0.4424419512    0.8623086824
 H   -2.9223019571    0.7591954914   -1.1849536699
 H   -2.4552966779   -0.7259014075   -2.1101372620
 H   -4.2737985568   -1.4256669571    0.0883863386
 H   -1.6898007809   -2.9427535239   -0.3508589028
 H   -2.8270347092   -2.2126689616    2.2589445653
 H   -1.1162370031   -1.6671566311    2.2454119782