15

 C   -0.0365837968    1.5847546202    0.0392752870
 C    0.0169418827    0.0885873157   -0.0060499497
 C   -0.9002144088   -0.8411344130    0.7836765561
 C    0.5819495060   -0.9609748779    0.9562998870
 O    1.1260870531   -1.7330085147   -0.1439252319
 C    0.7022095101   -0.7476851759   -1.0463052588
 N    0.9047733460   -0.6276477549   -2.2723819464
 C    1.3344199035   -0.8375542764    2.1566002843
 N    1.9291715152   -0.7195293066    3.1419335945
 H    0.9350627653    2.0193896701   -0.2095281293
 H   -0.7693354587    1.9576942202   -0.6830680267
 H   -0.3307728847    1.9349338176    1.0325113986
 H   -1.4353267400   -0.3532263680    1.5924688272
 H   -1.4214284241   -1.6620033859    0.3016856708
 H    1.4568683911   -1.3999770004   -2.6480741028