19

 C    0.1465367933   -1.2122434941   -0.1304682516
 C    0.0623030383   -0.0139477310   -0.0756066287
 C   -0.0349644535    1.4287169150    0.0032387605
 C   -0.3012879422    2.1278709274    1.4066590279
 C    0.7081392654    3.2559286261    0.9949712258
 C    1.9768220224    3.6677904397    1.7694085089
 C    3.1380268182    3.3346163205    0.7720739285
 C    2.5493369774    2.2257730937   -0.0988440800
 C    1.2259004133    2.2767816485   -0.0215112452
 H    0.2220244338   -2.2700567864   -0.1807350853
 H   -0.7757765851    1.7972144964   -0.7174821657
 H   -1.3360838393    2.4121667167    1.6096902591
 H    0.0840847264    1.5090756238    2.2196001143
 H    0.1733667408    4.1124295173    0.5661596480
 H    1.9802437201    4.7135505504    2.0895274559
 H    2.0858466658    3.0482784902    2.6667898303
 H    3.4247513813    4.2155603287    0.1805143188
 H    4.0446625758    3.0064067155    1.2918804755
 H    3.1505356278    1.4847555316   -0.6115836269