14

 N   -0.0527673648    1.1904355200   -0.6473226163
 C   -0.0077336523    0.0692243839   -0.0495520295
 N    1.1200841280   -0.4099038715    0.6402335276
 N    1.5114028873   -1.6905812435    0.9097429688
 C    0.6806242137   -2.5792313831    1.3344496005
 N   -0.6426480143   -2.4729033341    1.7149845683
 C   -1.4608657309   -1.6331791455    1.2090593900
 C   -1.2575117582   -0.7608380310    0.0230648203
 N   -2.1305434709   -0.6457395650   -0.8970325453
 H    0.8376194969    1.6909830964   -0.6028662204
 H    1.9397480175    0.1582775554    0.4715838219
 H    1.1265572435   -3.5480273756    1.5370367279
 H   -2.4693045504   -1.6039209800    1.6311007599
 H   -2.9564552051   -1.2123514864   -0.6778653638