18

 C   -0.0178555856   -1.2474839462    0.3595939659
 C    0.0219025681   -0.0610140211    0.1691946569
 C    0.0700567416    1.3902788627   -0.0578422779
 O   -0.6283849309    2.1103242463    0.9488252724
 C    0.2730817071    2.2603874080    2.0479838057
 C    1.6661908095    2.4839386237    1.4247903046
 C    1.5045276849    1.9499350542   -0.0000342266
 C    2.5889477817    1.4177568298   -0.8502006496
 N    2.0369003531    2.7644096587   -1.0989831355
 H   -0.0599405092   -2.2959143674    0.5248815499
 H   -0.4156544227    1.6226825507   -1.0127352264
 H   -0.0839658534    3.1019547058    2.6450148742
 H    0.2589123485    1.3562691597    2.6726363949
 H    1.9287263615    3.5430664731    1.3797281956
 H    2.4485327430    1.9601547199    1.9798263737
 H    3.6105678321    1.4027870132   -0.4797255039
 H    2.3475798299    0.6121310073   -1.5396002866
 H    1.4114072108    2.7429209817   -1.9014542772