21

 C    0.0551178838    1.5558077542    0.0335659683
 C   -0.0219815336    0.0250956915   -0.0474964499
 C   -1.4254016905   -0.5371332060    0.0119298339
 C   -2.3500646818   -0.4712239955    1.2733115146
 C   -3.0933016637   -1.5913406885    0.5205158831
 O   -3.5861931026   -0.9495818747   -0.6765386563
 C   -2.4438748403   -0.1393614284   -1.0662774576
 C   -1.7115873157   -2.0933095553    0.0502126369
 O   -1.6413974383   -2.8580071736   -1.1148299771
 H    1.0956709677    1.8938935890    0.0265909014
 H   -0.4512948247    2.0323526205   -0.8120138697
 H   -0.4098145946    1.9286619495    0.9523610452
 H    0.4531372098   -0.3198311831   -0.9755267590
 H    0.5638185806   -0.4104878136    0.7718589172
 H   -1.8555207628   -0.8172543003    2.1834767485
 H   -2.9061446998    0.4499001517    1.4578611422
 H   -3.8746199074   -2.2203675599    0.9439983328
 H   -2.7192573276    0.9200286324   -1.0487666247
 H   -2.1208753418   -0.4099595665   -2.0783965088
 H   -1.1273949085   -2.5878145820    0.8295841543
 H   -2.4335978281   -2.6413679015   -1.6244635451