23

 C    0.3016980041    0.7054737412   -2.3993384299
 C    0.1979572348   -0.3456737311   -1.3152480707
 C    1.3220203008   -0.6365191192   -0.3130960036
 C    2.6470383245    0.0947292836   -0.3165244890
 C    0.0495698432    0.0205125028    0.1271617875
 C   -0.1658789395    1.3769446818    0.7881318049
 C   -1.0998959224    0.5896246959    1.7386455138
 C   -2.5615230977    0.9827717449    1.7957748440
 O   -0.8865242218   -0.6358800872    0.9871109748
 H    0.8147532507    1.6068103925   -2.0513027931
 H    0.8513668690    0.3299564090   -3.2696566287
 H   -0.6937127225    1.0091291952   -2.7425726805
 H   -0.3690429729   -1.2290738149   -1.6006722082
 H    1.3897629690   -1.6847079265   -0.0304119724
 H    2.5301148981    1.1592327970   -0.5399001782
 H    3.1363864868    0.0184549171    0.6610425508
 H    3.3319535131   -0.3233553474   -1.0627478754
 H    0.7108173674    1.8356554935    1.2497682748
 H   -0.6772807299    2.1188176189    0.1687276345
 H   -0.6928122415    0.4834996848    2.7532247652
 H   -2.9682190905    1.1104361062    0.7877696497
 H   -3.1450906120    0.2101875810    2.3062359506
 H   -2.6839612506    1.9230864209    2.3449413190