16

 O   -0.0062321865    0.0118285117   -0.2994738749
 C    0.0256625060    1.1669701111    0.0202752159
 O   -1.1181145576    1.7857714581    0.4290056543
 C   -1.0912923303    3.1754082423    0.8158527593
 C    0.2974331291    3.7880694134    0.7048669547
 C    0.9080175191    3.3976852095   -0.6665473566
 C    1.2617725206    2.0415331631    0.0144549371
 C    1.3224028300    2.8254844240    1.3597394432
 H   -1.8051168113    3.6978623815    0.1686639217
 H   -1.4621289741    3.2242554896    1.8461185778
 H    0.2752149779    4.8379121408    1.0058727545
 H    0.2533522360    3.3815746793   -1.5419976188
 H    1.8098997219    3.9710524524   -0.8919967022
 H    2.1176315300    1.4611157158   -0.3244795528
 H    2.2982851716    3.2966709637    1.4961423904
 H    1.0341602075    2.3034045536    2.2760401964