21

 C   -0.8125712720    1.1157822348    0.3212105233
 C   -0.1540300665   -0.2411357949    0.1926004245
 C    1.2086456483   -0.3885162563   -0.4398733342
 C    1.0301911952   -0.6820539120    1.0290580829
 C    1.6634217059    0.2032560806    2.0946816422
 C    0.8999919085    0.1008221728    3.4383533747
 O    1.4619145601    0.9084224677    4.4482641894
 C    3.0697225688   -0.1430008826    2.3115406594
 C    4.2099573523   -0.4443570802    2.5512743612
 H   -0.0866801885    1.9113656707    0.5132139187
 H   -1.3367035270    1.3751531227   -0.6051506345
 H   -1.5489992801    1.1328312089    1.1324303752
 H   -0.8564861010   -1.0403975276   -0.0311493801
 H    1.3958935007   -1.2136040951   -1.1180452577
 H    1.7347490633    0.5254040167   -0.7000316270
 H    1.0397422845   -1.7342842929    1.3020374345
 H    1.6204541601    1.2528007126    1.7792574256
 H   -0.1251565406    0.4523405949    3.2905483337
 H    0.8533419546   -0.9581917579    3.7388469571
 H    2.3885388037    0.6512846093    4.5306228953
 H    5.2246993697   -0.7036082722    2.7277328559