21

 C   -0.2375932683    1.5097652926    0.0040083382
 C    0.0878324218    0.0108583775   -0.0641654222
 C    0.7881026648   -0.4860602337    1.1702962430
 C    2.2291338896   -0.1302453687    1.5666848392
 C    2.4442915374   -1.6123429469    2.0176320454
 O    2.7625267603   -1.8679900201    3.3863401120
 C    1.0000758313   -1.9445366783    1.6846635968
 C    0.0813979469   -0.9937862936    2.3950478002
 O    0.3080645875   -0.5080824364    3.6854177518
 H    0.6728974374    2.1072584437    0.1203263608
 H   -0.7420344569    1.8451745454   -0.9074245212
 H   -0.8889434602    1.7306001098    0.8554737700
 H   -0.8382067883   -0.5604820504   -0.2068948138
 H    0.7089127609   -0.1891315042   -0.9482755332
 H    2.8644939827    0.1469268898    0.7218212008
 H    2.3219027709    0.6192472995    2.3579244459
 H    3.1541303735   -2.1323540626    1.3637833370
 H    3.6441188808   -1.5233435349    3.5644651406
 H    0.6613483679   -2.8903941583    1.2769018913
 H   -0.9739705584   -1.2052674715    2.2292238253
 H    1.1027018282   -0.9481926585    4.0180345622