20

 O    0.0533223323    1.4518286629    0.1441884977
 C   -0.0011765072    0.0634843382   -0.0304930549
 C    0.4643399370   -0.8484229002    1.1427823471
 C   -0.8315839536   -1.6983173116    1.0008955476
 C   -1.8003028979   -1.7799256720    2.2033146992
 C   -2.7344277904   -0.5901084250    2.0560492477
 N   -2.0531240960    0.7231981184    1.9967845405
 C   -2.5147562455    0.0684523941    0.7401015888
 C   -1.4045497930   -0.6423782249   -0.0093110177
 H   -0.4139739837    1.6195857013    0.9745902609
 H    0.5351735409   -0.1512739173   -0.9594156407
 H    1.4099751967   -1.3774170821    0.9975775703
 H    0.5081985136   -0.2982133242    2.0857542795
 H   -0.6429679725   -2.6824328555    0.5680769108
 H   -2.3960735677   -2.6992692373    2.1629589439
 H   -1.2708076732   -1.7755752280    3.1623301747
 H   -3.7162253873   -0.6216635119    2.5185927299
 H   -2.7160020958    1.4501447217    2.2544531011
 H   -3.3240288540    0.5410058600    0.1940033889
 H   -1.7669613527   -1.0077845268   -0.9734379752