19

 C   -0.0048762821    1.6705394133    0.0116026266
 C    0.0369604057    0.1533438668    0.0066216552
 C    1.1338727868   -0.5925943951   -0.7580784186
 O    2.3548435076   -0.0394986682   -0.1383392895
 C    2.0762933069   -0.0449469808    1.2995087501
 C    0.7108058168   -0.6893151868    1.1760410931
 O   -0.1447067732   -1.4496098610    2.0154581822
 C   -0.3055470700   -2.3930427134    0.8940858845
 C    0.9476776098   -1.8207811345    0.1587665345
 H    0.9979214811    2.1020414893    0.0464613879
 H   -0.4916429475    2.0434470712   -0.8961108745
 H   -0.5771111953    2.0448736192    0.8673764325
 H   -0.9510563055   -0.2602453944   -0.2000137004
 H    1.2854964510   -0.5897911866   -1.8367589406
 H    2.8095263821   -0.6623373922    1.8263758887
 H    2.1031616165    0.9786878989    1.6856970590
 H   -0.1780454583   -3.4204361726    1.2425472080
 H   -1.2818735661   -2.2841320062    0.4137944155
 H    1.8306105538   -2.4505620869    0.2666815057