17

 O    0.0044681088    0.0026425301    0.0272422664
 C   -0.0033608797    1.2049318524    0.0108709903
 C   -1.2378869801    2.1378188028    0.0069047248
 N   -0.6777819996    3.5073049307    0.0537549605
 C   -0.0723563035    3.6972014665    1.3980875458
 C    1.2041976418    2.7867499437    1.4295057873
 C    1.1787919422    2.1737848937    0.0013323604
 C    0.5385081354    3.3440958995   -0.7850327273
 H   -1.8030180727    1.9961097358   -0.9217758205
 H   -1.9120336033    1.9343470611    0.8424433441
 H    0.1907327741    4.7517205945    1.5161581259
 H   -0.7999392974    3.4471665862    2.1732859077
 H    2.1174143738    3.3707415920    1.5759153768
 H    1.1690110205    2.0250981193    2.2121334878
 H    2.1147934659    1.7380948814   -0.3430744106
 H    0.2702314139    3.0987095861   -1.8163536176
 H    1.1419549198    4.2559584541   -0.7802064519