15

 C   -0.2674138273    1.5108460512   -0.0648205130
 C    0.0829155312    0.0391886164   -0.0379488425
 O    1.2810071609   -0.2623793389   -0.7901619201
 C    1.9492939086   -0.8068801644    0.3584214840
 C    0.7110089431   -0.5658649908    1.2658535878
 C    0.8830254691    0.2912018705    2.4186422978
 C    1.0375509730    1.0055874012    3.3738382413
 H    0.5453221937    2.1160808182    0.3442819502
 H   -0.4538477017    1.8238619388   -1.0967759463
 H   -1.1711438310    1.7012625571    0.5233362999
 H   -0.7595932940   -0.5611970260   -0.4060156558
 H    2.2247704042   -1.8592040525    0.2208428018
 H    2.8394306108   -0.2309588649    0.6346687146
 H    0.2203073345   -1.4964339468    1.5625701258
 H    1.1713067948    1.6332359311    4.2198777245