21

 C   -0.1424809392    1.4966326736    0.0328088788
 C    0.0447355044   -0.0091965019   -0.0144082107
 C    0.6245472370   -0.5561400222   -1.3450372065
 C    0.0805776686   -1.9739196887   -1.3586145925
 C    0.1298277787   -2.6741302101   -0.0050888491
 C    1.0074139972   -2.0916166458    1.0921108039
 C    0.8763841761   -0.5448752478    1.1652898775
 C   -1.1070836931   -1.9267385931   -0.4319386441
 O   -1.2597580121   -0.6246514560    0.0757533562
 H    0.8202757662    2.0081519893   -0.0621914556
 H   -0.7937512642    1.8250867309   -0.7820355329
 H   -0.5993748255    1.7984753127    0.9800937257
 H    0.2407072807    0.0089676854   -2.2016267733
 H    1.7176805885   -0.4944724493   -1.3588278617
 H    0.0841168158   -2.5511433100   -2.2754431185
 H    0.0664117627   -3.7581169854   -0.0329384267
 H    0.7344127477   -2.5370049212    2.0545854824
 H    2.0488555918   -2.3807455433    0.9091417176
 H    1.8631824900   -0.0693186902    1.1693908503
 H    0.3709083166   -0.2456524018    2.0885461013
 H   -2.0551989978   -2.4188541455   -0.6112653621