19

 O   -0.0991131362    1.3303885804    0.0402654876
 C    0.0407432359   -0.0657440541    0.0010381245
 C    1.0283484220   -0.6730082316    1.0101641729
 C    1.3175939004   -2.0985643515    0.4539306111
 C    0.4733734572   -2.1794500572   -0.8302527885
 C   -1.0481421925   -2.1419245041   -0.6180381303
 C   -1.2463170193   -0.9743103823   -1.5531159434
 C   -1.3328109595   -0.7364615214   -0.0667118417
 C    0.2976989104   -0.7387430880   -1.3965376697
 H    0.7784881422    1.7182405336   -0.0487119504
 H    1.9441880643   -0.0686838997    1.0463456682
 H    0.6116892769   -0.6786242921    2.0217459849
 H    2.3823026131   -2.2256054739    0.2310266353
 H    1.0450740768   -2.8874758230    1.1621128983
 H    0.7900759647   -2.9375240837   -1.5494424337
 H   -1.7188223536   -2.9681793780   -0.4167624408
 H   -1.9532617374   -0.8018327878   -2.3501988943
 H   -2.2006298554   -0.5186824518    0.5426900945
 H    0.9796426499   -0.2973187339   -2.1216596646