16

 N   -0.0155689966   -1.1290485009    0.0428448494
 C   -0.0289511732    0.0275802578    0.0520555805
 C   -0.0204429627    1.4691456910    0.0289839942
 C   -0.8551199741    2.2230841725   -1.0364313762
 C   -0.0746032141    3.5436699202   -0.8591717267
 N    1.3125747230    3.2065038562   -1.2745074203
 C    1.3531708846    2.3664514343   -0.0966661625
 C    0.4195823812    3.3226165291    0.6617585688
 N   -0.2814264819    2.2061278284    1.2941184500
 H   -0.7669551052    1.8228099341   -2.0500659507
 H   -1.9119431496    2.2628405528   -0.7575203143
 H   -0.5050713343    4.4721141760   -1.2299731497
 H    1.3983220864    2.7358009217   -2.1744801650
 H    2.2788519676    1.9290005660    0.2686223354
 H    0.7371865638    4.1778717469    1.2521818620
 H   -1.2726239049    2.3509891541    1.4864345553