23

 C   -0.3657702026    1.4533557929    0.2805785616
 C   -0.2430001544   -0.0693363813    0.3619877980
 C    1.1779637482   -0.5244123892    0.7528380670
 C    1.3189592194   -1.9741296207    0.8363516916
 C    1.4090176100   -3.1744660973    0.8860085911
 C    1.5273244076   -4.6241714730    0.9831609992
 C    1.5414300725   -5.1129484002    2.4351509699
 O    1.6571894653   -6.5172078254    2.4143927016
 C    1.6819355017   -7.0842743854    3.7017252575
 H    0.3210754486    1.8683518428   -0.4656586701
 H   -1.3802003687    1.7542033896    0.0020866857
 H   -0.1314746214    1.9233313916    1.2424183092
 H   -0.9551708094   -0.4671290608    1.0936390914
 H   -0.5062998422   -0.5214222490   -0.6007824158
 H    1.8976438346   -0.1259202862    0.0245032176
 H    1.4489422213   -0.0723115245    1.7169008856
 H    0.6960810610   -5.1140957886    0.4614276885
 H    2.4455413040   -4.9697567160    0.4926012893
 H    2.3846736780   -4.6567346163    2.9789872263
 H    0.6161613754   -4.8020015712    2.9471878335
 H    2.5364540825   -6.7190900551    4.2935635952
 H    0.7596634095   -6.8653963099    4.2632956549
 H    1.7730902692   -8.1665769768    3.5816170211