15

 O   -0.0437814375    1.3211349513   -0.0450536944
 C    0.0452859896   -0.0727454344   -0.0197532747
 C   -0.5250506022   -0.6950360494    1.2397878323
 C   -1.3135050052   -0.7024575371   -0.0488846252
 C   -1.2575939312   -2.2435620481    0.0201336075
 C    0.1031882432   -2.8260717036    0.1978221155
 N   -0.5390776307   -2.2055078066    1.3627700984
 C   -2.4167268883   -3.0547141257   -0.1976176655
 N   -3.3597648789   -3.6909032793   -0.4092668104
 H    0.6709873219    1.6775119259    0.4939067776
 H    0.8932967556   -0.4780964866   -0.5667639511
 H   -0.6686362411   -0.1208772495    2.1454394620
 H   -2.2021580052   -0.1526141057   -0.3233990736
 H    0.1426632344   -3.9074724534    0.2889343124
 H    0.9713301957   -2.3876211079   -0.2774813307