19

 C   -0.1310457303    1.5608805326    0.0009973303
 C    0.0941625342    0.0518686719   -0.0137513439
 C    0.8891332186   -0.5121993995   -1.2036311224
 C    1.5993044195   -1.7531493446   -0.6261530927
 N    1.7263345410   -1.4350161314    0.7848830670
 C    2.5052342246   -2.2359694505    1.6976388207
 C    0.8852581758   -0.4388489364    1.2065477255
 O    0.7779548410   -0.0368740650    2.3484406226
 H    0.8160052589    2.0989861590   -0.1144796821
 H   -0.7987070002    1.8711716693   -0.8084807032
 H   -0.5711306606    1.8607681217    0.9554464137
 H   -0.8811318454   -0.4528504888    0.0474898194
 H    0.2690663267   -0.7549142065   -2.0691885281
 H    1.6368898137    0.2213311727   -1.5241982251
 H    1.0082225698   -2.6710025468   -0.7729322760
 H    2.5834002931   -1.9244891656   -1.0776360021
 H    3.5638950578   -2.2429511227    1.4115486868
 H    2.4010590641   -1.7978471145    2.6919068039
 H    2.1505254377   -3.2752085149    1.7237189257