18

 C   -0.0160791851    1.3637190887   -0.2360152524
 C    0.0583240762   -0.1084999093    0.1854231881
 C    0.7506740094   -0.2845555775    1.5419910206
 N   -1.2717548358   -0.7095299773    0.2017209428
 C   -1.6352197086   -1.7507358402   -0.6043212665
 C   -3.0692386829   -2.2319050260   -0.4316717811
 O   -0.8780852656   -2.2671249429   -1.4075883307
 H    0.9854856908    1.8020643450   -0.2873538687
 H   -0.4865772138    1.4637738972   -1.2178908087
 H   -0.5986128110    1.9518707728    0.4838441874
 H    0.6043742950   -0.6739329010   -0.5741652856
 H    1.7631497131    0.1303310767    1.5158482405
 H    0.2004676252    0.2341979075    2.3367395537
 H    0.8188085223   -1.3425559296    1.8092904494
 H   -1.9516646417   -0.3330391021    0.8427746260
 H   -3.6361763917   -1.6783130031    0.3216655806
 H   -3.5833280901   -2.1526964079   -1.3931707410
 H   -3.0529805157   -3.2901781811   -0.1580377744