19

 C   -0.5041212461    1.4409113496   -0.1675497688
 C    0.0925124924    0.0583189865    0.0377159119
 C    1.3391489464   -0.3247137075   -0.8127547450
 N    2.0251182528   -0.7170497940    0.4222238995
 C    0.9782364183   -0.1615343520    1.3006257013
 C    3.3824494660   -0.7346191256    0.5821777982
 N    4.1834959133   -0.6684242201   -0.4143569911
 C    3.8638419810   -0.9063949726    2.0077499436
 O    5.0337398696   -0.9244170204    2.2923195349
 H    0.2654182016    2.2177030399   -0.0995766295
 H   -0.9743320857    1.5225373741   -1.1531941587
 H   -1.2695755944    1.6586775161    0.5850331382
 H   -0.6858211026   -0.7060123573   -0.0313331202
 H    1.2255387446   -1.1356092768   -1.5380740589
 H    1.8273488341    0.5226884967   -1.3106428902
 H    1.2648534034    0.7754211639    1.7971608495
 H    0.5955525558   -0.8591937247    2.0528080409
 H    5.1387876527   -0.7580085499   -0.0612112072
 H    3.0792547269   -1.0268420058    2.7840707018