19

 C   -0.5628346568    1.1180636951   -0.3419988758
 C   -0.4859266696   -0.3644962709   -0.6566864107
 O   -1.4481112640   -0.9702660075   -1.1159884757
 N    0.6992133626   -0.9706582585   -0.3967300729
 C    0.9155425753   -2.3929707049   -0.6384521839
 C    1.1729371553   -2.7673736620   -2.1243762289
 C    0.2099059683   -3.8099675513   -2.7104048352
 N   -1.1055418238   -3.5243809558   -2.5305087313
 O    0.6143552112   -4.7972486556   -3.2974092613
 H   -0.7728434464    1.6642660298   -1.2656154261
 H   -1.4038019975    1.2878124042    0.3349515701
 H    0.3471958687    1.5193253460    0.1106784940
 H    1.4674589392   -0.4140081220   -0.0625551767
 H    1.7660206911   -2.6956237193   -0.0236895733
 H    0.0384455191   -2.9266924513   -0.2646089395
 H    1.1007251483   -1.8607424113   -2.7347324594
 H    2.1769381903   -3.1721100162   -2.2594362737
 H   -1.4107146018   -2.6668617013   -2.0807098382
 H   -1.7797324395   -4.1570360373   -2.9281468417