17

 O    0.2092044963    1.3699117512   -0.2109206658
 C    0.0197459378   -0.0081717809   -0.0017183896
 C    0.3103771473   -0.6436961244    1.3641963780
 C   -0.7325013024   -0.2705040416    2.3865598286
 C   -1.0749309928   -1.3112783368    1.3601918627
 C   -1.4092937861   -0.6001857141    0.0641011230
 C   -2.6639239342    0.0364727945   -0.3910727706
 N   -2.1415194467   -1.1850728276   -1.0457611809
 H   -0.1899083449    1.8378194781    0.5305257612
 H    0.5954686083   -0.5067418788   -0.7890513629
 H    1.2634538327   -1.0638183477    1.6602480628
 H   -0.5345382702   -0.6324889364    3.3901537712
 H   -1.2328053819    0.6963151155    2.3635530967
 H   -1.3369554905   -2.3323840529    1.6029603269
 H   -3.5869524791   -0.1040141005    0.1650921697
 H   -2.5797816195    0.9837890014   -0.9184503265
 H   -1.6933096441   -0.9429395691   -1.9275018744