23

 C    0.0524739324    1.4381181593   -0.3104562649
 C   -0.0518944780    0.0000824736    0.2105460989
 C   -1.4745441494   -0.5273699808    0.2043111548
 C   -1.9897604596   -1.1490733099   -1.0747636332
 C   -1.6802281527   -2.0218674785    0.1344096800
 C   -3.0700478591   -2.6453973203    0.3743182933
 C   -3.4564162564   -3.0321554731   -1.0982348785
 C   -3.4871895164   -1.4700555949   -1.2577930867
 C   -4.0635958122   -1.4668613372    0.1844598899
 H    1.0873570774    1.7941552871   -0.2915756964
 H   -0.3115687276    1.5100479641   -1.3405419170
 H   -0.5464323452    2.1232510762    0.2997709695
 H    0.5830103252   -0.6575911331   -0.3971082513
 H    0.3473201945   -0.0509783204    1.2320146618
 H   -2.1503006555    0.0710535487    0.8080175012
 H   -1.3524783575   -1.1438423805   -1.9532358726
 H   -0.8123178948   -2.6726224662    0.1630035832
 H   -3.1697566960   -3.3478971568    1.2023926012
 H   -2.7178599900   -3.5855753944   -1.6853670374
 H   -4.4425541988   -3.4983486036   -1.1822440666
 H   -4.0091266664   -0.9827883979   -2.0819981264
 H   -5.0984807757   -1.8152895068    0.1985378538
 H   -3.9797893380   -0.5744369946    0.8055364835