19

 C   -0.1295643216    1.5720925992    0.0489304927
 C    0.0407377633    0.0548414926   -0.0197896339
 O    0.7135421654   -0.3614054467   -1.2154742108
 C    2.1278278016   -0.2189970919   -1.1875580821
 C    2.7003354070   -0.7264478609    0.1390828284
 O    2.3287882255   -2.0724875815    0.3710532383
 C    1.0644656963   -2.0289924949    1.0394671445
 C    0.7862386381   -0.5180540578    1.1937156985
 O    2.1174920834    0.0178589205    1.1941217663
 H    0.8310107943    2.0701731828    0.2002855212
 H   -0.5787139645    1.9376565899   -0.8780210909
 H   -0.7858831490    1.8453750005    0.8820121830
 H   -0.9463476573   -0.4188491242   -0.0862120977
 H    2.5104636878   -0.8132443650   -2.0221275183
 H    2.4367964444    0.8279918304   -1.3290162673
 H    3.7890527188   -0.6330892272    0.1895498856
 H    0.3020486421   -2.5351740353    0.4391648412
 H    1.1551262084   -2.5276034240    2.0107659078
 H    0.3035589061   -0.2487258964    2.1354405736