17

 C    0.1966888090    1.5751816572   -0.1303134294
 C    0.1564805241    0.1236096737   -0.0357891463
 C    0.1179595567   -1.0776711744    0.0400879309
 C    0.0732443985   -2.5171349204    0.1442005909
 C   -0.1492112866   -3.1663182262    1.5355975288
 O   -1.2203223601   -3.9888836462    1.0348630908
 C   -1.2414447923   -3.2990367924   -0.2377924178
 C   -2.4470283442   -2.5196076763   -0.4547748638
 C   -3.4499301436   -1.8856306741   -0.6455073744
 H    0.9540473738    1.9083733157   -0.8483726946
 H   -0.7695834426    1.9757842618   -0.4557666348
 H    0.4342432714    2.0296770935    0.8378760133
 H    0.9257224207   -2.9681975507   -0.3713952142
 H    0.6793478760   -3.7638010034    1.9293476456
 H   -0.4941763320   -2.4611893317    2.3003301877
 H   -1.1030435629   -4.0073068461   -1.0632947465
 H   -4.3368549957   -1.3250794500   -0.8099992061