18

 C    0.0615059681    1.3619839595    0.3500682245
 C   -0.0334823623   -0.0032271629   -0.3421226525
 C   -1.4014073416   -0.6340496171   -0.1904143715
 C   -1.6578466036   -2.1384240205   -0.1406687243
 N   -0.5904994963   -2.9927481864    0.2762356999
 C   -0.1023801258   -2.6547543693    1.5223254180
 O    0.8543226189   -3.0947948945    2.0926844515
 O   -0.9146635593   -1.6701664830    2.0433681519
 C   -1.8801338992   -1.2896736487    1.0838480406
 H    1.0501467694    1.8069039866    0.2034123236
 H   -0.6824978113    2.0619447669   -0.0455532545
 H   -0.1086559806    1.2620547044    1.4261621114
 H    0.1845419719    0.1035056747   -1.4120594686
 H    0.7392203008   -0.6665681272    0.0582757686
 H   -2.2040185466   -0.0964325195   -0.6924487915
 H   -2.4604055844   -2.5964011316   -0.7072293209
 H    0.0196128884   -3.4822085374   -0.3568661752
 H   -2.8457067463   -1.0783117140    1.5247997190