19

 C    0.0017355500    1.4826750204   -0.3716617709
 C    0.1452409370    0.0123761833   -0.0177002685
 O    1.2293155355   -0.4989404233    0.1643360210
 C   -1.1404947450   -0.7801041783    0.0716658425
 C   -1.5154536087   -1.6670421113   -1.1545952778
 C   -0.5183493289   -2.8068103034   -0.7453079990
 C   -1.6147184650   -3.8870396716   -0.8334730375
 C   -2.3381107024   -2.6537418356   -0.2601301108
 C   -1.0938990968   -2.2289056050    0.5957230552
 H    0.9840370548    1.9271401489   -0.5360152884
 H   -0.6214667450    1.6067418360   -1.2646062781
 H   -0.5063404540    2.0128876068    0.4427226354
 H   -1.9679843587   -0.1596645449    0.4376311873
 H   -1.7632973058   -1.3488059347   -2.1688371206
 H    0.5350052766   -2.8651319287   -1.0090790791
 H   -1.9115935418   -4.2112816454   -1.8363290748
 H   -1.5096684312   -4.7491075412   -0.1669221141
 H   -3.3839741783   -2.5284874502    0.0259690482
 H   -0.8487755121   -2.5747578117    1.6000950201