13

 O   -0.0330892934    0.0128657791    0.2305797311
 C   -0.0103724400    1.1826914411    0.0029321564
 O   -1.1334644470    1.9333563384   -0.1704198122
 C   -0.8392025141    3.2636338084   -0.6273297658
 C    0.6597843326    3.4183054317   -0.5058111639
 O    1.1175751539    3.1760507837    0.8157502262
 C    1.2018129185    2.0935514141   -0.1488240253
 C    2.4838779335    1.5671581493   -0.4851744552
 C    3.5516076352    1.0998936921   -0.7736998627
 H   -1.1725140394    3.3653120326   -1.6655637757
 H   -1.3848438372    3.9714427712    0.0027373568
 H    1.2112702777    4.1434633551   -1.0957020264
 H    4.4970799798    0.6835601133   -1.0220326133