14

 N    0.0441932414    1.2261918758   -0.2683228707
 C    0.0305380235    0.0034987055   -0.0166910934
 O    1.0381860605   -0.8736974329    0.3180815829
 C    0.1060704775   -1.9838906525    0.4701259831
 C   -1.0695194255   -1.0659886983    0.0257449766
 C   -2.1736799320   -0.8745192158    0.9342420073
 C   -3.0981177068   -0.7273505380    1.7007203357
 C   -4.1343331633   -0.5601043020    2.5655979242
 C   -5.0547091062   -0.4142424500    3.3332912792
 H    0.9847412747    1.6179821521   -0.2015190891
 H    0.3542763760   -2.8058966044   -0.2039235286
 H    0.0608794004   -2.3232819439    1.5061659994
 H   -1.4281574554   -1.3012093044   -0.9816587275
 H   -5.8637791648   -0.2816038913    4.0080797708