23

 C    0.1915986021    1.3828246579    0.0023773572
 C    0.1659877826   -0.1385696523    0.1434753555
 N   -1.1994663169   -0.6214251567    0.3226528669
 C   -1.9421627267   -0.9208916308   -0.8973287028
 C   -1.4423874641   -2.0168041478   -0.0217685856
 C    1.6089263004    1.9394317429   -0.1263705008
 N    1.5842762405    3.3859564452   -0.3178843153
 C    1.5895673894    4.1966193372    0.8955532707
 C    2.8015625719    4.1058711363    0.0351825819
 H   -0.3879350708    1.6844389367   -0.8775641124
 H   -0.3046517930    1.8269818839    0.8727722825
 H    0.6540522153   -0.6051726334   -0.7339818600
 H    0.7431892060   -0.4440800094    1.0257228497
 H   -2.9925778159   -0.6444737326   -0.8956338359
 H   -1.4351278166   -0.7792995983   -1.8511523674
 H   -0.6043243690   -2.6046077563   -0.3941977984
 H   -2.1203340456   -2.5562220108    0.6337139325
 H    2.2065219794    1.6534169867    0.7607210220
 H    2.1080347386    1.4988060080   -0.9990665679
 H    0.9623150354    5.0832202113    0.8789708339
 H    1.6233939143    3.6800833718    1.8541765698
 H    3.6414668595    3.5304484474    0.4225014478
 H    3.0767323434    4.9245075330   -0.6238747541