19

 C   -0.1651633069    1.5246092412    0.0768504007
 C    0.0295363285    0.0080176649    0.0394488003
 C    0.7683750990   -0.4520023888   -1.2231703959
 O    2.0709508273    0.1224267656   -1.1998939632
 C    2.7658153001    0.1071930409   -2.3699710952
 N    3.9164524078    0.6005417756   -2.4190475456
 C    4.6100391652    0.5668287937   -3.6902201368
 C    0.8462381837   -1.9255010037   -1.2924619031
 N    0.8979667377   -3.0780194969   -1.3525797321
 H    0.7964075555    2.0418321728    0.0464250655
 H   -0.7659760440    1.8691146289   -0.7720467026
 H   -0.6840420074    1.8177197265    0.9933002496
 H    0.6039534415   -0.3308917623    0.9074384754
 H   -0.9346895018   -0.5100653917    0.0695382998
 H    0.2229340679   -0.1061169618   -2.1134197798
 H    2.2306832919   -0.3563194658   -3.2121880050
 H    4.8682941488    1.5880053376   -3.9913302945
 H    5.5522769177    0.0201997819   -3.5752590785
 H    4.0334944975    0.0982994114   -4.5037430888