23

 C    0.5754087930    0.7114526144    0.9911143902
 C    0.2240475248   -0.7812339860    0.9930641171
 C   -1.2191552701   -1.0413964590    0.5857270945
 C   -1.7305536962   -0.8215851652   -0.8903808325
 C   -0.8461367124   -1.8104280533   -1.6576305765
 C   -0.8620450107   -2.9021795183   -0.8852092140
 C   -1.7553969756   -2.4909732780    0.2911986439
 C   -2.9237044061   -1.7896864691   -0.5130334640
 C   -4.1318379795   -1.2404035120    0.2359086026
 H    1.6065359741    0.8775283398    1.3184130284
 H    0.4722451206    1.1402177079   -0.0116683471
 H   -0.0812161240    1.2788089955    1.6606741190
 H    0.9057789573   -1.3223110660    0.3296743802
 H    0.3797166181   -1.1899537029    2.0007630499
 H   -1.8745456401   -0.5259276509    1.2947285995
 H   -1.8999133904    0.1703699453   -1.3114028627
 H   -0.3515873494   -1.6336648733   -2.6023158546
 H   -0.3853296124   -3.8619035297   -1.0263484002
 H   -1.9460460067   -3.2144049905    1.0855562474
 H   -3.2694780042   -2.3855295220   -1.3627828581
 H   -3.8761849773   -0.6283240518    1.1042853549
 H   -4.7427386573   -0.6242829181   -0.4338178828
 H   -4.7649101556   -2.0634575967    0.5866943848