19

 C    0.0373449428    1.4936737725   -0.0926110853
 C   -0.0457212087   -0.0024823927   -0.0083365459
 O    0.3269043882   -0.7171910924   -1.2143362048
 C   -0.3298687069   -1.8611908460   -0.5962340258
 C    0.6489655305   -2.1867387416    0.5464790264
 C    0.6207969849   -0.7729954007    1.1982291377
 C   -0.5187081744   -0.7667372779    2.2188461331
 O   -1.6871104319   -1.0821526674    1.4297461616
 C   -1.3245842239   -0.8601323357    0.0898133020
 H    1.0721324664    1.8096990389   -0.2628703912
 H   -0.5757674025    1.8728464928   -0.9148462439
 H   -0.3097519518    1.9535467790    0.8377869330
 H   -0.6227769259   -2.6387537734   -1.3010370185
 H    0.3032315937   -2.9739040174    1.2215057812
 H    1.6254251949   -2.4573362413    0.1402846915
 H    1.5711657534   -0.3844116667    1.5635400208
 H   -0.4052685060   -1.5261907297    2.9988101656
 H   -0.6523425778    0.2108047102    2.7056242210
 H   -2.1835662252   -0.5665864205   -0.5122846885