19

 C    0.0375310121    1.4386891167   -0.1022185952
 N   -0.0031295091   -0.0139748163   -0.0704216676
 C    0.4922169541   -0.6280278655    0.9271682431
 C    0.4945571944   -2.1375030011    0.9742380909
 C    0.3283563991   -2.6635449383    2.4034187278
 C    1.4319488733   -2.0906154322    3.2980504201
 C    1.5456616731   -0.5786543852    3.2095744619
 O    2.0147122508    0.1141534602    4.0857990907
 N    1.0793635460   -0.0020667740    2.0335158084
 H    1.0657607932    1.8331509060   -0.0965415682
 H   -0.4400833394    1.7900965618   -1.0196601486
 H   -0.4994579443    1.8957858777    0.7435346917
 H   -0.2900999527   -2.4879895861    0.3025314304
 H    1.4514605817   -2.4940211151    0.5677775804
 H   -0.6548514102   -2.3746479642    2.7935621397
 H    0.3647423143   -3.7566692523    2.4121991690
 H    1.2960310013   -2.3392728442    4.3528304482
 H    2.4067169470   -2.5016875376    3.0020884819
 H    1.1522231351    1.0062732995    2.0301770352