21

 C    0.0224469405    1.4682729738    0.1652931310
 C   -0.0254501756   -0.0215394050   -0.0189107169
 C    0.6551713873   -0.7766667737   -1.1857041852
 C    0.7024254219   -1.8604323560   -0.0907900293
 C    1.7362277935   -2.9453717576   -0.0051345563
 O    0.8346308651   -0.7827162706    0.9102791172
 C   -0.7887767605   -2.2257106202    0.1494418900
 O   -0.9616882875   -2.8817553955    1.3867927318
 C   -1.3664045272   -0.7745950098    0.1181962466
 H    1.0453052909    1.8424459980    0.0672786263
 H   -0.6026564156    1.9635673928   -0.5849670491
 H   -0.3531595643    1.7451226255    1.1559536609
 H    0.0843575996   -0.9652665646   -2.0993667813
 H    1.6486611255   -0.3835267342   -1.4104672036
 H    2.7459868625   -2.5267252537   -0.0183349963
 H    1.6023256116   -3.5258093429    0.9119191772
 H    1.6316043765   -3.6286572785   -0.8547161690
 H   -1.2054742797   -2.8869697438   -0.6147115811
 H   -0.5060164733   -2.3245394696    2.0327646482
 H   -1.8848889949   -0.5433830775    1.0522016946
 H   -2.0469579164   -0.5863130668   -0.7169623554