16

 C   -0.1037918787    1.4279324362   -0.0443778190
 C    0.0193330621   -0.0551026527    0.0167198121
 O   -1.1267587027   -0.8664870109   -0.2885628083
 C   -0.3924282240   -1.9799151586    0.2603759725
 C    0.5933167708   -1.0135763338    1.0063986520
 C    1.2664235881   -0.8821819873   -0.3610607365
 C    0.7095214605   -2.2337288428   -0.8314730266
 C    1.5814595102   -3.3549108872   -0.5202276743
 N    2.2615484088   -4.2559497801   -0.2695488587
 H    0.8360764666    1.8982084337    0.2586421841
 H   -0.3368809780    1.7531890636   -1.0634105019
 H   -0.8980216453    1.7779609193    0.6215045123
 H   -1.0069945524   -2.7832559361    0.6572375692
 H    0.9609533512   -0.9337378248    2.0188700922
 H    2.2243611669   -0.4417347902   -0.6027929135
 H    0.3342190558   -2.3124438784   -1.8566194156