20

 C    0.3544941666    1.7686727645    0.1825412916
 C    0.1229038927    0.3019719004   -0.1144097741
 C    1.1455436036   -0.4483480784   -1.0040168468
 C    1.6600492205   -1.1687533270    0.2562542364
 N    0.5034410391   -0.5997670336    1.0890720996
 H    0.8240118791   -0.0523036195    1.8857191766
 C   -0.5285872550   -1.5817011784    1.5256519613
 C    0.4086203230   -1.4456424780   -1.9913079503
 O    0.6366098503   -1.2897101739   -3.1881825541
 O   -0.3368044363   -2.2543596803   -1.3745834774
 H    1.3881677456    1.9668444728    0.4873656964
 H    0.1675780892    2.3410610725   -0.7304142023
 H   -0.3244101652    2.1437914753    0.9572549381
 H   -0.9147135749    0.0906113746   -0.3751624496
 H    1.8649423417    0.1902960635   -1.5149565545
 H    1.5893765664   -2.2545045730    0.2182492606
 H    2.6104869638   -0.8366854795    0.6779786655
 H   -0.0900549138   -2.2355921641    2.2828132407
 H   -1.3739074361   -1.0334001607    1.9478401821
 H   -0.8050027803   -2.1337032472    0.6194385301