15

 O   -0.1206055399    1.3505914058    0.0229294578
 N    0.0285720563   -0.0580759291    0.0250519449
 C   -1.0881287853   -0.6372454910    0.0497366523
 C   -2.5994131061   -0.3345179072   -0.0145963993
 C   -2.6229289579   -1.5629154576   -0.9994221552
 C   -1.5194450251   -2.1092825672   -0.0196722392
 C   -2.3297172359   -2.1739863290    1.2869108995
 C   -3.0233802936   -1.0290982747    1.2900888361
 H    0.7965117769    1.6437965682    0.0063039916
 H   -3.0001753957    0.6429169764   -0.2662862051
 H   -3.5565670928   -2.1294311088   -1.0396190796
 H   -2.2413912124   -1.3289806176   -1.9976389917
 H   -0.8384108967   -2.9165371417   -0.2769623912
 H   -2.2797771893   -2.9597943343    2.0264123816
 H   -3.6942582025   -0.6239312922    2.0335098474