16

 O    0.0163717580    1.4727229353   -0.1303990962
 C    0.0869044042    0.0704569121   -0.0932872004
 C   -1.3211019041   -0.5499468656    0.0262498411
 C   -1.3821953062   -2.0700080216    0.0015258071
 O   -0.8303024405   -2.8071789022   -0.7691423557
 C   -2.2730257816   -2.5324118724    1.1704741095
 N   -2.5443733158   -1.2977283667    1.8794984110
 C   -1.9907980102   -0.1719253504    1.3426303346
 O   -2.0050923611    0.9371121212    1.8461030051
 H   -0.5263211659    1.7399003744    0.6274111079
 H    0.5490520529   -0.2711401253   -1.0234686065
 H    0.7119196778   -0.2920676100    0.7395778043
 H   -1.9254466276   -0.1582087827   -0.8026713776
 H   -3.1793169939   -3.0140153023    0.7812132358
 H   -1.7357648338   -3.2684691727    1.7801424632
 H   -2.9976094822   -1.2587767709    2.7794862969