19

 O   -0.0009713565   -0.1724160898    0.4175486800
 C    0.0170972888    0.9922184277    0.1195751371
 C    1.2802941719    1.8463237384   -0.0235649857
 C    2.5622324568    0.9766335065   -0.1640460115
 C    2.9882017262    1.1459757551   -1.6330718892
 C    2.5592207883    2.5806793308   -1.9788997241
 C    1.1860830159    2.7297956608   -1.3003302970
 C    1.3521867225    2.6865579272    1.2549289973
 O    1.0512195139    3.8475771650    1.3381045652
 H   -0.9221126971    1.5536178121   -0.0783022143
 H    3.3470151445    1.3508428870    0.5044731243
 H    2.3580955653   -0.0582185122    0.1183156715
 H    4.0552605854    0.9635876797   -1.7854309846
 H    2.4412288537    0.4333872764   -2.2621454657
 H    3.2677914169    3.2950700944   -1.5427077544
 H    2.5204998003    2.7746598270   -3.0540585709
 H    0.3937877187    2.3559037507   -1.9601029572
 H    0.9344903250    3.7594850300   -1.0381151214
 H    1.7163723296    2.1183253932    2.1386306205