19

 C   -0.1936493418    1.6158394793   -0.0563396168
 C   -0.0315462543    0.1076510025    0.0301430604
 C    1.1833099204   -0.5959122266   -0.7071262470
 C    2.1945494174   -0.1970630508    0.4098142973
 C    2.5626158859   -1.6117936244    0.9169842775
 C    2.2475925567   -1.5304962472    2.4444396697
 O    1.0126355999   -0.7412611402    2.4958027780
 C    0.8513235806   -0.5249643450    1.1238577593
 C    1.1641581925   -1.7933379938    0.2827812196
 H    0.7585501201    2.1346577017    0.0915688640
 H   -0.5869339870    1.9063116739   -1.0364644447
 H   -0.8946844069    1.9797088190    0.7020780528
 H   -0.9893453055   -0.4049474106   -0.1214837030
 H    1.3608236495   -0.6274690142   -1.7802309861
 H    2.7557119347    0.7312945654    0.5083176967
 H    3.4575059132   -2.1664937204    0.6294961959
 H    2.0602237217   -2.5107107653    2.8964025520
 H    3.0245193873   -1.0110539824    3.0161890167
 H    0.5286334055   -2.6781589408    0.2394330677