8

 O    0.0332145212   -0.0749930449    0.0030476240
 C   -0.0165602238    1.1306939229    0.0067504085
 C    1.1951339450    1.9608949744    0.0007957026
 N    2.1500489549    2.6126380867   -0.0039033595
 C   -1.2491797139    1.8812778338    0.0172096622
 C   -2.2950414964    2.4882258044    0.0260025290
 C   -3.4735879631    3.1758113645    0.0359168488
 N   -4.4759476039    3.7619613683    0.0443295145