23

 C   -0.0806099745    1.6310464790    0.0773211517
 C    0.0050954273    0.1079091444    0.0486020925
 O    0.7025923996   -0.2932892180    1.2112589987
 C   -1.3961527814   -0.5374657220   -0.0542017060
 O   -2.0830805285   -0.0628748362   -1.2090325774
 C   -1.4243858746   -2.0982893927   -0.0181121847
 C   -2.8748600973   -2.5870966608   -0.0665056569
 C   -0.5982209365   -2.7268281759   -1.1414783374
 O   -0.8066719649   -2.5655938317    1.2034474435
 H    0.9264516812    2.0525834438    0.1350824919
 H   -0.5813337829    2.0184528965   -0.8123416791
 H   -0.6370313708    1.9574281285    0.9619453213
 H    0.5685870321   -0.1883294211   -0.8588203970
 H    0.5105242211   -1.2328249232    1.3502095983
 H   -1.9893929574   -0.1828914436    0.8008331460
 H   -1.4788108775   -0.1262128314   -1.9570590686
 H   -3.3655208400   -2.2527155044   -0.9822339403
 H   -2.9072880469   -3.6789366755   -0.0135170090
 H   -3.4465268773   -2.1832026688    0.7782591265
 H    0.4597735068   -2.4685866155   -1.0492454806
 H   -0.6832159024   -3.8157239432   -1.0989445192
 H   -0.9576237499   -2.3980858616   -2.1208285834
 H   -1.3814803252   -2.3203453265    1.9380993892