14

 O    0.1263644327    1.3440425226    0.1998766506
 C    0.0815222768    0.0140343701   -0.0193825419
 C    0.0834002857   -0.7811003666   -1.1450700888
 C    0.0146017103   -2.0945808030   -0.6238916676
 N   -0.0273265212   -2.1207228370    0.6995294942
 N    0.0061752215   -0.8050643578    1.0594783407
 C    0.0363845370   -0.4298699081    2.4525351590
 C    1.3967323706   -0.1926636268    2.9629021480
 N    2.4582790234    0.0050114074    3.3714773269
 H    0.2069175172    1.8017499513   -0.6427256653
 H    0.1217430302   -0.4637922082   -2.1740873528
 H   -0.0124052620   -3.0236800537   -1.1745697637
 H   -0.5569864155    0.4770183579    2.6011731041
 H   -0.4241942865   -1.2448986782    3.0153397766