18

 C   -0.3633343552    1.4643382309    0.0621857811
 C    0.1894583977    0.0621312045    0.2870731094
 C    0.8867915040   -0.5121698563   -1.0212028097
 C    2.2702202342    0.0272508425   -0.5993123801
 C    2.8481670322   -1.3368192746   -0.9448759106
 C    2.3674459126   -2.1876085731    0.1626267970
 C    1.8523408494   -1.3873442218    1.2665559152
 C    1.6352301297   -0.1252280256    0.8007890272
 N    1.4762034922   -1.9252763694   -1.1245942531
 H    0.3554969032    2.1046699601   -0.4590894337
 H   -1.2835094098    1.4316133921   -0.5314614874
 H   -0.5971280519    1.9391499849    1.0199140378
 H   -0.5491560666   -0.5773304537    0.7765282868
 H    0.4327346948   -0.2637212067   -1.9831671786
 H    2.6864901728    0.9757471846   -0.9253550468
 H    3.6755799073   -1.5776910246   -1.6012453050
 H    2.6391268077   -3.2342413184    0.2241519118
 H    1.2256262759   -1.8408581452    2.0287018387