15

 O    0.0647216767    1.4233248598    0.0063127057
 C    0.0158034100    0.0173516399    0.0021342702
 C   -1.4228546895   -0.4265653462    0.0130511981
 C   -2.4996208999    0.4093742544    0.0234046479
 C   -3.7786986685   -0.2089940860    0.0324747816
 N   -4.0129807194   -1.4937945695    0.0317177811
 C   -2.9386529902   -2.3688150524    0.0212375596
 O   -3.0147473898   -3.5772353865    0.0193377376
 N   -1.6516357050   -1.7622437748    0.0121983863
 H    0.9861602664    1.6969057650   -0.0015288558
 H    0.5048179342   -0.4108012781   -0.8895799601
 H    0.5201688641   -0.4166283094    0.8824054509
 H   -2.3714430030    1.4802646742    0.0245697377
 H   -4.6609457741    0.4328047994    0.0409302678
 H   -0.8862666420   -2.4236748398    0.0047815217