14

 N   -0.5918153231    1.1900417576    0.4701541320
 C   -0.2548708457   -0.1269825510    0.1362365112
 C   -1.0697349525   -1.1461072741   -0.3097990341
 N   -0.2431667954   -2.2163336215   -0.4151507247
 N    1.0076214742   -1.9014334782   -0.0467972107
 N    0.9976281748   -0.6362214126    0.2880778387
 O   -2.3741052094   -1.2261486429   -0.6730139694
 C   -3.2971184020   -0.7788346918    0.2428484306
 N   -4.5059436799   -0.7563376801   -0.0928865128
 H    0.2349915456    1.6778713127    0.7962807229
 H   -0.9877806007    1.7018060357   -0.3108137869
 H   -0.4657602066   -3.1442010268   -0.7403950473
 H   -2.8411390580   -0.4846542852    1.1924425814
 H   -5.0784127813   -0.4168488719    0.6773906591