15

 O   -0.9497322110    1.2911473822   -0.2183206143
 C    0.1583910864    0.8786451900    0.0393675855
 C    1.3638284465    1.7361542372   -0.0540024283
 N    1.1743600139    3.2126994202   -0.0445323372
 C    1.6372865600    2.5835848749   -1.2655678250
 C    3.1512047222    2.6488985746   -1.4395622748
 N    3.6489781254    1.9198625756   -0.2828709249
 C    2.7056987035    1.3037488007    0.4943517028
 O    2.9029060811    0.5410077289    1.4146365641
 H    0.3399275182   -0.1627366779    0.3654415810
 H    0.1635097730    3.3541680565   -0.1164425409
 H    0.9885109871    2.5360326816   -2.1329648472
 H    3.4542394515    2.1700398896   -2.3792363029
 H    3.5000947677    3.6879333050   -1.4476180475
 H    4.6283287745    1.8274438209   -0.0666958303