17

 C    0.0356476542    1.4800879428   -0.0443855317
 C   -0.0570418073   -0.0145371107    0.0310852620
 N   -1.1816901680   -0.6089079756   -0.0372499333
 C   -1.2008428839   -2.0732768153   -0.0173935569
 C    0.1542480174   -2.6963148434   -0.4064677061
 C    1.2423440915   -1.9814898321    0.3778922106
 O    1.1753119191   -0.5641013058    0.1627907690
 C   -1.6302311004   -2.5484585020    1.3101659719
 N   -1.9394259931   -2.9384957025    2.3531639629
 H    0.6949748722    1.7745826402   -0.8667140598
 H   -0.9569047283    1.9018136893   -0.1937527753
 H    0.4717253847    1.8751923870    0.8784390737
 H   -1.9692040663   -2.3963964740   -0.7296102804
 H    0.1759196368   -3.7703230354   -0.2042236098
 H    0.3079555345   -2.5467998554   -1.4797983835
 H    1.1375282120   -2.1771589703    1.4521429915
 H    2.2444549351   -2.2820158268    0.0658609152