15

 N    0.0669371853    1.4612904174   -0.0159394983
 C    0.0236225202    0.0121396802    0.0000752269
 C    0.2428882225   -0.6418870409    1.4301310896
 C   -1.1366071783   -1.2882358349    1.3123046805
 N   -2.0925156246   -0.1689453776    1.1187308740
 C   -1.3577732563   -0.7191116364   -0.0398943338
 C    0.9378812070   -0.5336653578   -1.0020347063
 N    1.6318011161   -0.9840614042   -1.8090954868
 H   -0.0937605803    1.8122917795   -0.9560065709
 H   -0.6988742057    1.7902849355    0.5683396651
 H    1.0685017808   -1.3539281954    1.4361923669
 H    0.3649433189    0.0867908008    2.2338251864
 H   -1.4614206175   -2.2347043632    1.7231050379
 H   -3.0336798399   -0.5584161320    1.0933734778
 H   -1.8692454782   -1.1124025409   -0.9096763191