15

 O   -0.1668498978    1.4493361592    0.0114208806
 C    0.0192897234    0.0413544235    0.0019880683
 C   -1.3637009567   -0.5929505545    0.0120696326
 C   -1.3190553296   -2.1125811575    0.0034925772
 O   -0.2851478306   -2.7341763848   -0.0093384998
 C   -2.6821579120   -2.8014719842    0.0122636850
 O   -2.5107514638   -4.1934474970    0.0039592134
 H    0.7008162932    1.8635873753    0.0053957032
 H    0.5705071385   -0.2918253354   -0.8885298833
 H    0.5877548448   -0.3013956795    0.8779033802
 H   -1.9227881994   -0.2506962948    0.8929337280
 H   -1.9398911962   -0.2412704922   -0.8539337229
 H   -3.2295506639   -2.4433488179    0.9019795476
 H   -3.2451261060   -2.4347408884   -0.8641345877
 H   -3.3817659138   -4.6006139620    0.0093189877