18

 C   -0.0246663306    1.4728959337    0.0916997757
 C    1.3016769344    0.7550995739    0.0374053486
 C    2.0353978554    0.4207489752    1.3524845021
 C    1.0429514336   -0.4961458744    2.0056292597
 C   -0.0644723522   -0.7808415975    1.2451255219
 C   -0.9065072446   -1.6348877095    2.0081438833
 C   -0.2691941884   -1.8351902608    3.2162886135
 N    0.9158704709   -1.1251401592    3.2131430306
 C   -0.0069461730   -0.0370394054   -0.0413638795
 H   -0.3615663932    1.8880866071    1.0365396117
 H   -0.2958865855    2.0593332364   -0.7811398385
 H    1.9067293900    0.8966043114   -0.8504159505
 H    2.9994022863   -0.0664485165    1.1501235006
 H    2.2554740033    1.3225286627    1.9388409025
 H   -1.8590371290   -2.0572098974    1.7262318130
 H   -0.5530393572   -2.4262533121    4.0725243736
 H    1.5822695711   -1.1166387655    3.9650696599
 H   -0.3374117612   -0.4888762221   -0.9702180680