19

 O   -0.0313604693    1.4118933967   -0.1994252020
 C   -0.0213965244    0.0119779278    0.0622510618
 C   -1.4628264312   -0.4671968574    0.0350201071
 N   -2.0382002138   -0.2309158289   -1.2747279018
 C   -3.3919789942   -0.5424370539   -1.4516123915
 C   -4.1910631419   -1.3222568036   -0.6374405505
 N   -5.4338077585   -1.4094808514   -1.2372864952
 C   -5.4392959122   -0.6933427064   -2.3995236724
 C   -4.1893166170   -0.1440543036   -2.5675653964
 H    0.8723507144    1.6978044183   -0.3581589956
 H    0.5540176002   -0.5274540678   -0.7039633480
 H    0.4205929748   -0.2068765683    1.0460719845
 H   -1.4784560865   -1.5438278487    0.2483695049
 H   -2.0270445929    0.0318854520    0.8434970045
 H   -1.8095602037    0.7027523194   -1.5914316185
 H   -3.9878695287   -1.8176986800    0.2963292872
 H   -6.2163907169   -1.9136600261   -0.8629769126
 H   -6.3228455884   -0.6324422059   -3.0144474314
 H   -3.8672156698    0.4696025481   -3.3951754140