19

 C    0.0772922661    1.4470512595   -0.0811669532
 N   -0.0729502315    0.0099832501    0.0757598041
 C    1.1188768562   -0.7363226640    0.4302968918
 C   -1.3275211118   -0.5363881645   -0.0972015623
 O   -2.3342402545    0.1216914823   -0.2249013521
 N   -1.3215664902   -1.9515304412   -0.1469069475
 C   -2.4308788852   -2.7846145086    0.0312437766
 C   -2.1463484278   -4.2270053712   -0.3683781604
 O   -3.4903622868   -2.4148707301    0.4665911587
 H    0.8209910099    1.6774757432   -0.8544935588
 H   -0.8876212399    1.8621250817   -0.3664635326
 H    0.4028796666    1.9107123594    0.8585278797
 H    1.7526304578   -0.1144547726    1.0705397222
 H    0.8644735164   -1.6324680669    0.9997229983
 H    1.7198482533   -1.0262216840   -0.4453924032
 H   -0.4762453410   -2.4004359898   -0.4597045288
 H   -1.2528476559   -4.6140104543    0.1334543934
 H   -3.0059608515   -4.8381693929   -0.0965598881
 H   -1.9806304502   -4.2992833559   -1.4488151778