20

 C    0.1335251232    1.5009893354    0.0290956639
 C    0.0693908096   -0.0028737770    0.0484648790
 N    0.0325267417   -0.6942684395    1.1204610185
 O    0.0438753362    0.1190035511    2.2650621564
 C    0.0143754498   -0.7792874354   -1.2730183573
 C    0.0793114085   -2.3060688093   -1.0544743075
 C   -1.3089241718   -0.4210713977   -2.0026779846
 C    1.1519434595   -0.3642312717   -2.1066148227
 C    2.0788377001   -0.0367721044   -2.7991097152
 H    0.9153687167    1.8472415960    0.7103564454
 H    0.3385526343    1.8800166792   -0.9723740778
 H   -0.8078157118    1.9289432819    0.3909803746
 H    0.0451515754   -0.5328136814    2.9739196433
 H   -0.7645195986   -2.6377005662   -0.4460629355
 H    0.0452652811   -2.8131458585   -2.0224566395
 H    0.9994171795   -2.5894789840   -0.5411589890
 H   -1.3921345939    0.6535155066   -2.1810215037
 H   -1.3509213117   -0.9290808358   -2.9697783925
 H   -2.1619988625   -0.7430298724   -1.3979949979
 H    2.9016867649    0.2498427832   -3.4062292380