17

 O    0.1578440847    1.2736947443   -0.3224719484
 C    0.0102082194   -0.0425804523    0.1256309337
 C   -1.4168171937   -0.5199983547   -0.0638646471
 O   -2.2856741275    0.1790517617   -0.5309600007
 O   -1.5945272871   -1.7840833319    0.3410263767
 C   -2.9302130192   -2.2877245777    0.2274586225
 C   -3.3963946185   -2.7174629089   -1.1735974853
 O   -3.6014099752   -4.0728054056   -0.7180130846
 C   -3.0265858467   -3.7783934911    0.5717651578
 H   -0.7183776416    1.5478887943   -0.6309058262
 H    0.6773249815   -0.7292304048   -0.4166538482
 H    0.2632047923   -0.1368402295    1.1926685789
 H   -3.6121852001   -1.6209605844    0.7554393846
 H   -4.3171445983   -2.2562314322   -1.5432294870
 H   -2.6148788372   -2.6473905061   -1.9401665467
 H   -2.0481008478   -4.2531747298    0.7151391475
 H   -3.6935018451   -4.0510936812    1.3963986625