17

 C    0.0544873371    1.5279154229   -0.0448283554
 C    0.0914151817    0.0204106767    0.0678240357
 C    1.3092339713   -0.8136297119   -0.1090740869
 O    2.4839761358   -0.0978900528    0.3746818864
 C    1.9749486909   -0.1432199001    1.6642029581
 O    2.5291498221    0.1477462511    2.6765707813
 C    0.6650737912   -0.7694847241    1.2627183656
 C   -0.0741861905   -1.7642182355    2.1130371856
 O    0.7880093403   -2.7312860984    2.6843674224
 H    1.0095077447    1.9721517635    0.2429352804
 H   -0.1560423361    1.8236329174   -1.0777234410
 H   -0.7294844689    1.9474751896    0.5925596804
 H   -0.8030012819   -0.4812638565   -0.3029955420
 H    1.4883252523   -1.6362804514   -0.7868999283
 H   -0.6476534676   -1.2297942090    2.8862309131
 H   -0.7966482061   -2.3138072681    1.5003337437
 H    1.3744525937   -2.2730713832    3.2972251908