16

 O    0.0441131265   -0.0923129725    0.0620401738
 C    0.0076488408    1.1173876579    0.0012515787
 C   -1.2839642211    1.9154154101   -0.1503908080
 C   -1.1276864265    3.2811498811   -0.8015733171
 C   -1.8364107288    3.6027484849   -2.0579382106
 O   -2.3245475398    4.0758325205   -0.8033840560
 C    0.1300718138    3.9779292617   -0.4474938871
 C    1.1808558726    3.2758646334   -0.0152228758
 N    1.1437326763    1.8886233655    0.1442647877
 H   -2.0121938452    1.2888681530   -0.6668212116
 H   -1.6617533477    2.0723773673    0.8698300818
 H   -1.4362978468    4.3659267906   -2.7244587932
 H   -2.4412580750    2.8346692847   -2.5399909203
 H    0.1850161284    5.0516226107   -0.5694209483
 H    2.1322509615    3.7331868610    0.2273057447
 H    1.9947119110    1.3772187202    0.3224273212