16

 C   -0.0101030612    1.5501571559    0.0094230393
 C   -0.0229000704    0.0185720677    0.0030609364
 N   -1.3619564697   -0.5456040765    0.0126740767
 C   -2.1091766658   -0.8069394127    1.1355678136
 C   -3.3539935335   -1.2381662383    0.7383736332
 C   -3.3658774707   -1.2342477079   -0.6834468624
 C   -2.1279575594   -0.8004775649   -1.0989940792
 H    1.0195025582    1.9218840208    0.0015792992
 H   -0.5266580561    1.9461739943   -0.8694871731
 H   -0.5104352897    1.9387496282    0.9009445425
 H    0.4963131190   -0.3614243127   -0.8826668441
 H    0.5122742530   -0.3688837890    0.8759796766
 H   -1.6854719789   -0.6668936599    2.1179085209
 H   -4.1580955852   -1.5368613101    1.3933612054
 H   -4.1808335023   -1.5293357132   -1.3265453240
 H   -1.7208067273   -0.6547013516   -2.0874827410