25

 C   -0.0206223569    1.5814064437   -0.0147537567
 C   -0.0635921494    0.0598330230   -0.1759312678
 C    0.9374927805   -0.4648734878   -1.2162078229
 C    0.9056523649   -1.9759918273   -1.3397197630
 C   -0.0397045221   -2.7790096438   -2.2100028797
 C   -0.7415554010   -2.1224610131   -3.3936796549
 C    0.3706030386   -1.4943767990   -4.2770406030
 C    1.7043629392   -2.1619340246   -3.8470824829
 C    1.4516994150   -2.7995458470   -2.4859918178
 H    0.9744165786    1.9191348796    0.2964189029
 H   -0.2587446305    2.0868879562   -0.9575849670
 H   -0.7385441964    1.9257178677    0.7364432900
 H    0.1390353019   -0.4179773700    0.7918619911
 H   -1.0757927830   -0.2544813468   -0.4606210463
 H    0.7382202773    0.0210883419   -2.1755453974
 H    1.9506351179   -0.1511156772   -0.9266557125
 H    1.0790414727   -2.4541788591   -0.3758253884
 H   -0.5334596388   -3.6318046604   -1.7551735259
 H   -1.2800980924   -2.8975734212   -3.9506357601
 H   -1.4891595954   -1.3789910520   -3.0942915783
 H    0.1705383905   -1.6465536938   -5.3416797661
 H    0.4165275271   -0.4124867166   -4.1306229572
 H    1.9821886605   -2.9523069145   -4.5536519671
 H    2.5332773496   -1.4451098590   -3.8397074693
 H    2.0527311414   -3.6659902687   -2.2285398898