19

 C   -0.2450569564    1.5239075357    0.0765206828
 C   -0.0896979080    0.0123164001   -0.0449625628
 C    0.8317297476   -0.5620147813    1.0342625676
 O   -1.4037104655   -0.5356123347    0.0353515447
 C   -1.5432012936   -1.8783673639   -0.3935880080
 C   -3.0366365239   -2.1248803015   -0.5552279901
 O   -3.6081676129   -1.2242248588   -1.4816815801
 H    0.7253108535    2.0203760313   -0.0149428607
 H   -0.9059524744    1.9060924762   -0.7062576938
 H   -0.6768095872    1.7847714010    1.0480226993
 H    0.3295649193   -0.2292178233   -1.0364094714
 H    0.4245890781   -0.3554400862    2.0293815688
 H    0.9534982358   -1.6438809080    0.9301012544
 H    1.8257522873   -0.1088546926    0.9660703406
 H   -1.0331363853   -2.0229245747   -1.3594306800
 H   -1.1156980471   -2.5870362646    0.3321835871
 H   -3.2055769433   -3.1382667186   -0.9343326063
 H   -3.5202813545   -2.0486361189    0.4321127124
 H   -3.2798598096   -0.3546108473   -1.2225350845