20

 C    0.0870193814    1.5781475430    0.1312090471
 C   -0.1089496843    0.0629078276    0.0110872417
 C    0.6320743969   -0.5332402097   -1.1808226129
 C    2.1824845796   -0.6362756286   -1.1899622940
 N    2.1603739622   -2.1071399415   -1.5184019596
 C    1.4836055785   -2.7421589335   -0.3843344919
 C    0.6212522474   -2.0584873868   -1.3823542597
 C   -0.2775204263   -2.7528369812   -2.2429336765
 C   -1.0711479060   -3.3048735084   -2.9599266851
 H    1.1451562426    1.8345426707    0.2540477249
 H   -0.2766528811    2.0966547836   -0.7627173159
 H   -0.4535827133    1.9802269106    0.9931739079
 H    0.2222646641   -0.4236784222    0.9366946967
 H   -1.1777292466   -0.1655444705   -0.0895949741
 H    0.2904413527   -0.0497693892   -2.1009143872
 H    2.6669110928   -0.0783466523   -1.9923662682
 H    2.6921987507   -0.4185402715   -0.2441243453
 H    1.5044829788   -3.8263441646   -0.4278835248
 H    1.6045434369   -2.3220776620    0.6126336872
 H   -1.7612330671   -3.8009019934   -3.5964175603