19

 C   -0.3997455912    1.3721520744    0.3588155429
 C   -0.2085771847   -0.1407406536    0.2143566310
 C    0.9414400665   -0.6509269042    1.0666335937
 O    0.6807876711   -0.5120603715    2.4977225667
 C    0.6206187434   -1.9284071538    2.6994609445
 C   -0.7344479949   -2.4169273944    2.9700259726
 N   -1.8030563602   -2.8332872428    3.1195141125
 C    1.1124061608   -2.1875189758    1.2191792250
 N    0.4220736575   -3.0426542326    0.2997466302
 H    0.4903438986    1.9175473937    0.0259786420
 H   -1.2481447905    1.7191212626   -0.2375583969
 H   -0.5862379330    1.6374008458    1.4033037112
 H   -1.1337098983   -0.6562318194    0.4989237475
 H   -0.0023968539   -0.4096620475   -0.8283127298
 H    1.8654240949   -0.1194492409    0.8068956701
 H    1.2910700935   -2.2606500833    3.5001118587
 H    2.1665424177   -2.4709738124    1.2346228327
 H    0.6776814678   -4.0145079678    0.4316265178
 H   -0.5859268052   -2.9772762865    0.3984296873