18

 C   -0.1961601807    1.5372873615    0.0574066632
 C    1.3122047785    1.5335251692   -0.3029594016
 N    1.4256394227    0.2116173237    0.3373173361
 C   -0.0330447849    0.0266619107    0.3655736251
 C    2.3015442759   -0.7679594108   -0.1067374353
 C    2.1382143691   -2.1433885497   -0.0685921597
 N    3.2847888175   -2.6705164934   -0.5855512407
 N    4.1745415192   -1.7451482046   -0.9625666970
 C    3.5881522984   -0.5838638972   -0.6750164571
 H   -0.4261463421    2.1340582245    0.9413999719
 H   -0.8867213073    1.7984137962   -0.7442550481
 H    1.4990684481    1.5052628591   -1.3869731782
 H    1.9397612642    2.3128280836    0.1422964380
 H   -0.4302272653   -0.3421542324    1.3177268988
 H   -0.3979884077   -0.6236800881   -0.4450112848
 H    1.3299675226   -2.7622478247    0.2842012160
 H    3.5089084020   -3.6424071751   -0.7086140309
 H    4.1000860299    0.3448279475   -0.8781132257