14

 O    0.0860362074    1.3812611609   -0.0926855332
 C   -0.0017162064    0.0098574823   -0.0312682070
 C   -0.4265082533   -0.7980446014   -1.2192025134
 C   -1.2943193603   -0.7879065379    0.0401569560
 C   -1.0178490961   -1.9160404610    0.9692039415
 O   -1.7331821838   -2.7522149026    1.4173516484
 O    0.3506687394   -1.8792672051    1.3158947492
 C    0.9090196930   -0.6879793142    0.9176310759
 N    1.9903355925   -0.1914440477    1.3263234572
 H    0.8859912847    1.6160660441    0.4003028422
 H   -0.8229200840   -0.2115276712   -2.0400551460
 H    0.0995131374   -1.7031722152   -1.5022474863
 H   -2.2871522601   -0.3622174053    0.0123652596
 H    2.4560156496   -0.7808212456    2.0158535559