17

 C    0.1517676487    1.5482156399   -0.2221128503
 C    0.0795545125    0.1012508582   -0.0792925245
 C    0.0219650623   -1.0964557628    0.0312752517
 C   -0.0544004417   -2.5395149883    0.1858433741
 C    0.4046766638   -3.0458011627    1.5758149860
 O   -0.2415731073   -4.3118707871    1.7555468302
 C   -1.3472924078   -4.4145429573    0.9618001618
 O   -2.0666864175   -5.3680672049    0.9888468160
 C   -1.4641930644   -3.1566064940    0.1075113570
 H    0.8516686648    1.8342730987   -1.0146792404
 H   -0.8267138125    1.9712546117   -0.4742666649
 H    0.4888979417    2.0224990914    0.7059733127
 H    0.5743929499   -3.0239251196   -0.5719771259
 H    1.4826648246   -3.1997512851    1.6445780915
 H    0.0874815935   -2.3587227614    2.3681359161
 H   -2.2093035605   -2.4948750968    0.5624257090
 H   -1.8006629101   -3.4015871301   -0.8997063199