17

 C   -0.0541867987    1.5139120795    0.0286604277
 C    0.0332093054   -0.0096450640    0.0305512079
 C    0.9825426374   -0.6063616092   -1.0661184652
 C    1.9758753075   -1.3063807979   -0.1171485705
 C    1.0648068777   -2.0513762968    0.8835573602
 C    0.7981558621   -0.5772124813    1.2527282153
 O    2.1907354710   -0.2834446491    0.9086645364
 H    0.9419239402    1.9467092056    0.1611726915
 H   -0.4654141568    1.8870899396   -0.9150901316
 H   -0.6965048204    1.8773171404    0.8387727870
 H   -0.9708286311   -0.4433467567   -0.0307805715
 H    0.4834280181   -1.2990887841   -1.7492172968
 H    1.4744256000    0.1714130192   -1.6558301008
 H    2.8953580397   -1.7270956893   -0.5243233125
 H    0.2433394933   -2.6661831184    0.5052051411
 H    1.6375604771   -2.5708090579    1.6522385818
 H    0.5076196174   -0.2463247295    2.2507139600