21

 C    0.0232365198    1.3238994564   -0.2465349385
 O    0.2640981254   -0.0601858589   -0.1508170477
 C    0.5453777018   -0.4910986548    1.1714982098
 C    0.5862581779   -1.9983155432    1.1298406051
 O   -0.6138072566   -2.5405506892    0.6482432436
 C    1.8700036407   -2.7235031392    0.7980581536
 C    1.2551918027   -2.8319322801    2.1809161315
 C    1.9403992171   -2.2617005096    3.3946777831
 O    2.8960637895   -3.2167890494    3.8381020069
 H    0.8993530536    1.9117542896    0.0684315705
 H   -0.1922213662    1.5471888649   -1.2942221279
 H   -0.8363690030    1.6321460138    0.3688486453
 H    1.4967854078   -0.0643293946    1.5222142286
 H   -0.2535920773   -0.1533174632    1.8523138492
 H   -0.7933286393   -2.0747589197   -0.1784772169
 H    1.7951644260   -3.5849878648    0.1454249889
 H    2.7806331397   -2.1419114697    0.6935907173
 H    0.7324147599   -3.7633917704    2.3779005685
 H    2.4283701656   -1.3050716507    3.1492454624
 H    1.1962503630   -2.0560264068    4.1811398429
 H    3.2780744120   -2.8960974904    4.6605866635