17

 C   -0.3389198177    1.4592686825   -0.0282474033
 C    0.0506534447   -0.0098803901   -0.0667673837
 C    1.3512066400   -0.3868095834   -0.8080679312
 O    1.9449088649   -0.9252304964    0.3958689538
 C    0.7678971487   -0.6386729334    1.1829329105
 C    1.0911502411    0.2388866464    2.3864241135
 C    0.1239306508   -1.8887552070    1.6294203780
 N   -0.4011017375   -2.8594164571    1.9732986870
 H    0.5048402683    2.1028367313    0.2369784044
 H   -0.6951595480    1.7736307531   -1.0148334449
 H   -1.1469731998    1.6416601770    0.6871317259
 H   -0.8039581488   -0.6129267305   -0.3786534949
 H    1.2536785102   -1.1482599972   -1.5893572593
 H    1.9321888983    0.4577664952   -1.1972887358
 H    1.5803731781    1.1589192001    2.0612479585
 H    0.1837434265    0.4895430327    2.9435596673
 H    1.7704502602   -0.2962796233    3.0551912242