14

 N    0.0221086101    1.3357616360    0.0093721459
 N    1.3077412762    1.7836451723   -0.0006673417
 N    2.1008913723    0.7682357407   -0.0139354576
 C    1.3421512204   -0.3841466652   -0.0128213280
 C   -0.0199081798   -0.0251229653    0.0023745964
 C   -1.0433686431   -0.9789646612    0.0071328701
 C   -0.6451131356   -2.3050073286   -0.0039555948
 C    0.7176925256   -2.6783880129   -0.0192374889
 C    1.7252899051   -1.7309875843   -0.0238769000
 H   -0.7260888769    2.0086299773    0.0203100329
 H   -2.0910225118   -0.7019818105    0.0188238326
 H   -1.4018219797   -3.0824792518   -0.0008315665
 H    0.9715758235   -3.7326187563   -0.0274457146
 H    2.7732340839   -2.0059939401   -0.0355656958