17

 N   -0.9034809416    1.1757630805    0.4880317929
 C   -0.4024022152    0.0220184409    0.0140161057
 O    0.6648615610   -0.0884493776   -0.5756200243
 C   -1.2680174903   -1.2424439303    0.2237726732
 O   -0.5630146584   -2.3376306588   -0.2890509876
 C   -1.6378872536   -1.4890513472    1.7184270384
 N   -3.0689752032   -1.5060934643    1.9931927664
 C   -3.8099558001   -0.3841382996    2.0836723968
 O   -3.3817038997    0.7523674693    1.9464391190
 H   -0.3646312500    2.0169396732    0.3611030179
 H   -1.7788208517    1.2003734893    1.0068728406
 H   -2.2081938026   -1.0934904807   -0.3312151777
 H    0.2425856425   -1.9378884613   -0.6697854202
 H   -1.2295945674   -2.4651833954    1.9823957146
 H   -1.1806831123   -0.7366843047    2.3664034031
 H   -3.5403908373   -2.3933523304    2.0665643911
 H   -4.8721983100   -0.5866726729    2.3091492401