17

 O   -0.0771016557   -0.1128250739    0.0022039343
 C   -0.0149295955    1.0955124823    0.0072867833
 C    1.2103117967    1.8512844214    0.0000148500
 C    2.2236496994    2.5092198263   -0.0058913328
 C    3.4406854776    3.3053742609   -0.0129035105
 C    3.1805663798    4.8241660903   -0.0025518723
 C    4.4961718676    5.6266395333   -0.0103562767
 C    4.2743953185    7.0667894189   -0.0008225677
 C    4.0630040360    8.2497231528    0.0072841703
 H   -0.9317796926    1.7198089491    0.0183244504
 H    4.0518441513    3.0241263448    0.8557607087
 H    4.0356962753    3.0333291552   -0.8955974281
 H    2.5787878845    5.0993114008   -0.8738520312
 H    2.5948290978    5.0900926161    0.8824340311
 H    5.1035331777    5.3435537070    0.8598300891
 H    5.0875413597    5.3527065454   -0.8943780871
 H    3.8883976120    9.2970717491    0.0143876892