16

 C   -0.0188942917    1.5161093865    0.0657850770
 C   -0.0073760700    0.0229647930    0.0078172975
 C   -0.0283872793   -0.7898349868   -1.0745547417
 C   -0.0059300871   -2.2663849983   -0.6997229414
 C    0.0323520866   -2.1909032920    0.7974840725
 C    0.0302806492   -0.8753268729    1.1555950014
 O    0.0630847374   -0.7150651696    2.4761373661
 N    0.0898022186   -2.0077546150    3.0524417480
 C    0.0703592963   -2.8562912683    2.0404931708
 H    0.8707735044    1.8975920961    0.5795723340
 H   -0.0489090283    1.9489134050   -0.9368879711
 H   -0.8869816357    1.8822583319    0.6255817618
 H   -0.0580813271   -0.4519135382   -2.1032907152
 H   -0.8902126921   -2.7883741429   -1.0875978459
 H    0.8658671873   -2.7732300231   -1.1332533115
 H    0.0855207221   -3.9126054454    2.2713842576