15

 C    0.0081544489    1.5541076246    0.0303533135
 C   -0.0346929547    0.0594138292    0.0236585960
 C   -1.0912157428   -0.7785275746    0.0306753890
 N   -2.4285589760   -0.5035246761    0.1028078449
 C   -0.5904138412   -2.2001386710    0.0257997476
 O    0.8223003641   -2.0980337432    0.0007026360
 C    1.1828921699   -0.7572332265    0.0018229693
 O    2.3350949581   -0.4196997847   -0.0225380668
 H    1.0191511919    1.8852384826   -0.2197806286
 H   -0.6848045918    1.9905622412   -0.6998703438
 H   -0.2442298969    1.9724010609    1.0124803447
 H   -2.7140545965    0.4419045382   -0.1019168826
 H   -3.0700919155   -1.2037969338   -0.2357447240
 H   -0.9082101820   -2.7491773147    0.9217413570
 H   -0.9345414156   -2.7588406023   -0.8556741020