27

 C   -0.0564211844    1.4883419288   -0.5030434150
 C   -0.0558419187   -0.0439116613   -0.4722019258
 C   -1.3296679330   -0.6197903643    0.1512453201
 C   -2.6052764173   -0.5412674475   -0.7413430729
 C   -2.5472490824   -2.0798685960   -0.9789935337
 C   -2.1049449923   -2.4811593696   -2.3850429635
 C   -1.4866726843   -2.1787065100    0.1747341295
 C   -0.2644864590   -3.0843877095    0.0449820333
 C   -0.6040362110   -4.5731306933    0.1879980615
 H    0.8590489137    1.8785556266   -0.9588915594
 H   -0.9045242932    1.8768662416   -1.0771727272
 H   -0.1279486387    1.9015110528    0.5094341819
 H    0.0747988664   -0.4263223524   -1.4920809007
 H    0.8164063251   -0.3917143061    0.0957092444
 H   -1.4551592710   -0.1648415306    1.1407378869
 H   -3.4962480636   -0.2205341526   -0.1952445624
 H   -2.5202436142    0.0759353369   -1.6419934623
 H   -3.4830845921   -2.5993847573   -0.7496366730
 H   -1.1782347858   -1.9822842049   -2.6868240515
 H   -1.9433697566   -3.5608567431   -2.4729603345
 H   -2.8743569846   -2.2025817179   -3.1141930378
 H   -2.0097306779   -2.4558123833    1.0984922921
 H    0.2415930343   -2.9141935789   -0.9124579669
 H    0.4625373029   -2.8094872055    0.8208803736
 H   -1.0528161324   -4.7816561146    1.1658365755
 H   -1.3187019212   -4.8976782061   -0.5754238377
 H    0.2901210314   -5.1973012517    0.0921217756