17

 C   -0.0053918885    1.5264673490    0.0116541414
 C   -0.0123375508    0.0212592248    0.0185258890
 C   -1.1753683767   -0.6942362878    0.0316696380
 N   -2.4538004810   -0.1386170885    0.1243416433
 N   -1.1651189341   -2.0706391606    0.0045596534
 C    0.0144532439   -2.7728630964   -0.0142620794
 C    1.2010077162   -2.1340620788   -0.0294244507
 C    1.2821148185   -0.6714706465   -0.0017216383
 O    2.3574612693   -0.0713858628   -0.0139088158
 H    1.0254338924    1.8545929591   -0.1355837587
 H   -0.6216527510    1.9452562041   -0.7951310976
 H   -0.3613963671    1.9547743058    0.9575713272
 H   -2.4441433429    0.8680078973    0.0421052497
 H   -3.1243504612   -0.5352095116   -0.5234597049
 H   -2.0291005996   -2.5558853461    0.1824484455
 H   -0.0906040157   -3.8511628491   -0.0221744970
 H    2.1286312583   -2.6911689419   -0.0600574553