19

 O    0.0121043427    1.4362795716   -0.0335742899
 C    0.0507259134    0.0251129229    0.0124115628
 C   -1.3534749828   -0.5698103991    0.0332993455
 O   -2.0004988357   -0.0905574382   -1.1521064385
 C   -3.2670050890   -0.6726151066   -1.3144461800
 O   -3.1822718497   -2.0290539242   -1.6664660623
 C   -2.4186998686   -2.7894535445   -0.7655290768
 C   -0.9533787373   -2.9443706482   -1.0667769453
 C   -1.3991561192   -2.0838029014    0.0980679393
 H   -0.5783939232    1.6612119636   -0.7621302237
 H    0.6051219413   -0.3968310982   -0.8397045223
 H    0.5794266059   -0.2549479688    0.9294813210
 H   -1.8906653684   -0.1612060156    0.9054486365
 H   -3.8532657491   -0.5471744377   -0.3866926758
 H   -3.7586224800   -0.1661038610   -2.1470833064
 H   -2.9723587826   -3.6305851737   -0.3577148490
 H   -0.4670659107   -3.8887399661   -0.8498708178
 H   -0.6093221757   -2.4410814296   -1.9632542077
 H   -1.2444939914   -2.4890260252    1.0933637405