17

 C   -0.0021363498    1.5156889349   -0.0454543094
 C   -0.0702639321    0.0205491560    0.1198545437
 C   -1.3393039895   -0.7347955086   -0.2942186668
 C   -1.3383974051   -1.9665469770    0.5831107682
 C   -0.3149479017   -1.9786107602    1.4384330464
 C    0.5560758577   -0.7891318436    1.2175271047
 O    1.1207080894   -0.7128395210   -0.1239030365
 C    1.4100487239   -0.2166963068    2.2872098298
 O    1.3362284146   -0.5489431935    3.4448106313
 H    0.9607616604    1.9085968195    0.2864063616
 H   -0.1286490739    1.7803739641   -1.1011664323
 H   -0.7994504343    2.0067033754    0.5208468382
 H   -2.2344042490   -0.1200122557   -0.1353702062
 H   -1.3081552527   -0.9816314850   -1.3626073138
 H   -2.0865198351   -2.7449935157    0.4879254758
 H   -0.0944340302   -2.7290646128    2.1850033021
 H    2.1402992674    0.5415839202    1.9332748335