18

 C    0.0193548509    1.5151489660   -0.0120522134
 C   -0.0382895958    0.0121200191    0.0837042194
 C   -1.3658876150   -0.7016523977   -0.2128918499
 C   -1.3123009848   -1.9478062524    0.6339570640
 C   -0.2089816605   -1.9805553612    1.4035311314
 C    0.0900886130   -3.0251513126    2.3877814002
 O    1.0648769987   -3.0285188052    3.1057746673
 C    0.6731621978   -0.8076334990    1.1211138876
 N    1.1918406129   -0.7089623759   -0.2629102683
 H    1.0141837138    1.8745941209    0.2602750878
 H   -0.1890530934    1.8496915256   -1.0350016875
 H   -0.7172034583    1.9811238104    0.6514994424
 H   -2.2253945463   -0.0787286536    0.0712370976
 H   -1.4948507185   -0.9232802245   -1.2809641763
 H   -2.0740540821   -2.7204926323    0.6070764718
 H   -0.6704953364   -3.8362710844    2.4423409853
 H    1.3170051384   -0.4076996299    1.8956975831
 H    0.9928654556   -1.5696510433   -0.7701207227