17

 C   -0.0209925061    1.4176341794   -0.0269074363
 N    0.0019519284   -0.0230841935   -0.0928043248
 C   -1.2035128387   -0.8279926638   -0.0870367602
 C   -0.7128408709   -2.2353567569   -0.4769542703
 O   -0.8750148986   -2.3397343525   -1.8848588042
 C    0.7653219698   -2.2251335409   -0.0618592387
 C    1.1639693535   -0.7476053181   -0.0811955276
 O    2.2882691458   -0.2910233850   -0.0615898248
 H    1.0142312358    1.7632772032   -0.0369321143
 H   -0.5552370512    1.8432286121   -0.8850396041
 H   -0.5095609680    1.7692369121    0.8913118506
 H   -1.6865283086   -0.8255208587    0.9013229882
 H   -1.9299196607   -0.4696931047   -0.8241728482
 H   -1.2913149738   -3.0129855066    0.0384253502
 H   -0.4452226418   -3.1501730422   -2.1764191686
 H    0.9039000392   -2.6077088877    0.9560047894
 H    1.4064745457   -2.8108604565   -0.7248232263