22

 C   -0.1357994939    1.4727515683    0.3071221323
 C    0.0571230436    0.0023151413    0.0703700139
 C   -0.7860278682   -1.0578130415    0.7576221568
 C    0.7180355535   -1.0833953315    0.9212831579
 C    1.3480484620   -1.7102929117   -0.3264637965
 C    0.6632294368   -0.6095486831   -1.2005354461
 N    1.4740840407   -0.9959173749    2.1315830347
 C    0.8109205044   -0.7081357939    3.3982162145
 C    1.3085540315   -2.0786074198    3.1071516513
 H    0.7773387235    2.0344597150    0.0793338267
 H   -0.9378333319    1.8733157627   -0.3254885193
 H   -0.4030286660    1.6809028125    1.3481787959
 H   -1.3552474486   -0.6898072337    1.6051684743
 H   -1.3024449271   -1.8248172506    0.1814391777
 H    2.4357871531   -1.6165734826   -0.3190714859
 H    1.0812603115   -2.7521251079   -0.5331486067
 H   -0.0541460502   -0.9525658471   -1.9542114517
 H    1.3911753937    0.0461671454   -1.6855788674
 H    1.3614652008   -0.0512566563    4.0656537362
 H   -0.2668014932   -0.5675899673    3.4125184273
 H    0.5586174755   -2.8378222984    2.8947152054
 H    2.2238861887   -2.4459644748    3.5616997388