17

 C    0.0330717655    1.5142430310    0.0141954579
 C    0.0242906332    0.0097836181    0.0332323182
 N    0.0318406910   -0.6223678220   -1.1433789823
 C    0.0226755349   -1.9578442797   -1.1224253777
 C    0.0107858956   -2.6730787689    0.0665240612
 N    0.0039057679   -2.0552460458    1.2508391033
 C    0.0058878458   -0.7209979658    1.2423486673
 C    0.0250940456   -0.0362886443    2.5921562001
 O    1.2487133521    0.6531791992    2.8378244969
 H    0.7884202532    1.9062099841    0.6993985303
 H    0.2255272223    1.8640778835   -1.0007980898
 H   -0.9360873780    1.9148597312    0.3374461500
 H    0.0267631765   -2.4657582280   -2.0835876203
 H    0.0083201554   -3.7597618331    0.0729778357
 H   -0.7549404223    0.7297160364    2.6511010748
 H   -0.1766373804   -0.7940849813    3.3589884616
 H    1.9535521120   -0.0033314247    2.8316592630