15

 O   -0.5438405822    0.7362938156   -0.6781155059
 C    0.1996721290    0.9550635453    0.2430391100
 C    1.3899311472    1.8944398652    0.1734789532
 C    1.5324572251    2.6803517184   -1.1346196222
 C    1.9547924428    4.1046860710   -0.6995491792
 N    1.5260911193    4.1665275271    0.6879908294
 C    1.2807400279    2.9650634285    1.2831884787
 O    1.0198817262    2.7668881139    2.4491857117
 H    0.0577408566    0.4852374640    1.2371478081
 H    2.2776589650    1.2957353705    0.4209853287
 H    2.2526798984    2.2379798536   -1.8242354131
 H    0.5631260285    2.6979647549   -1.6385471728
 H    3.0402779196    4.2493071111   -0.7872353187
 H    1.4670905928    4.8800274411   -1.2981912280
 H    1.5957270439    4.9985317599    1.2528417802