19

 C   -0.0461579082    1.3256618758   -0.6341596730
 O    0.0853174584   -0.0231311255   -0.2530431071
 C    0.3934445262   -0.8683125566   -1.3358266580
 C    0.4762251175   -2.3043974422   -0.7962875083
 C   -0.8357413572   -2.8335795546   -0.4296375682
 C   -1.9108777526   -3.2980733965   -0.1608334814
 C    1.1696536978   -3.2774186496   -1.7502674481
 C    1.2153634313   -3.1127188298   -3.2068563430
 O    2.3607060407   -2.8311022313   -2.3917028905
 H    0.8826942690    1.7178332010   -1.0778476007
 H   -0.8604040913    1.4667037495   -1.3624244403
 H   -0.2762629977    1.8976422542    0.2677115993
 H   -0.3809953560   -0.7959635724   -2.1158989467
 H    1.3626805283   -0.6000912849   -1.7830594499
 H    1.0952818492   -2.2489068168    0.1102047629
 H   -2.8621820468   -3.6956196319    0.0932088435
 H    1.2276750493   -4.2920744777   -1.3558984525
 H    1.3019525959   -3.9912497658   -3.8437287657
 H    0.7545620061   -2.2459501050   -3.6755461221