20

 C   -0.0446465185    1.5456932611   -0.0221357091
 N    0.0298591396    0.0980177209    0.1159217441
 C   -0.9486518814   -0.5811627194    0.9152285548
 C    0.0408802708   -1.5597936680    1.4504855995
 C    1.1416658934   -0.5901228537    0.9148377166
 C    1.5030807969    0.2670532615    2.1001794390
 C    0.4524145653    0.2900621789    2.9363822574
 C   -0.5956365743   -0.6516915938    2.4758776189
 C   -1.6781587815   -1.1609282189    3.3938213722
 H    0.8299664384    1.9062854774   -0.5737542382
 H   -0.9356375986    1.7824340291   -0.6145907767
 H   -0.1105079206    2.0926320472    0.9299072475
 H   -1.9810385238   -0.6864325716    0.5965316944
 H    0.0456610771   -2.6428461752    1.4619909390
 H    1.9471201174   -0.9574601327    0.2786796644
 H    2.3697085842    0.9154520330    2.1387821160
 H    0.3304133538    0.9377949642    3.7975295486
 H   -2.2771351987   -0.3386601118    3.8009137796
 H   -2.3611041245   -1.8336381963    2.8636577431
 H   -1.2585684550   -1.7185105819    4.2395354288