18

 C   -0.2955504891    1.3390598329    0.0603841736
 N    0.0293782177   -0.0808135497   -0.0014414807
 C    0.8089030576   -0.5400853155   -1.2168645767
 C    2.1350130833   -0.1293844727   -0.5316977626
 C    1.2999572121   -0.4914586693    0.7321848249
 C    1.1578776254   -2.0032759966    0.5390688232
 O    1.3044349779   -2.8989315041    1.3201433711
 C    0.7166501718   -2.0594517803   -0.9645000385
 O   -0.5739039085   -2.5838145000   -1.1375212067
 H    0.5451323040    2.0244510947   -0.1312061885
 H   -1.0781378907    1.5500640759   -0.6752435605
 H   -0.6980227632    1.5675544579    1.0520526255
 H    0.4912825785   -0.1742085799   -2.1933192145
 H    3.0380544655   -0.7106941678   -0.7440264542
 H    2.3559982787    0.9350211546   -0.6068348592
 H    1.4822905690   -0.1070296385    1.7338857639
 H    1.4026019203   -2.6535963008   -1.5739449781
 H   -1.1530801604   -1.9988364509   -0.6276697521