17

 C    0.0911339123    1.4979049725    0.0701872690
 C   -0.0059097810    0.0105616452   -0.0057643797
 C   -1.1274902225   -0.7476974984    0.0184074502
 C   -2.5606174345   -0.3351263990    0.1251542040
 C   -0.7807722504   -2.1768090910   -0.0804277627
 O   -1.5279813416   -3.1271957598   -0.0887519656
 C    0.7653276761   -2.2468549969   -0.1750348010
 O    1.4186022052   -3.2491483119   -0.2684960118
 C    1.2637026872   -0.8069388885   -0.1251181174
 H    0.7032969720    1.7963970489    0.9309373185
 H    0.6006558477    1.8924083045   -0.8183426668
 H   -0.8818391205    1.9844868931    0.1539831402
 H   -3.1243937452   -0.6998475778   -0.7404110605
 H   -3.0220828556   -0.7961781457    1.0052380038
 H   -2.6887022394    0.7466977496    0.1923519847
 H    1.8404618087   -0.5615346029   -1.0262173403
 H    1.9430120615   -0.6577542620    0.7240851255