17

 C   -0.6021626462    1.1761674064   -0.0094875218
 C    0.3057487482   -0.0340968985    0.0123744160
 O    1.1899783127   -0.0213966831   -1.1133576037
 C    2.4724495409   -0.3317274204   -0.6671130632
 C    2.4286496661   -0.3378580751    0.8160408443
 O    1.1220088151   -0.0309045477    1.1883809836
 C    2.7023849828   -1.6614022465    0.0764168580
 C    1.7818605369   -2.7531678835    0.0447093410
 C    1.0236471460   -3.6872625493    0.0185400732
 H   -0.0062652346    2.0918789110    0.0125349181
 H   -1.2122290751    1.1651978153   -0.9165588466
 H   -1.2657180538    1.1572898867    0.8590822413
 H   -0.2647854614   -0.9705871876   -0.0083301394
 H    3.2551399929    0.0914107551   -1.2844380433
 H    3.1734498640    0.0799737294    1.4819459381
 H    3.7526999492   -1.9451170859    0.1062666961
 H    0.3508022363   -4.5082047364   -0.0043163716