21

 C   -0.0753962783    1.6172139151    0.0098889279
 C   -0.0245774955    0.1065775068    0.0061825414
 C    1.0510514688   -0.7123700996   -0.8891106413
 C    0.6194374201   -1.8519978789    0.1223504503
 C    1.0507867345   -2.8634261334    1.2251566209
 C    0.2945282250   -1.8908817600    2.2358354308
 C    0.5933198035   -0.7678731703    1.1866442633
 C   -0.8726284633   -1.9623956733   -0.2534140569
 C   -1.2851577880   -0.6975664808   -0.3271392371
 H    0.8935715183    2.0463859195    0.2844023588
 H   -0.3450163277    2.0080330974   -0.9780757595
 H   -0.8195143998    1.9823609974    0.7267813520
 H    0.8025066103   -0.8354136904   -1.9473844362
 H    2.0788886955   -0.3566429900   -0.7638254495
 H    0.6900805094   -3.8937609990    1.1467666645
 H    2.1273753774   -2.8703577984    1.4145690691
 H   -0.7614568484   -2.1572551737    2.3113572768
 H    0.7174545257   -1.7679730192    3.2357951736
 H    1.6083383864   -0.4021376808    1.3859678606
 H   -1.4066911359   -2.8870580933   -0.4285342018
 H   -2.2507889782   -0.2839643551   -0.5848880676