21

 C    0.0964310890    1.0652205410   -1.6461614788
 C    0.0771491468   -0.3617183086   -1.0940735355
 C    1.4526310357   -1.0296890476   -1.1133660133
 O    2.4111123897   -0.3331937599   -0.3187111879
 C    1.4027826890   -2.4921302218   -0.6385972895
 O    0.4984270340   -3.3222461123   -1.3524393140
 C    1.0155690684   -3.9455364730   -2.5122913824
 C    1.0516530033   -3.0971645178   -3.7082573163
 C    1.0704773565   -2.4216983963   -4.7026400869
 H    0.8213694544    1.6805054354   -1.1058605676
 H    0.3809349690    1.0705393659   -2.7040356989
 H   -0.8869713524    1.5374308784   -1.5622491068
 H   -0.2941111025   -0.3603238753   -0.0571922838
 H   -0.6157246089   -0.9896163907   -1.6636197868
 H    1.8555754183   -0.9961721521   -2.1308576814
 H    2.0444251199   -0.2442751898    0.5687326531
 H    2.4195446732   -2.9100324241   -0.6607730551
 H    1.0585129156   -2.5110455098    0.4046766023
 H    2.0242472426   -4.3433043416   -2.3178180294
 H    0.3619626591   -4.8038391591   -2.7057917146
 H    1.0911043593   -1.8214413609   -5.5787429065