23

 C    0.2458874290    1.3369646136   -0.3015391181
 O    0.3585235491   -0.0596760908   -0.1865928535
 C    0.4321581149   -0.4941962253    1.1569216421
 C    0.4985409389   -1.9991047064    1.1613501531
 C    1.8151465396   -2.7190068759    1.0169528753
 C    1.0572683836   -2.8005170043    2.3175755186
 C    1.5999225290   -2.1687416412    3.5727685573
 O    2.4759589033   -3.0921476305    4.1885330976
 C    3.0045851443   -2.6155770695    5.4009448068
 H    1.1158162833    1.8568386097    0.1321424160
 H    0.1894328827    1.5753497240   -1.3665559922
 H   -0.6603086855    1.7192352262    0.1962605370
 H    1.3155608359   -0.0543520888    1.6486147320
 H   -0.4541359884   -0.1419451845    1.7143879840
 H   -0.3509886443   -2.4505475625    0.6565025639
 H    1.8663721729   -3.5971322310    0.3835792917
 H    2.7134497354   -2.1091064200    1.0056439998
 H    0.5474926031   -3.7392581321    2.5157207610
 H    2.1354305438   -1.2314532374    3.3483877334
 H    0.7787263970   -1.9113112920    4.2653881974
 H    3.6591115070   -3.3933499075    5.8021192762
 H    3.5941324304   -1.6950277024    5.2589881080
 H    2.2141051150   -2.4014991514    6.1388052826