17

 C   -0.3298087722    1.3644220290   -0.0923737353
 C    0.1373273869   -0.0754448297    0.1953685392
 C    0.6998736815   -0.6792792781   -1.0150751714
 N    1.1402350604   -1.1584770752   -1.9702183923
 C    1.1552426264   -0.1784915449    1.3673108339
 O    2.2694317561    0.6771106837    1.2147300368
 C    0.4788050075    0.0384607059    2.7311413348
 O   -0.6177323807   -0.8318585704    2.9484107972
 H    0.5104003758    1.9946131344   -0.3968502550
 H   -1.0600992067    1.3731824539   -0.9042586481
 H   -0.8053159273    1.8007334217    0.7901358820
 H   -0.7288920389   -0.6773755092    0.4944021204
 H    1.5740734884   -1.1918060789    1.3520274097
 H    1.9740212971    1.5889506911    1.3131637674
 H    1.2470322195   -0.0543350416    3.5106250312
 H    0.0741789226    1.0558100787    2.7945720176
 H   -0.2732211163   -1.7178957105    3.1008128119