17

 C   -0.0319562329    1.5706837663    0.0887584633
 C    0.0647453153    0.0632760447   -0.0732473362
 C    0.4753379129   -0.7244022262   -1.2500732052
 C    1.7728714586   -0.2742373889   -1.9448453884
 O    2.0605408700    1.1449264465   -2.0141450608
 C    2.8638448867    1.0703152646   -0.8002710975
 C    2.4862719686   -0.4067392627   -0.6063474064
 N    1.2198391024   -0.8525742096    0.1045054610
 H    0.5110998667    2.1233553418   -0.6720278271
 H   -1.0888101483    1.8473622424    0.0108501526
 H    0.3061925725    1.8741102058    1.0854963075
 H   -0.7631535672   -0.4263646632    0.4416153596
 H   -0.1252859242   -1.5463161168   -1.6318745016
 H    2.0384790016   -0.8064163660   -2.8604046410
 H    3.9270293835    1.2111097404   -1.0323477892
 H    2.5616111874    1.7940257529   -0.0394982784
 H    3.2831399765   -1.1189367222   -0.4000390924