20

 O   -0.7316888521    0.8560630587    0.8742385268
 C   -0.0265547253    1.0303110794   -0.0874508154
 C    1.2628496559    1.8264169445   -0.0637380842
 C    1.3447556299    2.8607531936   -1.1928370393
 C    2.5956597731    3.7719798234   -1.1427493324
 C    2.8071435939    4.1721766832   -2.6180065401
 C    2.2127398008    3.0070462166   -3.3978561141
 C    2.5819420038    1.6357017926   -2.9647392088
 N    1.3038388490    2.2300862893   -2.5329117089
 H   -0.2871290229    0.6057979838   -1.0804709551
 H    1.3549162546    2.3049539216    0.9156290830
 H    2.0960682336    1.1166135668   -0.1718110278
 H    0.4503018539    3.4960181387   -1.1478170435
 H    2.4481724009    4.6327996468   -0.4864457291
 H    3.4601243342    3.2231178402   -0.7555039168
 H    2.2526086130    5.0866924624   -2.8553497946
 H    3.8578863536    4.3566682044   -2.8611126847
 H    1.8800147899    3.1807111693   -4.4171956751
 H    2.4746852753    0.8017919458   -3.6517673799
 H    3.3897681950    1.5195882990   -2.2463117399