19

 C   -0.8192397530    0.8779703620    0.7762219699
 C    0.0384388731    0.0506406381   -0.1691661789
 O   -0.7443124781   -0.8139737779   -1.0174042893
 C   -1.2660415815   -1.9136649609   -0.4294258488
 C   -2.5635522991   -2.2158641595   -0.0616801864
 C   -3.7674401184   -1.3339059284   -0.1763371561
 C   -2.4635898988   -3.5439326220    0.4214498422
 N   -1.2264551750   -4.0264789987    0.3631834895
 N   -0.5054649000   -3.0116771762   -0.1592541086
 H   -0.1821649144    1.5330704565    1.3793706912
 H   -1.5229168018    1.4999502686    0.2159442225
 H   -1.3858929321    0.2342790101    1.4548172355
 H    0.5889330963    0.6910821066   -0.8632135472
 H    0.7673879584   -0.5492612420    0.3910550642
 H   -4.5806532927   -1.8311999250   -0.7160754325
 H   -4.1623003397   -1.0425974938    0.8040178640
 H   -3.5185794565   -0.4187964857   -0.7204015664
 H   -3.2574625267   -4.1663576074    0.8109441751
 H    0.4692393799   -3.1450676144   -0.3690098899