17

 O   -0.0685156847    1.4077043060    0.1037482257
 C    0.0442942631   -0.0050686700    0.0572339652
 C   -1.3734710628   -0.5718483443    0.0377820297
 C   -1.3965117389   -2.0631465145   -0.0083674462
 O   -0.7766336129   -2.8404712722    1.0678008113
 C   -1.2824150799   -3.8781602808    0.1859739144
 C   -2.5637701273   -3.0887280657   -0.2213320332
 O   -2.3374816870   -3.2245461715   -1.6522783530
 C   -0.9877668955   -3.0924070594   -1.1262762998
 H    0.8156037937    1.7779341919    0.1797946463
 H    0.5867438159   -0.3352934415   -0.8433849189
 H    0.5836658993   -0.4001277548    0.9300134197
 H   -1.9095557665   -0.2243782121    0.9280994497
 H   -1.9107055318   -0.1899229747   -0.8379074983
 H   -1.1311368994   -4.9231027763    0.4526078359
 H   -3.5834201074   -3.1116088258    0.1624720810
 H   -0.1429583280   -3.1228417242   -1.8140265794