17

 C   -0.1448178677    1.3015247281   -0.6206465873
 N   -0.1453352974    0.0359816522    0.0845074680
 C    0.8109722212   -0.2702019970    1.0145153139
 O    1.7237909268    0.4734309434    1.3245279432
 N    0.6477943569   -1.5301602888    1.5875758375
 C    1.5060244212   -2.0329370206    2.5494034073
 N    1.3212643574   -3.1836904455    3.0442743301
 C    2.2657905027   -3.6345934192    4.0456945135
 H   -0.0462213493    1.1576722330   -1.7025843529
 H   -1.0605795211    1.8705245759   -0.4240750653
 H    0.7112409076    1.8719838104   -0.2594896926
 H   -0.8714499171   -0.6292828344   -0.1205709398
 H   -0.1133082947   -2.1370635562    1.3213784015
 H    2.3119590170   -1.3380312981    2.8019661462
 H    1.7356047142   -3.8631869264    4.9779481524
 H    2.7385818885   -4.5670998259    3.7150095399
 H    3.0600664438   -2.9048992407    4.2697690244