19

 C   -0.5330149995    1.3842081875   -0.0436106283
 C    0.1430862537    0.0302883023   -0.0116304705
 O    1.4171740610    0.0235287044   -0.7225400841
 C    2.1058255630   -0.5128138297    0.4097642937
 C    3.0812208071   -1.6392361648    0.3171236980
 C    3.5425691968   -0.2388359216    0.6982376882
 C    0.8686145896   -0.4172561625    1.2611950244
 C    0.6656886838   -0.0791670711    2.6670514912
 O    0.4185978645   -1.4048143969    2.1601054339
 H    0.1159843511    2.1540708311    0.3834155090
 H   -0.7691268335    1.6641707062   -1.0747280323
 H   -1.4702572715    1.3563811242    0.5227241164
 H   -0.5174535181   -0.7550660496   -0.4021992033
 H    3.0403573897   -2.4041214151    1.0855561365
 H    3.3308798233   -1.9932950921   -0.6770447937
 H    4.0899239221    0.3259369818   -0.0488636642
 H    3.8411349628   -0.0444655493    1.7235853048
 H    1.5228886103    0.0123077852    3.3325719652
 H   -0.2207267460    0.4750918401    2.9721870551