15

 O    0.3097172168    0.9452927695    0.9884082215
 C   -0.0369466376    0.3044191107   -0.2175160804
 C   -1.4242465672   -0.2693650483   -0.1897697188
 N   -2.0891840451   -0.3287300652    0.9540197100
 N   -3.2658021538   -0.9145318442    0.6449441605
 C   -3.3699984294   -1.2279826191   -0.6625374301
 C   -2.1841144618   -0.8272906611   -1.2609037020
 C   -1.8083851098   -0.9384390802   -2.6172431457
 C   -1.4616026031   -1.0198536353   -3.7678326618
 H   -0.2907169173    0.6119155767    1.6663764193
 H    0.0416671260    1.0305766202   -1.0373759565
 H    0.6744715768   -0.5051630986   -0.4545705202
 H   -3.9484852354   -1.0551558997    1.3700323759
 H   -4.2482174360   -1.6964110813   -1.0766456016
 H   -1.1597859130   -1.0925309941   -4.7830848599