15

 C   -0.1029878395    1.4943739178    0.0470751073
 C    0.0097892440   -0.0156513522   -0.0068727038
 O    1.0820091987   -0.5888345786   -0.0669200785
 C   -1.2509194985   -0.7783992492    0.0166861205
 C   -1.3642465322   -2.1448316148   -0.0236351531
 N   -2.7176618073   -2.4018270604    0.0200619113
 C   -3.3427559321   -1.1908905668    0.0837649722
 O   -4.6821491540   -1.1461051444    0.1368374632
 N   -2.5130546365   -0.1891770918    0.0844432805
 H    0.8952918993    1.9323150636    0.0230160383
 H   -0.6990783333    1.8607379751   -0.7949005585
 H   -0.6316801211    1.8032653667    0.9545697632
 H   -0.6222620167   -2.9220372657   -0.0776467687
 H   -3.1713083159   -3.3001245551    0.0083411247
 H   -4.9247998549   -0.2123368642    0.1767319114