21

 C    0.0403093997    1.5070880299    0.0643836311
 C   -0.0595095865   -0.0164394518    0.0003077226
 C   -1.5335370048   -0.4552497562   -0.0044110114
 C    0.6782310509   -0.5579879279   -1.2560967420
 C    0.8858843045   -2.0609939637   -1.1728206660
 O    0.5715728806   -2.8250482100   -2.0558155044
 C    1.5012411689   -2.5080482626    0.1416286524
 C    0.7335533379   -1.8750454746    1.3184505593
 O    0.6193313258   -0.4729906161    1.1792024704
 H    1.0864432955    1.8126688291    0.1519712853
 H   -0.3851626095    1.9615759080   -0.8349823737
 H   -0.5009497781    1.8862340744    0.9359788112
 H   -2.0716764560    0.0440190116   -0.8154676822
 H   -1.6518171204   -1.5320662834   -0.1555014127
 H   -2.0065264775   -0.1831227450    0.9435431389
 H    0.1337800650   -0.3189424562   -2.1728025991
 H    1.6651398947   -0.0802421660   -1.3014274002
 H    1.4991343601   -3.5991955628    0.1986689595
 H    2.5393891171   -2.1538472711    0.1741753728
 H   -0.2536015423   -2.3497880535    1.4142324053
 H    1.2683426444   -2.0404964122    2.2577744030