20

 C   -1.0235708223    1.2059256059   -0.1866016096
 O   -0.7682991407   -0.1744329292   -0.2940108318
 C    0.4237474364   -0.4619475053   -0.9995661579
 C    0.6534873064   -1.9529988858   -0.9449165335
 C   -0.0673741529   -2.8418891043   -1.9306001335
 C    1.4174377695   -2.6184008609   -2.0557377074
 N    0.8269026947   -2.4782515413    0.3834287442
 C    2.0104343565   -2.4212435146    1.0609258752
 O    3.0739310747   -2.0743531918    0.5955189124
 H   -0.2146783429    1.7317177136    0.3446316936
 H   -1.1457262547    1.6774382664   -1.1746992388
 H   -1.9525298495    1.3249303121    0.3765056160
 H    0.3469345866   -0.1276884508   -2.0475945484
 H    1.2792481482    0.0616041596   -0.5437601789
 H   -0.4052154228   -3.8082225280   -1.5744162961
 H   -0.7308269540   -2.3623828471   -2.6413706452
 H    1.7849584059   -1.9897015540   -2.8589085987
 H    2.0849277076   -3.4225806500   -1.7753770071
 H   -0.0107244641   -2.5985038829    0.9334333293
 H    1.8914373672   -2.7631989318    2.1097640060