17

 C   -0.6037840295    1.4325966676    0.1837485801
 C   -0.1435281432   -0.0075524121    0.1258896727
 C    1.2247767915   -0.3729925597   -0.3390116433
 N    0.8349945080   -0.5923052518    1.0563112071
 C    1.4599936362    0.2767169754    2.0598764042
 C    0.5958707755    0.4247380125    3.2345170290
 C   -0.1222029745    0.5690952230    4.1846453078
 C    2.7631112000   -0.3105618308    2.4385704194
 N    3.7970566138   -0.7437375195    2.7136425436
 H    0.2240329085    2.1410335100    0.2717885912
 H   -1.1406631719    1.6776021136   -0.7381934441
 H   -1.2865268915    1.5955602402    1.0233077119
 H   -0.9460971827   -0.7112527181   -0.0865852442
 H    1.4097689548   -1.2726283845   -0.9180014720
 H    1.9053990720    0.4506142728   -0.5530025187
 H    1.6870171331    1.2856865587    1.6736406582
 H   -0.7526179402    0.6864660927    5.0318219973