15

 O    0.0660482582   -0.0280935055   -0.1064456980
 C    0.0018004523    1.1822694367   -0.0232761321
 N   -1.1982683021    1.8703250460   -0.1330798682
 C   -1.3031495936    3.2413115718    0.0482741459
 C   -0.2312645716    4.0249277393    0.1599925653
 C    1.1578151694    3.4377275797    0.0471144438
 N    1.0890499662    1.9839006694    0.2404797407
 C    1.8001123815    3.8025845096   -1.2290550460
 C    2.3374609187    4.0972166383   -2.2632246614
 H   -2.0143612961    1.2875708019   -0.2097187453
 H   -2.3151953057    3.6255048564    0.0960358744
 H   -0.3245873718    5.0939875876    0.2846383472
 H    1.7842764231    3.8436975549    0.8541906082
 H    1.9603585208    1.4774185063    0.1937345431
 H    2.8046710005    4.3549603476   -3.1817164976