23

 C   -0.1965939157    1.6035210240    0.1094548739
 C    0.0197196522    0.1058347838    0.1011532579
 C    1.3838030257   -0.5359878565   -0.2116100615
 C    2.6098284745    0.2674316290   -0.4672928193
 C    3.5793318541   -0.3388156684   -1.4710074412
 O    2.8551795270    1.3339378591    0.0660507683
 C    0.7247439704   -0.6546694459    1.1806746868
 C    1.3285297035    0.0635067448    2.3727151278
 C    0.1883477889   -2.0356115801    1.5192935795
 H    0.6835797491    2.1450702745    0.4539307220
 H   -0.4309330753    1.9594561805   -0.8995889592
 H   -1.0446588599    1.8589780175    0.7547466768
 H   -0.7994351418   -0.4402553710   -0.3632224880
 H    1.3350643705   -1.4429768738   -0.8068106146
 H    3.0871318659   -0.4773878832   -2.4405674922
 H    4.4455654082    0.3131489505   -1.5880439813
 H    3.9043076320   -1.3305940967   -1.1359392343
 H    1.8163571181    0.9960414353    2.0943314726
 H    0.5489601008    0.2773779657    3.1133180053
 H    2.0765010904   -0.5725427433    2.8598715921
 H    0.9812700332   -2.6825553217    1.9118993316
 H   -0.5916779947   -1.9662367884    2.2868748370
 H   -0.2479554472   -2.5285729854    0.6448995699