23

 C    0.0083842030    1.5448214184   -0.0420042973
 C   -0.0239382259    0.0164387157   -0.0591037900
 O    0.8297709903   -0.5271306959    0.9478716247
 C   -1.4497250338   -0.5404137077    0.0534165556
 C   -1.5137143119   -2.0666031466   -0.0489401738
 C   -2.9240638321   -2.6308357921    0.1647131317
 C   -2.9659238909   -4.1342608332    0.0432318558
 C   -4.1115375325   -4.8520787618   -0.5275106294
 O   -2.9131576694   -4.6704077708   -1.2837288754
 H    1.0394191718    1.9038620365   -0.1005325617
 H   -0.5551185336    1.9640974523   -0.8818934788
 H   -0.4371568424    1.9329363277    0.8831079706
 H    0.4165847514   -0.3380135547   -0.9999117533
 H    0.5204452177   -0.1952481132    1.7984638598
 H   -1.8779591414   -0.2118470299    1.0135836970
 H   -2.0730489035   -0.0849459886   -0.7276463294
 H   -1.1528319665   -2.3839059020   -1.0353360718
 H   -0.8233387462   -2.4977813107    0.6850843421
 H   -3.2927936565   -2.3466657687    1.1603466427
 H   -3.6180942071   -2.1991367467   -0.5670078613
 H   -2.3379781957   -4.6755339490    0.7547761387
 H   -4.3223181203   -5.8759470691   -0.2207899571
 H   -4.9753292543   -4.2880211400   -0.8784561293