12

 N    0.0562775916   -1.1337964037   -0.0529288616
 C   -0.0067836832    0.0221356835   -0.0157835927
 C   -0.0383075137    1.4392604457    0.0310094549
 C   -1.1146287867    2.2289883401    0.0277498177
 C   -0.6835712523    3.6624782059    0.0878333648
 O    0.7388527897    3.6289967792    0.1264275992
 C    1.2142206660    2.2905105179    0.0942749369
 H   -2.1468247226    1.9077918328   -0.0116548592
 H   -1.0263204407    4.2337504233   -0.7891678599
 H   -1.0756519067    4.1744725951    0.9806210655
 H    1.8114942718    2.0751015811    0.9919218073
 H    1.8603107469    2.1349586090   -0.7816817430