19

 O   -0.1349772551    1.4743349922   -0.0360989782
 C    0.0062954653    0.0599276770    0.0023914543
 C   -1.3752694524   -0.5359968677    0.0179733446
 C   -2.2439699367   -0.3671669672    1.2977527874
 C   -2.8069324183   -1.7914002155    1.0870781805
 O   -3.8151458783   -1.8232577867    0.0517368588
 C   -2.8059893192   -1.8474775269   -0.9828878776
 C   -2.2428160767   -0.4367116151   -1.2698391535
 C   -1.6776991629   -2.0893213077    0.0599236709
 H    0.7434196959    1.8657057640   -0.0484187924
 H    0.5614859299   -0.3099312579   -0.8762989674
 H    0.5607253560   -0.2616216729    0.9003772401
 H   -1.6090112467   -0.3318336484    2.1903923976
 H   -2.9643365057    0.4533883116    1.3312720638
 H   -3.0882168712   -2.3979372671    1.9501206099
 H   -3.0864956225   -2.4998602879   -1.8120829857
 H   -2.9631507079    0.3807924336   -1.3483637748
 H   -1.6070634270   -0.4497092877   -2.1625190417
 H   -0.9563091963   -2.9025918998    0.0822918035