20

 C    0.0903918042    1.3260514152   -0.1818794746
 O    0.1920439987   -0.0871438356   -0.0011873349
 C    0.5788182824   -0.5017652586    1.2248314152
 N    0.8591543400    0.3207621890    2.1471229551
 C    0.5856062688   -2.0199996492    1.2599185817
 C    1.4902047070   -2.6389324957    2.3240233935
 O    1.0982724948   -2.2869838871    3.6610146090
 C    1.5605096831   -4.1648174805    2.2206892290
 O    2.3684149388   -4.7031050197    3.2413159685
 H    1.0583838188    1.8084030500   -0.0210670283
 H   -0.2439384698    1.4693384414   -1.2103643116
 H   -0.6278761566    1.7573865490    0.5209283606
 H    1.1060469176   -0.1776872288    3.0001559932
 H   -0.4477806517   -2.3700191765    1.4005029991
 H    0.8864147379   -2.3817772610    0.2710009250
 H    2.5051898739   -2.2375520248    2.2302977961
 H    0.1583592070   -2.4856485724    3.7559941241
 H    0.5331634010   -4.5743675597    2.2555671196
 H    1.9968795210   -4.4620810880    1.2608351843
 H    2.1423849532   -4.2078318271    4.0394311754