15

 O   -0.4151203764    0.0549195474   -0.0167736480
 C   -0.2154188538    1.2336097762   -0.0180855239
 N   -1.0798414735    2.3417830900    0.1008342997
 C    0.0311672862    3.2956336304    0.0397629401
 C    1.0555918451    3.0189023666    1.0950864319
 C    1.0039617448    2.1454241913   -0.1620943323
 C    2.1574214873    1.9717737732   -1.1183591856
 C    3.2115743287    1.1053494129   -0.5824515582
 N    4.0501630036    0.4377753079   -0.1524317150
 H   -1.8219540780    2.3888515006    0.7904310694
 H   -0.0554180085    4.2111239577   -0.5305378917
 H    1.9091382899    3.6909322947    1.1377268384
 H    0.7538798162    2.6106681090    2.0548561475
 H    1.8045931277    1.5484329377   -2.0654074351
 H    2.6047991307    2.9446630043   -1.3529663773