20

 C    0.0376520457    1.5955765272   -0.0176105003
 C    0.0668642890    0.0681175264    0.0238175904
 C    0.7722774831   -0.6058268597   -1.1719470648
 C    1.2846151928   -1.9434748913   -0.5960719484
 N    1.5180752163   -1.7642666598    0.8521029819
 C    2.2948071893   -0.5663439016    1.1731447143
 C    0.7999586311   -0.5183070278    1.2405229305
 C    0.1223233464   -0.4774858472    2.5065600683
 C   -0.4712920446   -0.3957797949    3.5494183042
 H    1.0512654040    2.0077741930   -0.0708885787
 H   -0.5178904978    1.9537193539   -0.8902198087
 H   -0.4441756245    2.0007060196    0.8774768374
 H   -0.9655830963   -0.2990231345    0.0798574619
 H    0.0988369294   -0.7509744862   -2.0204220956
 H    1.5987905387    0.0175283457   -1.5290117172
 H    0.5274531724   -2.7275652780   -0.7020566475
 H    2.2006391135   -2.2997369582   -1.0777495034
 H    2.8582548838   -0.6286461871    2.0986353236
 H    2.7912017499   -0.0215321399    0.3735634261
 H   -0.9859550822   -0.3415626197    4.4765020761