18

 C   -0.1427767354    1.4872113524    0.1137945360
 C   -0.0186558232   -0.0263130405   -0.0242581699
 C    0.8076763075   -0.4571538361   -1.2260468585
 O    0.6717682124   -0.5796428645    1.1352689804
 C    0.0019992697   -0.7477822781    2.2642259976
 C    0.4332282598   -1.2170149251    3.4737971141
 C   -0.7443370987   -1.1761623767    4.2565472806
 N   -1.7920592527   -0.7285211209    3.6070966340
 O   -1.3032242907   -0.4491181092    2.3068590965
 H    0.8474648182    1.9456002915    0.1967756299
 H   -0.6411461659    1.8994034218   -0.7690385960
 H   -0.7331291481    1.7541685010    0.9926703816
 H   -1.0131413857   -0.4807666585   -0.0676580154
 H    1.8176178892   -0.0400702780   -1.1675494081
 H    0.8848168517   -1.5462083617   -1.2738375227
 H    0.3392170829   -0.1005252652   -2.1476389753
 H    1.4243958969   -1.5362487485    3.7417693617
 H   -0.8685957978   -1.4630788037    5.2921432435