16

 C    0.0183740600   -1.1982800752   -0.0041578933
 C   -0.0045883251    0.0037668365   -0.0088911115
 C   -0.0117306160    1.4575383446    0.0198625939
 C   -0.7223264771    2.0048053843    1.2794606431
 O   -0.6291538104    3.4179237540    1.3179531444
 C    0.7081269543    3.8423436123    1.2916688837
 O    1.3753407498    3.4513753099    0.1207267966
 C    1.4203054936    2.0405669616   -0.0003447015
 H    0.0301436975   -2.2601446891   -0.0140450833
 H   -0.5421379595    1.8481293777   -0.8572084051
 H   -1.7845582203    1.7523656418    1.2741891237
 H   -0.2626989942    1.5609286266    2.1775880652
 H    0.6991076586    4.9333999825    1.3070499561
 H    1.2433881654    3.4469105283    2.1768065456
 H    2.0040814661    1.5987257246    0.8236101184
 H    1.9251297473    1.8142890097   -0.9416433159