19

 C    0.1662772265    1.5820289585    0.0272770049
 C    0.0419463105    0.0539734211    0.0144326893
 O   -1.2920960463   -0.3633248898    0.2305199105
 C    0.6311783023   -0.5840425730   -1.2712126872
 C    0.5966132571   -2.1218937000   -1.1922774807
 C   -0.1495125860   -0.1259026991   -2.5028651738
 N    0.5864473690    0.1059724253   -3.6213884583
 O   -1.3681292979    0.0052216154   -2.5031186205
 H    1.2122943928    1.9004899544   -0.0499704047
 H   -0.3943898065    2.0284667225   -0.8003579296
 H   -0.2450025489    1.9733883336    0.9613065754
 H    0.6189789207   -0.3471678502    0.8585096255
 H   -1.7526918044   -0.1948586363   -0.6084632456
 H    1.6736645821   -0.2541228218   -1.3681241958
 H    1.2094793169   -2.4681965707   -0.3543903952
 H   -0.4276685680   -2.4610915744   -1.0265922231
 H    0.9790701056   -2.5823926221   -2.1082932106
 H    1.5845587667   -0.0035844999   -3.6405315480
 H    0.1056593678    0.3571127564   -4.4703093425