20

 N   -0.0414658245    1.2814883639   -0.0361089765
 C   -0.0490246386    0.0193052542   -0.0519773345
 C   -1.2755249836   -0.8661988013   -0.1014206202
 C   -0.7026738279   -2.2010677043   -0.5923006416
 C    0.7274968136   -2.1643210283   -0.0351910127
 C    0.9601458100   -2.9180214351    1.3042214776
 C    1.6075699952   -4.0702996829    0.4877670343
 C    1.7736410489   -3.0821453929   -0.7011282173
 O    1.0698950414   -0.7684898856   -0.0269382167
 H    0.9174265675    1.6308352605    0.0141250277
 H   -1.6888299261   -0.9554508406    0.9099344416
 H   -2.0489643659   -0.4354910223   -0.7373079637
 H   -1.2622401585   -3.0760953236   -0.2551762007
 H   -0.6692463407   -2.2208619893   -1.6871733587
 H    1.6975530768   -2.3863406920    1.9106156363
 H    0.0856502344   -3.1434179938    1.9203811570
 H    2.5167440943   -4.5158652849    0.8939908879
 H    0.8982953211   -4.8710938660    0.2642408742
 H    1.5541068861   -3.4387834714   -1.7106621796
 H    2.7555484368   -2.6024869241   -0.6969685544