17

 O    0.1222510758    1.3893060194    0.1072887350
 C    0.0635067122    0.0190780265    0.0419432152
 C    0.6576111647   -0.9787391641    1.0298313751
 N    0.0090309517   -1.9056866595   -0.0042611098
 C   -1.1878013796   -0.9154369810   -0.0224838518
 C   -1.7278619741   -0.9174157106   -1.4371428921
 N   -1.3047178839    0.2981932930   -2.1887332421
 C   -0.4671147043   -0.9344842884   -2.2125793832
 C    0.5518338223   -0.9389865254   -1.0924668262
 H   -0.3570991853    1.6924542803   -0.6787160932
 H    1.7456897983   -1.0723921962    1.0781025705
 H    0.2082681245   -1.0515797444    2.0237132011
 H   -1.8685729562   -1.0009418761    0.8245822385
 H   -2.6254783082   -1.4477548425   -1.7288947348
 H   -1.8371535720    0.3476743453   -3.0554938024
 H   -0.3331756566   -1.4787882041   -3.1388016558
 H    1.6129920505   -1.0480753720   -1.3167987442