19

 C   -0.0706677750    1.5459496331   -0.1846600303
 O    1.2049093939    2.0513049836    0.2254763252
 C    2.1027367807    0.9703575215    0.4451870916
 C    2.1677865308    0.5322161454    1.9359126563
 C    1.3049278982   -0.7428899775    1.8978686099
 C   -0.1593301859   -0.3999429286    1.5396153014
 C   -0.0261322696    0.0406062049    0.0483175480
 C    1.4711982339   -0.3025284587   -0.1937812345
 O    1.7740787285   -1.3699447222    0.6903799829
 H   -0.8542958373    2.0523250875    0.3906436900
 H   -0.2324066001    1.7762817840   -1.2482175232
 H    3.0767035091    1.2521425909    0.0402086338
 H    3.1890273158    0.2766415405    2.2304430973
 H    1.7927123894    1.3206063803    2.5918090874
 H    1.4315810718   -1.4260450696    2.7373968634
 H   -0.7841692449   -1.2915905188    1.6279372663
 H   -0.5825944527    0.3809299991    2.1771875579
 H   -0.7098601954   -0.5017186888   -0.6057409887
 H    1.7704381189   -0.5507823667   -1.2106057045