19

 C   -0.0205615846   -1.1691838416    0.0376661913
 C   -0.0369846906    0.0338162094    0.0340347309
 C   -0.0522437447    1.4797644506    0.0307964903
 C   -0.2298961964    2.2029580208   -1.3312300116
 O    0.9046323606    3.0504943691   -1.0761714934
 C    1.3138967827    2.2462743624    0.0563991669
 C    1.4150619595    3.0177333246    1.3798799082
 C    0.2517677610    2.4732378383    2.2387094201
 C   -0.8381379373    2.1049172771    1.2163796646
 H   -0.0051302126   -2.2309202807    0.0379462951
 H   -0.0680101508    1.5498694795   -2.1971055860
 H   -1.1569339350    2.7718968148   -1.4656377938
 H    2.1982628287    1.6473463232   -0.1851925495
 H    2.3869888709    2.8960558901    1.8649043354
 H    1.2796876267    4.0815264661    1.1608879395
 H    0.5739069872    1.5705683069    2.7707728370
 H   -0.0957637780    3.1865710476    2.9909661982
 H   -1.3468501084    3.0122573641    0.8728276895
 H   -1.5948395990    1.4266146676    1.6150419774