16

 O    0.1082300642    1.3724092558    0.2115688787
 C    0.0742336563   -0.0240180548   -0.0050136579
 C   -1.3598890696   -0.5464717515   -0.0316555965
 C   -1.5396497201   -2.0925703486    0.1260845824
 C   -2.1941859548   -1.7614311970    1.4917439483
 O   -2.6187604663   -2.3875386109    2.4192819289
 N   -2.0962790402   -0.4074829339    1.2361731170
 C   -2.1653188458    0.0497542404   -1.1741216058
 O   -1.7327878385    0.8495599148   -1.9675580878
 H   -0.2188082696    1.7770302346   -0.6014849153
 H    0.5810628986   -0.3101665295   -0.9379204980
 H    0.6100683845   -0.4894694452    0.8285524864
 H   -2.2075540624   -2.5743491199   -0.5912823781
 H   -0.6040973300   -2.6511651084    0.1903655733
 H   -2.1549915684    0.3947247580    1.8485254800
 H   -3.2220751178   -0.2948847139   -1.2126946855