11

 O   -0.0535052013   -0.0353100306    0.0044236637
 C   -0.0262755648    1.1723290928    0.0097146001
 C   -1.2669871247    1.9834533361    0.0315697023
 N   -1.3248558543    3.2629133008    0.0385808815
 O   -0.0925358741    3.9247974701    0.0238493907
 C    1.0526388860    3.1946749212    0.0034932236
 N    1.1603103392    1.9150108930   -0.0039392603
 C    2.1947877605    4.0482214141   -0.0082159957
 C    3.1575941658    4.7664634519   -0.0181115667
 H   -2.2275280746    1.4762452817    0.0430610372
 H    4.0157921224    5.3944916488   -0.0270266465