15

 O   -0.0795757244   -0.1390768147    0.2676072422
 C   -0.0390019641    1.0448125113    0.0061382448
 C    1.1786674034    1.8196447322   -0.1137736770
 C    2.5267502650    1.4666141805    0.0223331497
 N    3.3828348495    2.5191060089   -0.1743381826
 C    2.5521135706    3.5138906792   -0.4312369854
 C    2.2828950682    4.9694355903   -0.7659031690
 C    0.7639676162    4.5310493625   -0.7340651038
 N    1.2579678733    3.1718864318   -0.4110714053
 H   -0.9717823018    1.6302528846   -0.1639625220
 H    2.8934014030    0.4785580762    0.2574997818
 H    2.5647587639    5.6959411797   -0.0010018065
 H    2.6396989538    5.3099402573   -1.7401083214
 H    0.1606081559    4.9755629679    0.0600770901
 H    0.2358574875    4.5875334924   -1.6881139356