18

 C    0.0876793341    1.5063900197    0.0074173623
 C    0.0551603937   -0.0079738588   -0.0106350554
 C   -0.8583496600   -0.7161333657    0.9922743409
 C    0.6262170792   -0.7866848665    1.1559291084
 O    1.2216963834   -2.0314347964    0.8855593718
 C    1.8003911437   -2.0572528030   -0.3787915817
 O    0.8409185245   -1.8418715961   -1.4115952545
 C    0.1858150559   -0.6360016729   -1.3616310740
 N   -0.3072668502   -0.0998108662   -2.3954398975
 H    1.0291546177    1.8868623671   -0.4011885559
 H   -0.7255936874    1.9067012961   -0.6021200910
 H   -0.0202888770    1.8832936074    1.0290345023
 H   -1.4354029939   -0.0838778755    1.6578219696
 H   -1.3459820216   -1.6313002258    0.6778737225
 H    1.1132785969   -0.2395062988    1.9593967508
 H    2.5967380746   -1.3025871138   -0.4706078250
 H    2.2003230017   -3.0589078031   -0.5401277542
 H   -0.1079952854   -0.6744665779   -3.2166004494