12

 C    0.0298117349    1.4634299936    0.0031663913
 C    0.0154831623   -0.0256284449   -0.0495178950
 N    0.2348795767   -0.7836405221   -1.1160972332
 C    0.1049817491   -2.0436015030   -0.6203563073
 O    0.2528004494   -3.1335227041   -1.3849991637
 N   -0.1769985783   -2.1395892659    0.6654477270
 N   -0.2291933591   -0.8178748498    1.0098466578
 H    1.0065015161    1.8485190558   -0.3040510589
 H   -0.7171077906    1.8783894863   -0.6798502392
 H   -0.1837911764    1.8267251424    1.0117646472
 H    0.4521432660   -2.8174559757   -2.2742288799
 H   -0.4322666902   -0.5622575327    1.9616590439