17

 C   -0.2806214303    1.4980533197   -0.1747864096
 N   -0.1298664855    0.0653161491    0.0351356649
 C    1.1652214532   -0.5252362752   -0.2586225671
 C    0.7020598316   -0.4150614783    1.1570773808
 C    1.3569592407    0.4865838494    2.1304203986
 C    1.0576531319    0.6124636761    3.4545903920
 O    1.8550239552    1.5090241637    4.0482356441
 N    2.7360442742    2.0223982076    3.1029979597
 C    2.4354199347    1.4125474857    1.9845088066
 H    0.6321570357    2.0876257736    0.0002949642
 H   -0.5979903923    1.6625084810   -1.2090411618
 H   -1.0636533769    1.8799415908    0.4873901267
 H    1.1558116498   -1.4877774625   -0.7636237154
 H    1.9703271854    0.1386537952   -0.5727254034
 H    0.2812670440   -1.3063616755    1.6175216523
 H    0.3286070842    0.1342990686    4.0908450672
 H    3.0089515943    1.6446886211    1.0986067602