15

 C    0.1531977585    1.5206949243    0.0160353100
 O    1.1823346344    0.5518242352   -0.1667931510
 C   -0.1529601335    0.0765547230    0.0145585465
 C   -0.4369771894   -0.6714673912    1.2657737724
 C    0.4235471276   -0.6500045331    2.3648601309
 N    0.1614361527   -1.3045059322    3.4964441237
 C   -0.9789769231   -1.9972922788    3.5210476065
 N   -1.8684607707   -2.1146918593    2.5338868490
 C   -1.5828443964   -1.4512808226    1.4130708300
 H    0.1738581736    2.0541434498    0.9650354924
 H   -0.0867696174    2.1219416067   -0.8595758781
 H   -0.6104770651   -0.3358445013   -0.8855290366
 H    1.3584827378   -0.0983256242    2.3133967255
 H   -1.2039323473   -2.5291653947    4.4421213271
 H   -2.2972031016   -1.5466622115    0.5962142618