24

 C   -0.0066398074    1.5172079952    0.1255642083
 C    0.0417825765   -0.0076003415   -0.0139568012
 C    0.7197712961   -0.5060775158   -1.3033716003
 C    2.2020126336   -0.1203075293   -1.3913011157
 C    0.5439947557   -2.0196243168   -1.4161679959
 O    1.0406280466   -2.4472164369   -2.6868888662
 C    1.2245160500   -3.7717590259   -2.8453803652
 N    1.5690636241   -4.2461624694   -3.9580580636
 C    1.7712773065   -5.6770440842   -4.0361751024
 H    0.9946140339    1.9527026225    0.1910092003
 H   -0.5144862703    1.9758149176   -0.7301768615
 H   -0.5508679552    1.8074731543    1.0294536984
 H    0.5608264588   -0.4369869810    0.8544434362
 H   -0.9835298189   -0.3986942507    0.0208504738
 H    0.1947270296   -0.0628269908   -2.1609394180
 H    2.7542314933   -0.4950861911   -0.5202565149
 H    2.6562229446   -0.5454996214   -2.2891205014
 H    2.3324823919    0.9642756486   -1.4278477539
 H    1.0913163520   -2.5295914627   -0.6093297663
 H   -0.5173265412   -2.2904132243   -1.3297401208
 H    1.0580845827   -4.3679602802   -1.9332743214
 H    1.5862795445   -6.2102492746   -3.0885672846
 H    1.1122420973   -6.1013463279   -4.8024638327
 H    2.7997882154   -5.8878089737   -4.3516098212