17

 C   -0.0322457344    1.5141495791   -0.1986410565
 C    1.4940246162    1.5955760392    0.0851419941
 C    1.4448853950    0.1392118239    0.6396505945
 C    1.2274980915    0.0066235652    2.1230903477
 C   -0.0208509017   -0.3470985635    2.4327415652
 C   -0.8964251145   -0.5414490260    1.2133434865
 C   -0.0062214402   -0.0214432035    0.0678701243
 H   -0.6330605370    2.0517704310    0.5402842677
 H   -0.3551388229    1.8273378673   -1.1944507873
 H    2.0898977999    1.6695678381   -0.8289590996
 H    1.8274011286    2.3731248138    0.7778758363
 H    2.2324873117   -0.5279026054    0.2724250735
 H    2.0188223537    0.1863160280    2.8442765348
 H   -0.3900817739   -0.5002642760    3.4417576783
 H   -1.1726076929   -1.5979295782    1.0885610259
 H   -1.8411038781    0.0145866543    1.2822241595
 H   -0.0860742209   -0.6140936273   -0.8451435750