19

 C    0.2556712464    1.2389972160    0.2157467047
 O   -0.4013643699    0.1280297623   -0.3633213861
 C    0.3794021477   -0.5398678050   -1.2955885517
 C    1.3898523397   -1.6154575913   -0.9170831628
 C    1.3002684206   -2.2455571446    0.4601965393
 O   -0.0635916789   -2.6007570113    0.6644125947
 C   -0.7023736902   -2.7765049586   -0.5889707704
 C    0.0931755518   -1.9731673779   -1.6129651042
 O    0.0908874009   -2.4200292206   -2.9333578223
 H    1.1809179250    0.9436902476    0.7290879983
 H    0.5070838207    1.9974024783   -0.5415962061
 H   -0.4334816526    1.6765525049    0.9412429460
 H    0.6801469800    0.0655720020   -2.1545201058
 H    2.3317059900   -1.6445042295   -1.4527702459
 H    1.9551458533   -3.1312058491    0.4982378627
 H    1.5850900993   -1.5800285638    1.2823703088
 H   -0.6945430919   -3.8284648965   -0.9162084939
 H   -1.7414869004   -2.4490544305   -0.4751358449
 H   -0.7005231515   -2.0783009823   -3.3638157104