16

 N    0.0483729002   -1.0242109284    0.6653555281
 C    0.0435231576    0.0908410374    0.3609087209
 C    0.0573605123    1.4981612141   -0.0532845696
 O   -0.4422411911    2.3907824067    0.9560885389
 C    0.8480678942    3.0766912598    1.0476610909
 C    1.6556990727    2.7048537452    2.2567921100
 C    2.6296183038    1.8467809539    1.9505601719
 C    2.6752753170    1.4875787217    0.4815788800
 C    1.4449900786    2.2115084586   -0.0928736367
 H   -0.5200174411    1.5869033153   -0.9813579205
 H    0.7087111892    4.1516047890    0.8977706964
 H    1.4404437924    3.0934919045    3.2448118012
 H    3.3356304166    1.4303331037    2.6609358569
 H    3.6016814216    1.8378562800    0.0101232874
 H    2.6384857912    0.4031348298    0.3241169637
 H    1.6275158850    2.7056971288   -1.0457050997