17

 C   -0.0566051094    1.5217179806    0.0742360510
 C   -0.0012104746    0.0341337614   -0.0074912647
 C   -0.0280378018   -0.8000396635   -1.1031732761
 N   -0.1565706879   -0.4138365760   -2.4510354557
 C    0.0329815547   -2.1563620627   -0.6247120854
 C    0.0963243647   -2.0917253712    0.7584459672
 N    0.0881686685   -0.7780857960    1.1120958195
 C    0.0284649673   -3.3074641098   -1.4406160211
 C    0.0284054830   -4.2556344570   -2.1870211351
 H    0.9274217722    1.9863736447    0.2261689541
 H   -0.4697670562    1.9204593109   -0.8567579018
 H   -0.7052897261    1.8600352055    0.8912749754
 H    0.5581395080    0.2422086831   -2.7421958030
 H   -0.1145165791   -1.2240532167   -3.0588002970
 H    0.1479391475   -2.8807733161    1.4898753021
 H    0.1183945587   -0.4384686082    2.0572879477
 H    0.0214004005   -5.1035704290   -2.8250987869