14

 O    1.8879648992    4.2106483587    0.2011110844
 C    1.0604667917    3.3417766922    0.1570754120
 N    1.2759686167    1.9791972553    0.0178527761
 C    2.4686758471    1.2628537405   -0.1054251999
 N    3.6343538412    1.8991117437   -0.0975374521
 C    4.7228138577    1.1363443577   -0.2204216517
 C    4.6572974127   -0.2451232033   -0.3498814514
 N    3.4818006210   -0.8863174407   -0.3578078812
 C    2.3972614781   -0.1379595785   -0.2365923854
 H   -0.0303415416    3.5340687330    0.2258759044
 H    0.4370153331    1.4181398801    0.0035168373
 H    5.6787586095    1.6537837855   -0.2145255173
 H    5.5544210336   -0.8483438498   -0.4486591635
 H    1.4354634898   -0.6493896544   -0.2418607817