13

 O    0.0167800559   -0.0143065315    0.0024302872
 C    0.0106325715    1.1915822962    0.0089491035
 C   -1.1925097824    2.1051607465    0.0316795459
 C   -0.7695455288    3.3768655592    0.0322173086
 N    0.6452719670    3.4071169799    0.0113624301
 C    1.6947903278    4.2863883922    0.0003128883
 C    2.8193242867    3.4840276479   -0.0204430058
 N    2.4810737661    2.1491062856   -0.0225923890
 C    1.1664715346    2.1423317584   -0.0031027830
 H   -2.2128018728    1.7563738001    0.0449316494
 H   -1.3277356029    4.3020287829    0.0454213823
 H    1.5653259890    5.3559076742    0.0078476165
 H    3.8509334283    3.8006505184   -0.0339979140