15

 O    0.1932189529    1.3474489414    0.3626075754
 C    0.0640161449   -0.0281646147    0.0672156124
 C   -1.4321538102   -0.4743315490   -0.1577410199
 N   -1.3949938503   -1.5139479650   -1.2073208870
 C   -0.2211854599   -1.3379928851   -1.9090641346
 N    0.2267499245   -1.7941646980   -3.0493285308
 O    1.5383826682   -1.2430376241   -3.1164988536
 C    1.7774998464   -0.5025313072   -2.0165876931
 C    0.6946832008   -0.5096270171   -1.2073118040
 H    0.0008872034    1.8383342968   -0.4447025565
 H    0.4788000066   -0.5398333831    0.9420790812
 H   -1.8901578672   -0.8595173416    0.7563979427
 H   -1.9991224955    0.4129298160   -0.4761729093
 H   -2.2425371492   -1.6965139762   -1.7242608662
 H    2.7500895244   -0.0363162932   -1.9754257967