20

 C    0.5108893971    0.7806900667    0.6688157436
 N   -0.3008106417   -0.2584343206    0.0414254130
 C   -1.3630919926   -0.7853761218    0.7205282074
 O   -1.7140858754   -0.4660222431    1.8376106316
 C   -0.0095123412   -0.6713259126   -1.3111690457
 C   -0.7666828544    0.1005512841   -2.3824212319
 O   -0.5500059723    1.5018838839   -2.3250137268
 C    1.3950452105   -1.1310228430   -1.6109350536
 C    0.2710617949   -2.1333234116   -1.5770956145
 H    1.4598690758    0.3781881866    1.0426987179
 H    0.7283523333    1.5671376870   -0.0562680818
 H   -0.0505132371    1.1813570183    1.5134062116
 H   -1.8844303652   -1.5577540030    0.1233954892
 H   -0.4283646617   -0.2251661571   -3.3719582224
 H   -1.8397399057   -0.1326187854   -2.3074953914
 H   -1.0899139598    1.8523669297   -1.6099409847
 H    1.8170510419   -0.8497979418   -2.5691725928
 H    2.1077671602   -1.1512309114   -0.7950030549
 H    0.2297119768   -2.8137423458   -0.7351028557
 H   -0.0833948433   -2.5536931089   -2.5122661183