16

 C   -0.0834791181    1.5581950172   -0.0860106815
 C   -0.0021431287    0.0438864736   -0.0444494790
 C   -1.1492202134   -0.6548116870   -0.5628851728
 N   -2.0654922842   -1.2238127471   -0.9826261143
 C    1.3484994235   -0.6498338096   -0.2335459647
 O    2.4755810665    0.1175635644   -0.4491658982
 C    0.7029911329   -0.6761664155    1.1377764256
 C    1.3133911491    0.0965163194    2.1748031313
 C    1.8955640773    0.7409482639    3.0088985645
 H    0.8782865100    1.9949267181    0.1822007650
 H   -0.3387543264    1.8890112492   -1.0961188133
 H   -0.8457280593    1.9291140724    0.6040672593
 H    1.3436870654   -1.5779623485   -0.7978545790
 H    2.8533359197    0.3580596278    0.4079282791
 H    0.2550583176   -1.6145407335    1.4476898361
 H    2.3712912281    1.3083613552    3.7709715319