19

 C    0.0751246930    1.5334915144   -0.0412459487
 C   -0.0120101245    0.0384182518    0.0781557079
 C    1.1582383459   -0.8930590448   -0.2253525770
 C    0.5337001588   -0.9876776757    1.1282791314
 C    1.2623357681   -0.7089862141    2.4095913485
 O    1.9434304215   -1.8531512901    2.9067364032
 C   -0.7355281710   -1.8484689282    1.0073449152
 C   -1.2790260339   -0.7663134199    0.0391517747
 O   -2.3735279613   -0.5314023696   -0.3919641510
 H    1.0479825725    1.9051769384    0.2948343637
 H   -0.0577967213    1.8448538416   -1.0828097680
 H   -0.7037804606    2.0226219224    0.5516207567
 H    1.0542177007   -1.7034547765   -0.9424401837
 H    2.1097243358   -0.3703027409   -0.2850227358
 H    1.9507663117    0.1399376916    2.2695116421
 H    0.5547406313   -0.4284272545    3.1973311841
 H    2.5560418135   -2.1451737725    2.2232848869
 H   -0.6096109369   -2.8653998919    0.6251603784
 H   -1.3441264132   -1.8812641515    1.9161948515