16

 O    0.1973067018    1.1510423132   -0.7185127799
 C   -0.0136894326    0.0783601327    0.1870964865
 C   -1.4189824893   -0.4812505912    0.1372286564
 C   -2.0515502582   -0.9665820073    1.2805774615
 N   -3.2795995480   -1.4939044791    1.2805068662
 C   -3.9356902036   -1.5511144988    0.1263067888
 C   -3.3984167622   -1.0821038872   -1.0788653626
 O   -4.1655723236   -1.1853095290   -2.1966553973
 C   -2.1191034894   -0.5381150155   -1.0680597507
 H   -0.4018382437    1.8632536528   -0.4700510811
 H    0.7079049692   -0.6915923557   -0.1108849121
 H    0.2333812238    0.3625219554    1.2208054575
 H   -1.5453013321   -0.9265592874    2.2428197708
 H   -4.9352355717   -1.9780338974    0.1307349434
 H   -3.6778492950   -0.8378118720   -2.9511012828
 H   -1.6625371154   -0.1509094936   -1.9752146346