16

 C    0.0390016216    1.3748911238    0.0464304152
 O    0.0163476424   -0.0514787635   -0.0222510380
 C    0.6180175796   -0.5682232965   -1.1010810834
 N    1.2099871270    0.0670613906   -2.0769201661
 C    1.6620431527   -0.9330594875   -2.9338321868
 C    2.4011563046   -0.5990699056   -4.1869396136
 C    1.3248808117   -2.1612043504   -2.4432418881
 N    0.6465250271   -1.9173264391   -1.2516234468
 H    1.0679537613    1.7453507148    0.0721867486
 H   -0.4677131796    1.8126299541   -0.8185689605
 H   -0.4836952578    1.6355995840    0.9673808157
 H    3.3176298898   -0.0393117372   -3.9689798283
 H    2.6767163858   -1.5058912440   -4.7324346647
 H    1.7939529136    0.0276094847   -4.8497491321
 H    1.4920735822   -3.1611338580   -2.8065165300
 H    0.2506751980   -2.5900049201   -0.6184409211