19

 C   -0.1566115140    1.5354609444    0.0153468850
 C   -0.0012362430    0.0090278785    0.0251069666
 C   -1.3165364871   -0.5868375714   -0.1874845910
 C   -2.4283961509   -1.0061166751   -0.3759266498
 C    1.2059941648   -0.6765166056   -0.7335330217
 C    2.1665140466   -0.1240517100    0.3560437365
 C    0.9115040071   -0.6733436798    1.1083783120
 O    0.6144019756   -0.6092923468    2.4537078663
 C    1.0030589609   -1.9231124547    0.1762052475
 H    0.7859634282    2.0671903779    0.1480702220
 H   -0.6003401398    1.8585483656   -0.9309152494
 H   -0.8335126410    1.8405666426    0.8183946120
 H   -3.4048142505   -1.3918066019   -0.5350661569
 H    1.3624305044   -0.6748327257   -1.8096167782
 H    3.0870332776   -0.6963446731    0.4970572662
 H    2.3665879326    0.9454693522    0.3847707837
 H    1.2595093070   -1.1356004978    2.9383715370
 H    0.0928633696   -2.5037413554    0.0316574095
 H    1.8829560718   -2.5578155938    0.3091488227