18

 C   -0.0836958147    1.5252831127    0.0178929993
 C    0.0552553196    0.0044403022    0.0463016082
 C    0.9966388608   -0.5826498486   -1.0754273720
 C    2.0294203354   -1.3333232621   -0.2062054834
 C    1.1046086781   -2.0167463925    0.8574036369
 C    0.7809983857   -0.5501535118    1.2990655486
 C    2.2522824916   -0.3000575930    0.9159134554
 O    3.1818448143    0.2939321907    1.3756886616
 H    0.8930978970    2.0152916377    0.0964862641
 H   -0.5506207356    1.8569896512   -0.9154496428
 H   -0.7033015818    1.8832966888    0.8470181788
 H   -0.9397428537   -0.4480815037   -0.0226761230
 H    0.4681030611   -1.2588505167   -1.7528812379
 H    1.4574931938    0.2058439724   -1.6779048961
 H    2.8517441653   -1.8490805754   -0.6975738353
 H    0.2657512233   -2.5976056840    0.4656506839
 H    1.6536482605   -2.5867200799    1.6087945787
 H    0.3790647293   -0.2996526482    2.2790586247