12

 N   -0.0096133372    1.2717162858   -0.1038774533
 C   -0.0500241812   -0.0609871734   -0.0446797677
 N   -1.1610680865   -0.7357745831   -0.0412974110
 C   -1.0013771834   -2.0866866403    0.0234953802
 O   -2.1592467387   -2.7633411900    0.0257116542
 N    0.0845897015   -2.7979951380    0.0819243688
 O    1.2885416563   -2.0447525127    0.0772823726
 C    1.2980517799   -0.7076360456    0.0174091469
 O    2.3281252452   -0.0771440349    0.0137253431
 H    0.8945031864    1.7169214670   -0.1018123967
 H   -0.8608531988    1.8060797259   -0.1486423626
 H   -1.9400310235   -3.7049083307    0.0734401156