19

 C    0.0676828900    1.4804113806    0.0081542070
 C   -0.0331835812   -0.0475783928    0.0022161233
 C   -1.4778752498   -0.5183211637    0.0127372810
 O   -1.4703571286   -1.9550027522    0.0065749820
 C   -2.6779632299   -2.5302740571    0.0136359928
 N   -3.8513591339   -1.9534983501    0.0256402675
 C   -4.7556359942   -3.0054064401    0.0281474301
 C   -4.1101659686   -4.2056146984    0.0175663015
 N   -2.7563753324   -3.8884348835    0.0081152021
 H    1.1124477772    1.8031978917    0.0003570036
 H   -0.4222461747    1.9158716724   -0.8694036853
 H   -0.4066215331    1.9079619395    0.8980962090
 H    0.4667245655   -0.4571864414   -0.8831596835
 H    0.4820674116   -0.4650267215    0.8750459039
 H   -2.0142022424   -0.1660667446    0.9015568490
 H   -2.0295457129   -0.1585808519   -0.8635917814
 H   -5.8189909211   -2.8226738072    0.0374963116
 H   -4.4542276386   -5.2257132668    0.0157363924
 H   -1.9759947629   -4.5219446530   -0.0009825267