17

 C    0.0866828719    1.5116829459    0.0606058811
 C   -0.0033085118    0.0222488686   -0.0221024073
 C   -1.0742587036   -0.7748655533    0.0033591943
 C   -2.5237718746   -0.4312852125    0.1225986439
 C   -0.6246917599   -2.2093111322   -0.1127004781
 O    0.7932649669   -2.1722979509   -0.2077469034
 C    1.2379198348   -0.8229615464   -0.1569597932
 H    0.6927719880    1.8243199522    0.9206669833
 H    0.5730060949    1.9288125496   -0.8306209106
 H   -0.8955694771    1.9806292393    0.1557488457
 H   -3.0896454172   -0.7967100250   -0.7440317061
 H   -2.9707431252   -0.9029462161    1.0072109319
 H   -2.6884031156    0.6461293087    0.1991330863
 H   -0.9280778308   -2.8107690083    0.7610906491
 H   -1.0488139277   -2.7061653774   -1.0018077863
 H    1.8080278993   -0.5797928521   -1.0697031805
 H    1.9275255975   -0.6853428002    0.6932233099