21

 C    3.1009391538    0.6635502320    0.5991143301
 C    1.7973445323   -0.1326102324    0.4695636284
 C    1.5804390578   -0.6724035616   -0.9311605813
 C    2.2982237816   -1.9273659029   -1.4740138885
 C    3.1750302772   -2.7682149535   -0.6390304150
 O    4.1145355574   -3.3983547815   -1.0688150142
 C    0.7659234318   -1.8672416874   -1.2645392437
 C    0.0745732891   -2.7229356482   -0.2267157941
 O    0.0233614984   -1.7148449704   -2.4426365083
 H    3.9725064399    0.0345910072    0.3904643167
 H    3.1227790101    1.5017527096   -0.1054538184
 H    3.2131621537    1.0711281763    1.6081512016
 H    1.7880244777   -0.9395411087    1.2090166664
 H    0.9463864204    0.5134536224    0.7206281676
 H    1.5129002098    0.1033900368   -1.6900368791
 H    2.6082828210   -1.8805994007   -2.5125061412
 H    2.9248196136   -2.8063265077    0.4446679728
 H    0.6362803569   -2.7962065651    0.7062472448
 H   -0.9115912045   -2.3032040733   -0.0049979232
 H   -0.0681086874   -3.7424983832   -0.6042136694
 H   -0.1120256606   -2.5891627379   -2.8263438719