18

 C    0.0467634124    1.4370250675   -0.2063116515
 C    0.0279732640   -0.0364314661    0.2320759664
 O    0.5126733283   -0.1693176610    1.5504284128
 C   -1.3575661830   -0.6225932467    0.1522785345
 N   -2.1173139313   -0.8068823806    1.2212690221
 C   -3.2646292202   -1.3163548536    0.6996234852
 N   -3.2637093419   -1.4588604982   -0.6129758742
 N   -2.0244953377   -1.0105264429   -0.9547968276
 C   -1.6239503942   -0.9829277462   -2.3464864179
 H    1.0568407026    1.8345593244   -0.0792695684
 H   -0.2445355810    1.5528847533   -1.2558990030
 H   -0.6392993099    2.0209906674    0.4137456384
 H    0.6981946516   -0.6070914795   -0.4283175642
 H   -0.2616101294   -0.3218446058    2.1120173434
 H   -4.1171095491   -1.5944256625    1.3009262625
 H   -2.0075266260   -0.0893968199   -2.8484276589
 H   -0.5346563081   -0.9919846447   -2.4125324169
 H   -2.0255845272   -1.8684172649   -2.8403825728