17

 O   -0.1934736606    1.4115638086   -0.1335305394
 C   -0.0699862753    0.0214058819   -0.0414373719
 C   -0.5027750842   -0.6856320323    1.2254116160
 C   -1.3551180248   -0.7367924343   -0.0130751472
 C   -2.7809894593   -0.1992965429   -0.1570517885
 N   -3.2195745782   -1.4520440557   -0.8825073367
 C   -2.3803113080   -1.5318751243   -2.0918784351
 C   -1.7826378923   -1.9472511203   -0.8058737467
 H    0.4972225584    1.8100897280    0.4064079692
 H    0.7643764236   -0.4084013268   -0.5976822364
 H    0.0369708037   -1.5787118840    1.5261050624
 H   -0.8571021365   -0.0664182651    2.0442918012
 H   -3.3206043460   -0.1096860797    0.7885439759
 H   -2.9088400392    0.7185356544   -0.7393315000
 H   -2.7025116262   -2.3111290993   -2.7762273887
 H   -2.0454432401   -0.6121421607   -2.5680636215
 H   -1.5477815450   -2.9795479074   -0.5639617327