18

 N    0.1311574547    1.2471135375   -0.1503772399
 C    0.0849704730   -0.0982851431   -0.0044957966
 O    1.0762239156   -0.7914896064    0.1568867060
 C   -1.3073897753   -0.7523584233   -0.0185022466
 O   -1.1378830595   -2.1399833433   -0.1178992376
 C   -2.0968484066   -0.3816494589    1.2546340398
 C   -3.4606463782   -1.0886293272    1.2967093265
 C   -4.1477702574   -0.8999791752    2.6273559441
 O   -5.2401371716   -0.4174684309    2.7818066873
 H    1.0298489043    1.7014667508   -0.1680860901
 H   -0.6870251532    1.7875594434   -0.3707066259
 H   -1.8629227713   -0.3919793486   -0.8989541318
 H   -0.1859226340   -2.2803897034    0.0316236913
 H   -1.4966485313   -0.6761904315    2.1248056818
 H   -2.2328698819    0.7051933232    1.3095468536
 H   -4.1250257857   -0.7333308465    0.5031602328
 H   -3.2837859032   -2.1620607712    1.1498347294
 H   -3.5480288085   -1.2478586054    3.5022054463