20

 C   -0.5649306650    1.3838420642   -0.0078438096
 C    0.0464944475   -0.0098677252   -0.0573082713
 C    1.3517773287   -0.2205642710   -0.8948375973
 C    2.0469927078   -0.8135597585    0.3493494975
 O    2.7707164754    0.1802591667    1.1036005113
 C    1.6464832641    0.3975196906    1.9860614482
 C    0.7620150137   -0.5996102295    1.2082517576
 C    0.0365140568   -1.6673098686    1.9958139203
 H    0.1795770176    2.1477144773    0.2386309483
 H   -0.9924864809    1.6500363352   -0.9807395847
 H   -1.3692965703    1.4450294048    0.7343188501
 H   -0.7235216655   -0.7201278122   -0.3780990463
 H    1.2399780654   -0.9122184101   -1.7341328484
 H    1.8367639012    0.6928546336   -1.2489238715
 H    2.5993048249   -1.7537083181    0.2579144258
 H    1.8770875715    0.0755178613    3.0110254064
 H    1.3316648694    1.4474944203    2.0130754233
 H   -0.8175205542   -1.2433920803    2.5390553827
 H   -0.3516578515   -2.4531564940    1.3385097078
 H    0.6951371734   -2.1406171265    2.7323224299