19

 C   -0.2739110607    1.6218377125    0.0231858499
 C   -0.0132054108    0.1176856465    0.0719928145
 O    1.1697072042   -0.2293318662   -0.7030270804
 C    1.7636186340   -0.9381865083    0.4073900256
 C    0.6309425416   -0.5109877607    1.3573126006
 C    1.0288536796    0.4161332753    2.4900979454
 O    1.7339117327   -0.3820442347    3.4307294851
 C   -1.1892262297   -0.6201677442   -0.3913812201
 C   -2.1609752727   -1.2239517424   -0.7609086484
 H    0.6096806384    2.1788966098    0.3418296056
 H   -0.5094130869    1.9105652433   -1.0046582583
 H   -1.1234099954    1.8920017385    0.6573000689
 H    1.8327013120   -2.0147332416    0.2144029861
 H    2.7598080586   -0.5526856080    0.6524601192
 H    0.0506497992   -1.3381481738    1.7679488824
 H    1.6631047871    1.2329505164    2.1137586053
 H    0.1325050136    0.8713047331    2.9407065923
 H    2.0568226023    0.1913043586    4.1320049417
 H   -3.0141913172   -1.7612018840   -1.0948393154