19

 C   -0.1886716179    1.3348833476    0.0689522213
 O    0.3441542779    0.0450761547   -0.1337095263
 C    0.7981032115   -0.5643047427    1.0484480548
 C   -0.2641274382   -1.1732976316    2.0446155047
 C    0.3875641875   -2.5336061942    1.8453601866
 O    0.5134923258   -3.3964530810    2.9153632233
 C    0.3208737225   -2.9272268978    0.3928747977
 C    1.3924482305   -1.9473166228    0.8522322003
 O    2.7425674077   -2.2143713455    0.7169671590
 H    0.5547809075    2.0161811524    0.5118872259
 H   -0.4847582005    1.7232990924   -0.9086037998
 H   -1.0721156454    1.3181751403    0.7247128501
 H    1.4982869244    0.0960910577    1.5807158382
 H   -0.1512442315   -0.7966702789    3.0631829986
 H   -1.3093638366   -1.0940370711    1.7312065384
 H    1.0981665942   -4.1186183000    2.6609519489
 H    0.7333920459   -3.9120223200    0.1862611552
 H   -0.4944622930   -2.6264400970   -0.2610895021
 H    2.9641827778   -2.1887310324   -0.2210260249