19

 C    0.3583477647    1.6539086647    0.3742310463
 C    1.3619704613    0.6407033792   -0.1113242078
 O    2.2243466429    0.0466356979    0.8202087863
 C    1.4612954700   -0.6953907190    1.7849381255
 C    1.3733094237   -0.0386980475    3.1402604904
 C    0.1140471803    0.1184358665    3.5433327347
 C   -0.8915735536   -0.3736638242    2.5319281673
 C   -0.0262550063   -0.7588247335    1.3000597911
 C   -0.0545293920    0.2096569824    0.1246492331
 H    0.4451790780    2.0106741964    1.3938670620
 H    0.0068162591    2.3924880489   -0.3389830498
 H    1.8135632787    0.7263788219   -1.0936105716
 H    1.9397563727   -1.6808875898    1.8553998603
 H    2.2607670615    0.2334098450    3.6999544393
 H   -0.1875128095    0.5448072616    4.4947907630
 H   -1.4495640862   -1.2364654801    2.9177584290
 H   -1.6385669839    0.3914512172    2.2874933235
 H   -0.2820774630   -1.7576968776    0.9387157189
 H   -0.7290650384   -0.0003132400   -0.6973212214