17

 C   -0.1277030146   -1.2462792571   -0.1002618324
 C   -0.0649828648   -0.0469352106   -0.0479950543
 C    0.0123198136    1.4079676114    0.0248495352
 C   -0.5938253054    2.0126027146    1.3296864347
 C    0.2559476808    3.2670279328    1.6255501033
 C    1.5623747814    2.9790558623    0.8980970509
 C    1.4251979768    1.9634240935    0.0343078062
 C    2.7289364267    3.7515992012    1.1116709598
 C    3.6970272574    4.4351014659    1.3307198391
 H   -0.1826532313   -2.3054927317   -0.1484119950
 H   -0.5169299887    1.8163537381   -0.8513425650
 H   -1.6601586560    2.2249107285    1.2285649431
 H   -0.4732013731    1.2841360662    2.1356089490
 H   -0.2010519780    4.1809480672    1.2239657922
 H    0.4049931489    3.4354764597    2.6961236618
 H    2.1997735491    1.5888530860   -0.6224853648
 H    4.5586913072    5.0288507521    1.5101284062