18

 C   -0.1835172826    1.5387986569   -0.0356867538
 C   -0.0153546901    0.0383594913    0.0336307199
 C    1.3199007085   -0.6044669354   -0.2566342593
 C    0.7661691604   -0.6190997213    1.1454419804
 N    1.3937922767    0.1829541304    2.1520647185
 C    2.7058776178    0.4048145573    2.3881820683
 N    2.8676610927    1.1482520509    3.4665116494
 C    1.5843117824    1.3526125840    3.8730333195
 N    0.6548125125    0.7906818272    3.1186489382
 H    0.7280949697    2.0592861316    0.2700926912
 H   -0.4202473666    1.8501541602   -1.0582416227
 H   -0.9908778109    1.8730043464    0.6223590086
 H   -0.8883897668   -0.5288936124   -0.2766917426
 H    1.3619981792   -1.5468076540   -0.7902925039
 H    2.1502406132    0.0632658676   -0.4596522657
 H    0.3872100809   -1.5592056419    1.5331275450
 H    3.4865734073    0.0097489348    1.7567729250
 H    1.3280597357    1.9333884863    4.7467832542