20

 C    0.3721430646    1.2490980505    0.1156335039
 O    0.0302297512   -0.1238621070   -0.0289373780
 C    0.6701249805   -0.7798466310   -1.0146565241
 N    0.4635190356   -2.0069829718   -1.2062904510
 C    1.2315377958   -2.6423098660   -2.2567372636
 C    2.3850369093   -3.4373320109   -1.6601776905
 C    3.3879589318   -4.0789269465   -2.6437595557
 C    4.4277923370   -3.1847515246   -1.9408683722
 O    3.4140936288   -2.5702899215   -1.1183789615
 H    1.4253962679    1.3719172986    0.3949269594
 H    0.1736810983    1.8128922864   -0.8042539857
 H   -0.2576878726    1.6400280682    0.9155789847
 H    1.3527910899   -0.1566860695   -1.6120676413
 H    0.5807901798   -3.3361722187   -2.8052971452
 H    1.6473010000   -1.9253320522   -2.9856276274
 H    2.0010361927   -4.1135608150   -0.8863546478
 H    3.5330898293   -5.1554377348   -2.5461293448
 H    3.2058996855   -3.8345142489   -3.6929378212
 H    5.1708347363   -3.7215066143   -1.3374362345
 H    4.9482514982   -2.4520587110   -2.5694152037