17

 C    0.0302812439    1.4732844053    0.1217139376
 C   -0.0223610852    0.0228115599    0.0291005075
 C   -0.0756681781   -1.1786874199   -0.0373544644
 C   -0.0753833239   -2.6057255857   -0.1431359498
 C    0.9394043906   -3.3200738195   -1.0268620349
 O    0.4615763384   -4.6496350636   -1.1715742437
 C   -0.9487186952   -4.6749121735   -0.9854106462
 C   -1.2607466701   -3.4833428520   -0.1080768648
 O   -0.4033976388   -3.3871819053    1.0268682555
 H    0.9760358893    1.8610753509   -0.2719587150
 H   -0.7840199737    1.9397585411   -0.4434688240
 H   -0.0559605462    1.8014891671    1.1632223849
 H    1.0047494177   -2.7962074571   -1.9931834170
 H    1.9370821893   -3.3661586388   -0.5801068164
 H   -1.4936294648   -4.5816564779   -1.9393592370
 H   -1.2067433220   -5.6346917281   -0.5262616374
 H   -2.2738342313   -3.1087613629    0.0083484852