11

 C    0.1896141462   -1.1133263946   -0.0058338724
 C    0.0536862285    0.0810617251    0.0022723879
 C   -0.1057870343    1.4800966643    0.0117740385
 N   -1.2170269138    2.1691318110    0.0314082789
 C   -0.8146401907    3.4791624192    0.0324110726
 C    0.5508501940    3.5317120277    0.0131033262
 O    1.0171781987    2.2465407169   -0.0002527557
 C    1.4765919061    4.5933113861    0.0053684272
 N    2.2159609513    5.4848989247   -0.0005814116
 H    0.3059673333   -2.1697657282   -0.0129557034
 H   -1.5140193493    4.2996067080    0.0467265517