17

 C    0.0004855645    1.5677449768   -0.0095714322
 N    1.2327024803    0.7333382753    0.0548615576
 C   -0.0643147975    0.0988361781    0.0084213231
 C   -0.5390808857   -0.9811569181    0.9843029706
 C   -2.0720737756   -0.9576209554    0.8091470709
 C   -2.0968804036   -0.9373617528   -0.7580697770
 C   -0.5690453846   -0.9559952513   -0.9805647384
 O   -0.1356854258   -1.9718555967   -0.0206462268
 H   -0.2003290307    2.1472788992    0.8876297763
 H   -0.2335286102    2.0806747760   -0.9399309645
 H    1.6867537598    0.7009913579   -0.8551372672
 H   -0.0985375128   -1.1319682255    1.9684695966
 H   -2.5353046945   -1.8535967246    1.2264538845
 H   -2.5366685214   -0.0771427897    1.2608654430
 H   -2.5698790711   -1.8245518860   -1.1837548491
 H   -2.5772374549   -0.0476544472   -1.1737733428
 H   -0.1700989061   -1.0847745958   -1.9876624246