18

 O   -0.1431993143    1.3903094888    0.0101975053
 C   -0.0178329664   -0.0203325537    0.0079945595
 C    0.6723927473   -0.5420778805   -1.2570058610
 C   -0.0622128123   -0.1065852088   -2.5400959238
 C    0.6210933577   -0.5389963195   -3.7518871571
 C    1.2073040778   -0.9072130042   -4.7344095043
 C    0.7101300115   -0.5254105774    1.2755431841
 C    0.0663579057   -0.0878855082    2.5114855403
 N   -0.4445888376    0.2468668609    3.4918465908
 H    0.7400383254    1.7771579281   -0.0153295913
 H   -1.0504360277   -0.3872765855    0.0370083527
 H    1.7061501507   -0.1719645987   -1.2873281629
 H    0.7343468597   -1.6355102302   -1.2220794908
 H   -1.0832402102   -0.5100221853   -2.5283818443
 H   -0.1689966125    0.9837501633   -2.5336503720
 H    1.7121576890   -1.2253143967   -5.6126615875
 H    0.7556718290   -1.6202732563    1.2692242494
 H    1.7478995772   -0.1674723261    1.2712361330