22

 C    0.1184852773    1.6026676778    0.1286810189
 C   -0.2348044464    0.1365327241   -0.1481918495
 C    0.6075046638   -0.5149851168   -1.2424509611
 C    0.5201030741    0.1764812134   -2.5926572519
 O    2.0269021661   -0.5798690167   -0.8016509530
 C    2.0050783058   -1.9540812793   -0.7758339422
 N    2.8793722552   -2.7793312258   -0.4138182553
 C    0.5913166526   -2.0791538164   -1.3021043779
 C   -0.3955980432   -2.9162389800   -0.4987783929
 H    1.1871639462    1.7062502688    0.3376495479
 H   -0.1285572873    2.2535186378   -0.7149236624
 H   -0.4339086997    1.9691020421    0.9986645217
 H   -0.1050190867   -0.4374771912    0.7747150521
 H   -1.2926471621    0.0467258399   -0.4262234690
 H    0.8479371513    1.2170445198   -2.5291910463
 H    1.1523168706   -0.3326679128   -3.3252605334
 H   -0.5120802503    0.1640418290   -2.9593520002
 H    3.7270955408   -2.3043973228   -0.0978828565
 H    0.5968621634   -2.4213557383   -2.3421640905
 H   -0.4147261554   -2.6360513461    0.5570707791
 H   -1.4104632791   -2.8256858365   -0.8989274657
 H   -0.1029945070   -3.9685765100   -0.5524670720