23

 C   -0.1486533004    1.6941274999    0.0092915051
 C   -0.0272837021    0.1697244897    0.0512238985
 O    0.5588795467   -0.2697877493    1.2772465377
 C   -1.3734291014   -0.5202169936   -0.1701761367
 C   -2.1255316547   -0.4478430917   -1.5434283274
 C   -2.2968795834   -1.9750585782   -1.5089941171
 C   -0.9716953216   -2.6835898612   -1.4963143356
 C    0.2445671838   -2.3195364237   -2.3251489663
 C   -1.4616685136   -2.0518900465   -0.2166892740
 H    0.8220704283    2.1592437822    0.2014299773
 H   -0.5135876557    2.0394780326   -0.9636916210
 H   -0.8542116728    2.0471515870    0.7727069818
 H    0.6864040512   -0.1508511380   -0.7133076154
 H   -0.0279745715    0.0024838119    1.9919345365
 H   -2.0560905963   -0.1569237017    0.6110361327
 H   -3.0686103023    0.0981399940   -1.4788300156
 H   -1.5606281163   -0.0475252706   -2.3923921848
 H   -3.2203787801   -2.4880271989   -1.7509287009
 H   -1.1134691907   -3.7626909769   -1.4409013007
 H    0.2966940861   -1.2550393680   -2.5630488453
 H    1.1718538292   -2.5913986480   -1.8094036057
 H    0.2238191092   -2.8598180602   -3.2784570487
 H   -1.6339771215   -2.6669925008    0.6590551757