22

 C   -0.3083162820    1.3768085425   -0.0753172390
 N    0.0936900581   -0.0121685260   -0.0145576805
 C    0.8724955684   -0.4678506342   -1.1639349183
 C    1.2845226128   -1.8875414076   -0.7722724887
 C    1.3610007382   -1.8222560262    0.7507460134
 O    1.8324607695   -2.6533616342    1.4823381288
 C    0.7478007182   -0.4856338351    1.2169809897
 C    1.9145425235    0.4016491751    1.7189562663
 C   -0.2614096667   -0.7264056529    2.3436606316
 H    0.5369073514    2.0868842160   -0.1273786479
 H   -0.9260752785    1.5347208375   -0.9663835475
 H   -0.9153247778    1.6348070814    0.7974514316
 H    0.2582086415   -0.4277937446   -2.0694538272
 H    1.7669717865    0.1571105536   -1.3520185767
 H    0.5089332444   -2.6151277376   -1.0374683007
 H    2.2270681328   -2.2334517015   -1.2012510249
 H    2.6435376408    0.6069294192    0.9280442117
 H    1.5400940449    1.3595919411    2.0919786683
 H    2.4366487771   -0.1054942127    2.5345811150
 H    0.2177198121   -1.2862833648    3.1513586741
 H   -0.6327065912    0.2183285285    2.7537412818
 H   -1.1151272640   -1.3003092374    1.9740279991