18

 C   -0.0663674925    1.3146667632   -0.1502572973
 C    0.0797858197   -0.1870220020    0.1451443351
 C    0.7641931696   -0.4218555396    1.4943754784
 N   -1.2271781913   -0.8373798095    0.1665609003
 C   -1.7093103494   -1.2667930458   -0.9254266978
 N   -1.2694505355   -1.2866806800   -2.2473904334
 N   -2.1566201249   -1.9158221716   -3.0774443800
 N   -3.1476247132   -2.2819028638   -2.3822738613
 N   -2.9310851626   -1.9035014192   -1.0970252384
 H    0.9082336457    1.8143304030   -0.1437732214
 H   -0.5304914101    1.4872107977   -1.1272346820
 H   -0.7015549037    1.7840963297    0.6074556887
 H    0.7310503491   -0.6269817887   -0.6344757640
 H    0.1570661004    0.0024478218    2.3003863143
 H    0.8768772472   -1.4923086523    1.6873327399
 H    1.7548672039    0.0436280740    1.5207583200
 H   -0.4044212890   -0.9411230352   -2.6204609504
 H   -3.5928402636   -2.1319694813   -0.3762518307