17

 O   -0.2293363967    1.4030627120    0.0118143377
 C   -0.1079449610    0.0163079027    0.0651269634
 C   -0.6676439907   -0.7457978531    1.2289090020
 C   -1.3840028823   -0.7925768007   -0.1272354163
 C   -2.7067378812   -0.0362759598   -0.2579928897
 C   -3.8366476897   -0.7630480702    0.4428512775
 O   -4.5781002132   -0.2525809168    1.2430124195
 C   -1.2797750473   -2.0050166143   -0.8939181570
 C   -1.2046345468   -3.0143481000   -1.5446630724
 H    0.3046162367    1.7792157734    0.7194407520
 H    0.7774888062   -0.3876534758   -0.4231405386
 H   -0.1570378746   -1.6390362786    1.5680972491
 H   -1.1653374817   -0.1696095914    2.0022857542
 H   -2.6159158143    0.9702173367    0.1517057783
 H   -2.9619010798    0.0478460018   -1.3227186051
 H   -3.9393408935   -1.8360576616    0.1658858834
 H   -1.1357392900   -3.9056509844   -2.1176908880