17

 C   -0.0753287685    1.4999817972   -0.1435592042
 O    1.2860029843    1.5391253469    0.3560396751
 C    1.3588941704    0.1037578791    0.4367416519
 C   -0.0731105773   -0.0232169090   -0.0856189768
 C   -1.0649138647   -1.0307934248    0.4062965797
 C   -2.4896669329   -0.7635354951   -0.1705366440
 O   -2.4530431539    0.4246333736   -0.9783393813
 C   -1.9864338174   -0.8144766062   -1.5374039592
 C   -0.5343618323   -1.0847899876   -1.0349113161
 H   -0.7766123670    2.0002436594    0.5323282285
 H   -0.1596942856    1.9374029630   -1.1437702865
 H    2.1420709030   -0.3102411017   -0.2128989232
 H    1.5246060695   -0.2472856061    1.4644108831
 H   -0.8603247479   -1.7054270485    1.2283058413
 H   -3.4398339332   -1.0459943196    0.2655182372
 H   -2.4344618141   -1.1477785603   -2.4652657971
 H    0.1373880177   -1.8069888403   -1.4819771787