19

 C   -0.1188577840    1.6101178580   -0.1300185708
 C   -0.0172645521    0.1044646468    0.0339323056
 O    1.0030584971   -0.4447362062   -0.8905722493
 C    1.9259457001   -0.6779718052    0.2167271028
 C    0.7671079096   -0.4956853911    1.1605837199
 C    0.0176095040   -1.0888683415    2.0835516774
 C   -1.4479939761   -0.8427040353    1.7357742906
 C   -1.3740083928   -0.6177965464    0.1818998542
 O   -2.4408592961    0.1213363103   -0.3729335341
 H    0.8647625642    2.0767006157   -0.0313289340
 H   -0.5237730602    1.8441113520   -1.1183406255
 H   -0.7925542150    2.0402931999    0.6163202902
 H    2.3892457488   -1.6697192961    0.1840843924
 H    2.7096301557    0.0901626809    0.2468679807
 H    0.3442974967   -1.7608621222    2.8684428401
 H   -2.0832991194   -1.6952262026    2.0004606873
 H   -1.8792470523    0.0426978782    2.2208558151
 H   -1.2711668195   -1.5997199055   -0.3022487795
 H   -3.2366233089   -0.4171972197   -0.3341868230