18

 N   -0.2042795434    1.2570488285   -0.2186902358
 C    0.0344670654   -0.0737127317   -0.0121383129
 O    1.1067118861   -0.5598868741    0.2564771226
 O   -1.1240287567   -0.7736501078   -0.1219318895
 C   -1.0128427953   -2.1883272839    0.1416634210
 C   -2.4085079439   -2.7411306517    0.0845811399
 O   -3.2668548722   -2.2030888850    1.0523601017
 C   -3.0047572729   -3.1490601930   -1.2422740590
 C   -2.6179805378   -4.1916037606   -0.2105966844
 H    0.6079413233    1.8298365289   -0.3719912730
 H   -1.0613625328    1.5305899026   -0.6685611242
 H   -0.3578932507   -2.6510565992   -0.6022925756
 H   -0.5704286410   -2.3312312512    1.1316088380
 H   -3.2687912831   -1.2483046298    0.9162032360
 H   -4.0624053822   -2.9540849334   -1.3753365513
 H   -2.4024446982   -3.0581250939   -2.1397842462
 H   -1.7527811703   -4.8177802653   -0.3992768208
 H   -3.4194619742   -4.6737366993    0.3366092835