15

 N    0.0062852739    1.3899707084   -0.0493719769
 C    0.0376175128    0.0011690256   -0.0140300677
 N   -1.0573848175   -0.7133527750   -0.2543373471
 N   -0.6645248775   -2.0068481510   -0.0773042113
 C   -1.6551115747   -3.0507120060   -0.1382392643
 C   -2.3094212036   -3.3191876818    1.1546954951
 N   -2.8159765157   -3.5491341439    2.1665704833
 C    0.6408954253   -2.1046639168    0.2762473966
 C    1.1428380117   -0.8259246250    0.3224125578
 H    0.8480520469    1.8101969468   -0.4169339441
 H   -0.8152737713    1.7434300283   -0.5215166366
 H   -2.4136614952   -2.7513180535   -0.8662376777
 H   -1.1890015215   -3.9749458019   -0.4937814378
 H    1.1037552075   -3.0609064297    0.4654727244
 H    2.1505339490   -0.5261403446    0.5593231862