23

 C   -0.2561855013    1.6200293866    1.5111482939
 C   -0.3518754387    0.1248001472    1.7656346173
 O    0.7207871592   -0.5068532520    1.0795048454
 C    0.8709251772   -1.8788054094    1.3417878191
 C   -0.1898979127   -2.7777822406    0.7369847610
 C   -0.2762798414   -2.6449341357   -0.7800027126
 O   -1.3057254109   -3.5148752157   -1.2303388097
 C    2.3024284292   -2.3280872937    1.3584721636
 C    1.5181482410   -2.2506553907    2.6540789252
 H   -0.3182923504    1.8322960406    0.4398857344
 H   -1.0718963699    2.1458998239    2.0164376200
 H    0.6948800838    2.0131493935    1.8817170182
 H   -0.2895544750   -0.0923789105    2.8427152993
 H   -1.3201860381   -0.2595402838    1.4114541382
 H    0.0315488840   -3.8198459835    0.9914753249
 H   -1.1758992143   -2.5591928396    1.1641740658
 H   -0.4858016310   -1.5987175795   -1.0460086471
 H    0.6950572612   -2.9064005221   -1.2292511934
 H   -1.3852954443   -3.4147571987   -2.1832081920
 H    2.5413389129   -3.3053237579    0.9530364444
 H    3.0515290907   -1.5642545328    1.1862753783
 H    1.7655353918   -1.4391501684    3.3291829328
 H    1.2219825568   -3.1733596571    3.1414052230