15

 O   -0.2182725731    0.1373294597    0.1993931186
 C   -0.0358114687    1.2982598092   -0.0418489270
 C    1.3596772417    1.9469270695   -0.0768964817
 C    1.4806348742    2.7784862394   -1.2667231899
 C    1.5189600820    3.4760579694   -2.2458430018
 C    1.5529701814    2.7313606183    1.2308598837
 C    2.5213695039    3.8477061030    1.3281006625
 N    1.0707746066    4.1089851186    1.3799732069
 H   -0.8719672432    2.0044430333   -0.2314608050
 H    2.0840317120    1.1241598160   -0.1016564442
 H    1.5748139861    4.0748481972   -3.1218948910
 H    1.3858457689    2.1095246345    2.1076037337
 H    3.0539526992    4.0154911886    2.2594437073
 H    3.0618271074    4.1264584629    0.4281585888
 H    0.7717115816    4.4628345703    0.4723760390