19

 C    0.1069778021    1.3682340049    0.0979833434
 O   -0.0497888579   -0.0293475933   -0.0245694738
 C   -1.3746777362   -0.5611224460    0.0068313301
 C   -2.1537072724   -0.1236107555    1.2548170774
 C   -2.1396959803   -0.2040330773   -1.2773267955
 C   -1.1288277147   -2.0909425615    0.0209466752
 C   -0.4332607622   -2.5551672111    1.2191750026
 N    0.0988273836   -2.9341026691    2.1721934535
 H    1.1749194401    1.5653891777   -0.0211731367
 H   -0.4354448905    1.9265900295   -0.6778257422
 H   -0.2057546175    1.7418206916    1.0817414092
 H   -2.3823873954    0.9448931605    1.2253655625
 H   -3.1055744344   -0.6603088710    1.3139402195
 H   -1.5821595489   -0.3353735127    2.1621127349
 H   -1.5651917562   -0.5008942015   -2.1596030325
 H   -3.1108186457   -0.7076617319   -1.3059088010
 H   -2.3283617891    0.8710743478   -1.3364935722
 H   -2.0816134310   -2.6237431870   -0.0615618353
 H   -0.5252249334   -2.3512482243   -0.8543641493