21

 O    0.0158213307    1.5594331648    0.0041107182
 C    0.0786074164    0.1390466072    0.0280119673
 C   -1.3098515566   -0.4985451682   -0.0752905960
 C   -1.3183157745   -2.0320382263   -0.0511550998
 O   -0.6716836574   -2.3921336707    1.1844663440
 C   -2.7611628227   -2.6178581186   -0.1435494369
 C   -2.6901530951   -3.8371087184   -1.0968079589
 C   -1.3377818064   -3.6872523248   -1.7490579217
 C   -0.6158139170   -2.7026627930   -1.2162712681
 H   -0.4416175047    1.8424607472    0.8022132030
 H    0.6915441170   -0.1357934342   -0.8369142027
 H    0.5910602681   -0.2306518843    0.9248909461
 H   -1.9209552693   -0.1482828879    0.7686411081
 H   -1.7965841348   -0.1490861566   -0.9918475719
 H   -0.4930474492   -3.3378497020    1.1495012283
 H   -3.1200511131   -2.8689772996    0.8572572836
 H   -3.4394474707   -1.8643691132   -0.5541075509
 H   -2.7673464797   -4.7970074927   -0.5686062076
 H   -3.5038698809   -3.8352390709   -1.8310537057
 H   -1.0070227600   -4.3353711745   -2.5543079272
 H    0.3925708799   -2.4337999034   -1.5095978613