17

 C    0.0347684405    1.5960649290   -0.0114257158
 C    0.0987279435    0.0855035660   -0.0245298386
 C    0.6826524041   -0.7482033598   -1.1220166866
 C    0.0547335425   -1.8045746224   -1.9638917840
 O    1.8182621514   -0.0181294477   -1.6947013923
 C    2.5265105886   -0.1378779893   -0.5023237342
 O    3.6581791786    0.1563514338   -0.2992539765
 C    1.3620513938   -0.7692213825    0.2309391471
 O    1.4329857440   -1.7741221012    1.1619023593
 H    0.8684726981    2.0328715704   -0.5649763143
 H   -0.8937669989    1.9416241343   -0.4778083073
 H    0.0577636064    1.9822796915    1.0125277196
 H   -0.7489344273   -0.4165656724    0.4432374613
 H   -0.4878556139   -1.3631002498   -2.8061503552
 H    0.8155415814   -2.4828729232   -2.3604816727
 H   -0.6535526785   -2.3843603923   -1.3656677199
 H    1.4360893757   -1.3835448446    2.0430372103