16

 O   -0.0285129060    1.3977463560    0.1049091763
 C    0.0329132820   -0.0028220448   -0.0300130999
 C    0.7790762613   -0.6904994155    1.1311534823
 N    0.2322234916   -0.3094806457    2.4466182799
 C   -0.1504646920   -1.6032849511    1.8434587294
 C   -1.4801264523   -1.5907909368    1.1075912034
 N   -2.1757533574   -0.2868820495    1.1140672749
 C   -1.3570207760   -0.6703603462   -0.0509604876
 H   -0.4906471147    1.5402968513    0.9431198720
 H    0.5525028270   -0.2042224789   -0.9723641301
 H    1.8428880952   -0.8848586796    1.0390314138
 H    0.9369284842   -0.4673183674    3.1630097237
 H    0.1805958468   -2.5248054055    2.3101754282
 H   -2.0645305565   -2.5037514956    1.0675712504
 H   -3.1591677084   -0.4288387370    0.8961576244
 H   -1.8466226448   -0.8501016036   -1.0027705112