19

 C    0.0175759557    1.5751622259   -0.1881259402
 C    0.0244036477    0.0547162531    0.0025884098
 N    0.6131002036   -0.5796519566   -1.1953118639
 C    1.7069417601   -1.1699948247   -0.8774050065
 N    2.5837683581   -1.7776263127   -1.7157546092
 C    2.0254756200   -1.1304132376    0.5918076519
 O    3.0204138018   -1.5784497344    1.1102087278
 C    0.8225960350   -0.4612998555    1.2380738433
 C    1.2014628889    0.5089807360    2.3584319385
 H    1.0360405943    1.9694247361   -0.2657961573
 H   -0.5056601345    1.8213101917   -1.1156468217
 H   -0.4879334854    2.0794188660    0.6410348713
 H   -1.0197905707   -0.2748900885    0.0681889630
 H    2.2958213923   -1.9852810293   -2.6571304885
 H    3.2803025068   -2.3670574566   -1.2889702890
 H    0.2496969965   -1.2875725495    1.6839083558
 H    1.7572606315    1.3700934684    1.9783686657
 H    0.3142735158    0.8800947640    2.8789807168
 H    1.8388173425   -0.0039698156    3.0843056826