21

 C   -0.0609227118    1.5328959638   -0.0878137398
 C    0.0560312110    0.0221459955    0.0165110428
 O    0.7056518611   -0.4548090874   -1.1628320563
 C    0.7683759568   -1.8537156236   -1.2026100768
 O    1.5040620557   -2.3915725756   -0.1344623402
 C    0.9099494393   -2.0338022078    1.1043872889
 C    0.8147774815   -0.5004587503    1.2616780412
 C    2.2026482849    0.1198039981    1.4189100801
 O   -0.0253452719   -0.1994578875    2.3747872448
 H    0.9162476144    1.9913531518   -0.2603033586
 H   -0.7104869615    1.7991994249   -0.9257526079
 H   -0.4878400650    1.9360564066    0.8332902230
 H   -0.9567184818   -0.4127990013    0.0715685241
 H   -0.2555559245   -2.2752376710   -1.1979105218
 H    1.2892514152   -2.1279797644   -2.1220117536
 H   -0.1055141482   -2.4536007318    1.1856447101
 H    1.5299329959   -2.4733396024    1.8927514100
 H    2.8097690970   -0.0729240926    0.5319156784
 H    2.1361361930    1.1986934346    1.5780209387
 H    2.7189354591   -0.3215313865    2.2804989418
 H    0.4869663898   -0.3282355930    3.1797464210