20

 O    0.1811764054    1.1277486300   -0.3800018683
 C    0.1816242262   -0.2956514740   -0.3590896091
 C   -1.2679717488   -0.7289456737   -0.2155121167
 C   -1.5489688429   -2.2238534978    0.1133580835
 C   -1.2231724612   -1.8545836154    1.6083275674
 C   -1.9379212763   -0.5378718249    1.1786573644
 N   -3.3455607052   -1.0615507311    1.0849818593
 C   -3.9304073056   -1.1573675874   -0.2645070967
 C   -3.0806622327   -2.2666529809    0.2399316437
 H    1.0862660096    1.4266714037   -0.5074842305
 H    0.5805961840   -0.7036205032   -1.3026867963
 H    0.8196873537   -0.6734877906    0.4506263083
 H   -1.7867338107   -0.3021182122   -1.0745719686
 H   -1.0602397020   -3.0433069082   -0.4149588670
 H   -1.7248634866   -2.4350760146    2.3855438476
 H   -0.1622408479   -1.7546285656    1.8334462197
 H   -1.8720675955    0.3946381265    1.7360309488
 H   -5.0072822821   -1.3034268610   -0.2363437674
 H   -3.6063850974   -0.5059433557   -1.0669489841
 H   -3.5371563242   -3.2022925942    0.5540781019