16

 N   -0.1481857552    1.2298817706   -0.4045364093
 C   -0.0418894628    0.0128560021   -0.1055821541
 N   -1.1612411932   -0.7913501093    0.2721791047
 C   -1.4278098519   -1.8650819853   -0.7174233759
 C   -0.6585387426   -2.1567964287    0.5120531843
 C    0.8587752212   -2.1478071161    0.4376673367
 N    1.1341839230   -0.8043704892   -0.0735902688
 C    2.3912141446   -0.3913022652   -0.4342675693
 O    2.6845915076    0.7186092945   -0.8203047604
 H    0.7659950297    1.6142233573   -0.6427975095
 H   -2.4701247479   -2.1569505454   -0.7870507603
 H   -0.8954601346   -1.8176782344   -1.6641065394
 H   -1.1187740433   -2.6984179586    1.3311710402
 H    1.2910519805   -2.2877240974    1.4352317205
 H    1.2657411559   -2.9191902335   -0.2246888311
 H    3.1351762289   -1.2051062914   -0.3354197782