25

 C   -0.1194943345    1.6255724478   -0.2424409562
 C    0.0514382466    0.1191412919   -0.0139931282
 C   -1.2876407912   -0.5797695481    0.1426847320
 O   -2.1022536350   -0.4970423913   -1.0521101261
 C   -2.4439782366   -1.8930100434   -0.9703483561
 C   -1.4199508636   -2.1381531958    0.1688801585
 C   -0.1807291029   -2.9032871639   -0.2958426811
 C   -1.9964360867   -2.6919429393    1.4779567055
 C   -2.4648930412   -4.1507074271    1.4180173187
 H    0.8480217267    2.1166695374   -0.3826989147
 H   -0.7286320492    1.8086470455   -1.1320138437
 H   -0.6177399501    2.1019422437    0.6092213872
 H    0.6011424965   -0.3183314455   -0.8536288119
 H    0.6475816141   -0.0611122107    0.8905003717
 H   -1.8246706470   -0.1269491371    0.9929806632
 H   -3.4944729190   -2.0406386771   -0.6816245216
 H   -2.2604509045   -2.4155127821   -1.9172432255
 H    0.2156813679   -2.4948593824   -1.2295063030
 H    0.6171732714   -2.8695858590    0.4543303895
 H   -0.4195361311   -3.9554991097   -0.4794955630
 H   -1.2435651854   -2.5826133635    2.2708507630
 H   -2.8433005725   -2.0609284320    1.7757756060
 H   -2.9370301156   -4.4429090137    2.3609341153
 H   -3.2020690241   -4.3002352666    0.6209725522
 H   -1.6365208031   -4.8423061079    1.2388502383