13

 N    0.1771781604   -1.1922879492    0.0286411060
 C    0.0690764374   -0.0426340251    0.0287268811
 C   -0.1051990933    1.4187691689    0.0291541014
 C   -0.6742712933    1.9538856813    1.3633506385
 O    0.5104326318    2.2499811565    2.0942668580
 C    1.4110227880    2.7426538515    1.1495424149
 O    1.1667440611    2.0627816559   -0.0735768093
 C    1.2351902701    4.2080327502    0.9387688787
 N    1.0986682490    5.3448468515    0.7897154555
 H   -0.7231484952    1.7043016825   -0.8270359243
 H   -1.2683973418    2.8588682403    1.1864882049
 H   -1.2536438554    1.2240752372    1.9268137611
 H    2.4295021813    2.5380073885    1.4902262835