15

 N    0.0513787203   -3.6657868888   -0.0485515801
 C    0.0317186307   -2.5041568163   -0.0300663689
 C    0.0115961437   -1.1404313687   -0.0077963957
 C   -0.0058785340    0.0686317333    0.0134173264
 C   -0.0054888339    1.4993154539    0.0468444120
 C   -0.6659513349    2.4469782436    1.0964763628
 C   -0.0628446959    3.3285501442   -0.0249566486
 C    1.2247493234    2.4647942040    0.0280944702
 N   -0.6954522294    2.3581928303   -1.0163848501
 H   -1.7536803598    2.4023306238    1.1316846169
 H   -0.1962565727    2.4882733748    2.0793111129
 H   -0.1514364830    4.4060236683   -0.1516559758
 H    1.8463562537    2.5072741043    0.9270326587
 H    1.8264576285    2.4351302793   -0.8840587100
 H   -0.1276555666    2.3344220340   -1.8705252507