20

 O    0.2177593319    0.1212518049   -1.0407441904
 C    0.1907998406    1.2803870141   -0.6783288770
 N    1.1105377708    1.8669807947    0.1321019905
 C    2.2657208428    1.0773984491    0.5748109100
 C    3.4065181486    2.0058128862    0.9900859432
 C    2.9165574971    2.9738092799    2.1007717816
 C    2.3388896571    3.8330570130    0.9434783346
 C    3.4553432629    3.2368164390    0.0395339481
 C    0.9771948058    3.2716196635    0.5290705919
 H   -0.6025485238    1.9903034502   -0.9894519842
 H    1.9878688149    0.4185685804    1.4097228517
 H    2.5537459667    0.4295206555   -0.2582031225
 H    4.3197327927    1.4329910919    1.1630177624
 H    2.2192949089    2.5857303301    2.8506484558
 H    3.7476859705    3.4746498866    2.6033039315
 H    2.2799571124    4.9155283360    1.0749855961
 H    4.3919867998    3.7895683064    0.1414768001
 H    3.2347690932    3.0796036773   -1.0197905233
 H    0.5710168638    3.8347036719   -0.3192560846
 H    0.2709548335    3.3836200993    1.3656187344