17

 C   -0.0883836227    1.3762878225    0.0674082768
 O    0.0422667816   -0.0342323640   -0.0163466677
 C    0.7326736487   -0.5427474012   -1.1391974314
 C    2.1945337621   -0.0829872548   -1.2323639864
 C    0.6532827111   -2.0845636718   -0.9758473656
 O    1.2243533569   -2.7770594768   -2.0601777469
 C    0.0154405701   -0.1928414822   -2.3951499571
 N   -0.5512585024    0.0400674964   -3.3757459801
 H    0.8793300789    1.8734911229    0.2087344451
 H   -0.5774210625    1.7900050254   -0.8244876796
 H   -0.7156688778    1.5716728919    0.9391277448
 H    2.6714618395   -0.2394656681   -0.2604292565
 H    2.7106949692   -0.6859665036   -1.9822630838
 H    2.2822550394    0.9696145183   -1.5085509859
 H    1.2287557410   -2.3493316994   -0.0845390804
 H   -0.3957160012   -2.3545030377   -0.8008453452
 H    0.6418795782   -2.6796468078   -2.8221440100