23

 C   -0.9997841791    1.1221422609    0.1607923110
 C   -0.2562150955   -0.2207307115    0.1020121860
 C    0.4287290943   -0.4922310124   -1.2708391249
 C    1.9208142240   -0.2821525465   -1.0585657413
 C    2.3690812138    1.0016379370   -0.4055547181
 C    2.1857594544   -0.2424385095    0.4257211903
 C    0.8749582533   -0.4587921858    1.1667912691
 C    0.7504451359    0.3618835263    2.4519037628
 O    0.9062415557   -1.8582870579    1.4990905209
 H   -0.3505961342    1.9838641238   -0.0171279052
 H   -1.7806825785    1.1440715909   -0.6067857762
 H   -1.4892620751    1.2708977595    1.1280352542
 H   -1.0070526012   -0.9983229913    0.2815134639
 H    0.2583953308   -1.5298173871   -1.5756675679
 H    0.0158887712    0.1459543678   -2.0607241790
 H    2.6088039946   -0.7781712762   -1.7342161513
 H    3.3933619411    1.3127526020   -0.5821679889
 H    1.6778759353    1.8308684539   -0.3112661319
 H    3.0579434791   -0.7115558291    0.8666950713
 H    0.8068666132    1.4361879412    2.2576241819
 H   -0.2011210505    0.1643557038    2.9613455933
 H    1.5603160846    0.0918696208    3.1356994114
 H    0.1215980426   -2.0478143506    2.0246294684