18

 C   -0.1127986401    1.3466199852   -0.1823825007
 N    0.0062951869   -0.0844783088   -0.0254491642
 C   -1.0962456216   -0.9910429635   -0.3016278047
 C   -0.5690175621   -2.3785596108    0.1351283063
 C    0.9526801677   -2.2160575160    0.1893568106
 C    1.6948783976   -2.7850191376   -1.0120716049
 O    1.1700213377   -3.3908037742   -1.9102503504
 C    1.1998107702   -0.6943023498    0.2255719966
 O    2.2693383393   -0.1503081518    0.4108239151
 H    0.8562647678    1.7891424404    0.0536922377
 H   -0.3894155902    1.6114890837   -1.2110527614
 H   -0.8742901551    1.7521868524    0.4940194905
 H   -1.9896532143   -0.6911617995    0.2581661045
 H   -1.3557876983   -0.9682902156   -1.3693237627
 H   -0.9604302064   -2.6387170838    1.1207167777
 H   -0.8568877959   -3.1591890779   -0.5703961641
 H    1.4224403155   -2.6447326938    1.0817152648
 H    2.7856555913   -2.5821872688   -1.0005391006