18

 C   -0.4634772724    1.5482100040    0.1026843842
 C   -0.0882512842    0.0755611488    0.0629122759
 C   -1.2459166940   -0.8186640317   -0.3498316590
 O    1.0620830084   -0.1392662190   -0.8309543276
 C    1.9157259736   -0.5454251380    0.2431022483
 C    3.0425871154    0.3597941252    0.4845835339
 N    3.9415069275    1.0513252030    0.7066321524
 C    0.7447335163   -0.4338053251    1.2733392369
 O    0.8566086416    0.4977382775    2.3057730248
 H    0.3843938204    2.1644874100    0.4042796153
 H   -0.7919005913    1.8616502864   -0.8929491937
 H   -1.2805359831    1.7197872960    0.8094889116
 H   -1.6145133261   -0.5283796813   -1.3383045976
 H   -0.9363481161   -1.8667945677   -0.3959739210
 H   -2.0714038851   -0.7287511584    0.3640305238
 H    2.3086239089   -1.5583537671    0.0907655826
 H    0.4261234876   -1.4183529681    1.6375399175
 H    1.4813528627    0.1742935054    2.9635219017