21

 C   -0.0330911277    1.4269927675    0.0037381134
 C    1.3345150356    2.1231020982    0.0834968138
 C    2.1920494736    1.6405563583    1.2198042322
 C    3.2884664580    0.8867444622    1.0924562570
 C    3.8216712309    0.3799732394   -0.1845772250
 C    3.2379171018   -0.5049888553   -1.0003703339
 C    1.9685208806   -1.2860156313   -0.7581321914
 C    0.6197968924   -0.6125136080   -1.1155124155
 O    0.0375346268    0.0178424484    0.0135572809
 H   -0.6380135384    1.6845119844    0.8805445318
 H   -0.5731307895    1.7887884036   -0.8870699383
 H    1.8684340752    1.9879259706   -0.8617858297
 H    1.1452248887    3.2004926991    0.1915972558
 H    1.8961590084    1.9622688679    2.2172661463
 H    3.8779214696    0.6707343356    1.9836963163
 H    4.8000706314    0.7659181405   -0.4743235805
 H    3.7583774141   -0.7422182711   -1.9270929037
 H    2.0369981342   -2.2182726603   -1.3306768890
 H    1.8886393304   -1.5651424564    0.2973754658
 H    0.7328473316    0.0894249023   -1.9526541278
 H   -0.0837097177   -1.3919391055   -1.4353090483