17

 C   -0.0257857481    1.5461330489    0.0079932570
 C    0.0663984909    0.0430641277    0.0292979483
 C   -0.8063997603   -0.8054685707    0.9361147611
 C    0.6846071570   -0.8080391154    1.1209986989
 C    1.4535010062   -1.9417635491    0.4486632155
 N    1.0652604076   -1.8154586806   -0.9465052022
 C    0.4122644012   -0.6508935401   -1.2699657069
 O    0.1679436820   -0.2582289200   -2.3910017460
 H    0.9352687384    2.0024003627   -0.2513339152
 H   -0.7541010459    1.8640218100   -0.7439081810
 H   -0.3376824623    1.9368847831    0.9811354863
 H   -1.3936559333   -0.2673626835    1.6729862761
 H   -1.2905139817   -1.6874011595    0.5279547906
 H    1.1087748414   -0.3623302577    2.0125034267
 H    2.5367566051   -1.8114523030    0.5803182339
 H    1.1832222816   -2.9254999830    0.8531614193
 H    1.4123410405   -2.4188186298   -1.6742469427