15

 C   -0.0828022690    1.5519581854   -0.0057616570
 C   -0.0254557343    0.0239433862   -0.0018982272
 C   -1.3176114449   -0.5613090730   -0.3464748565
 N   -2.3505089083   -1.0009488217   -0.6217053169
 C    1.2272502618   -0.6655431201   -0.6593790796
 N    2.0170588321   -0.1412323718    0.5347547851
 C    0.7434822228   -0.6790667711    1.1777059168
 C    0.9491219319   -1.8986033596    0.2405917615
 O    1.0894671575   -3.0774209814    0.2688722167
 H    0.8913041792    1.9644071545    0.2538907302
 H   -0.3770454886    1.9146271545   -0.9944323478
 H   -0.8272584758    1.9020542385    0.7145114734
 H    1.5809037587   -0.5675115948   -1.6834092268
 H    2.8168831590   -0.7442851122    0.7409372176
 H    0.5465878278   -0.5964294834    2.2443464905