12

 O    0.0108520098   -0.1058831642   -0.0013304686
 C   -0.0086534068    1.1035218564    0.0096980766
 C    1.1729461804    1.9537705879    0.0030465097
 C    1.3319315118    3.3216544383    0.0131484508
 N    2.6918475307    3.6152894305   -0.0005134621
 C    3.2595136393    2.4512924246   -0.0174712707
 O    2.4223482602    1.3997648156   -0.0167013328
 C    0.3291771274    4.3146236030    0.0338552028
 C   -0.5304131274    5.1564287170    0.0512556694
 H   -0.9518764535    1.6861457117    0.0258594625
 H    4.3161467720    2.2317052433   -0.0319967632
 H   -1.2859889439    5.9034298759    0.0657392756