20

 C    0.0100225390    1.4409146638    0.1239710104
 C   -0.0287387969   -0.0462673465   -0.0688232334
 N   -0.0304863558   -0.5786685289   -1.2188622008
 C   -0.0294714511   -2.0326705995   -1.3253656156
 C    0.4811668403   -2.7251687559   -0.0562190510
 C   -0.2028649204   -2.0896428475    1.1265317844
 C   -1.5144978158   -2.6054198879    1.6541554223
 C   -0.2454400105   -2.7074475120    2.4839552477
 O   -0.0486964671   -0.6788668278    1.1456716174
 H    0.8815425007    1.7225978935    0.7236732595
 H    0.0560384197    1.9326099184   -0.8466940892
 H   -0.8783417371    1.7781785595    0.6679068769
 H   -1.0506047918   -2.3681581952   -1.5531563467
 H    0.5831686049   -2.3099019417   -2.1903784514
 H    0.2842787888   -3.8012170347   -0.0784130348
 H    1.5658364653   -2.5877917601    0.0331321452
 H   -2.2484416388   -1.8693902420    1.9607286867
 H   -1.9263172829   -3.5089199379    1.2165506085
 H    0.2154131690   -3.6798811772    2.6198999645
 H   -0.1512282295   -2.0346613604    3.3287789696