15

 O    0.1204040782    1.3695086074   -0.2668664310
 C    0.0249972423   -0.0132199046   -0.0031779546
 C    0.4621775104   -0.3961471787    1.4287030728
 O   -0.3723363402   -1.4975873546    1.8338547728
 C   -1.5017243018   -1.5584652647    1.0748062409
 O   -2.3851224558   -2.3364452725    1.2736495697
 C   -1.4063009369   -0.5013259973   -0.0007716016
 C   -2.5778455895    0.3128068405   -0.3609538339
 O   -2.0989117328   -0.7252280483   -1.2143066453
 H    0.9755798421    1.5510471731   -0.6664461788
 H    0.5862225969   -0.5991450820   -0.7435557431
 H    1.5019220597   -0.7196883559    1.5070112439
 H    0.2946877842    0.4559114985    2.0962543973
 H   -3.5269720739    0.1074907589    0.1295737865
 H   -2.4044896527    1.3270545402   -0.7107088154