18

 C   -0.0607189695    1.3903489748   -0.2465960119
 O   -0.1736269463   -0.0003368685   -0.4383840052
 C   -1.1577628441   -0.5895454847    0.4043441162
 C   -1.1735728990   -2.0560288678    0.1971853447
 C   -2.1744724431   -2.9661268102   -0.0657964009
 N   -3.5492588052   -2.7449350333   -0.2095868271
 N   -1.6750562352   -4.2445308099   -0.1049646854
 C   -0.3829896694   -4.1221206257    0.1220209026
 N   -0.0272288291   -2.8323853025    0.3235943261
 H    0.7268347341    1.7500585691   -0.9131007035
 H   -0.9984591011    1.9145601025   -0.4903293600
 H    0.2085001123    1.6416077281    0.7921073287
 H   -0.9295242912   -0.3269140570    1.4542615812
 H   -2.1574772575   -0.1782273308    0.1910978777
 H   -3.7680083025   -1.9396828168   -0.7823593521
 H   -3.9904563240   -3.5699163669   -0.5967640525
 H    0.3300111888   -4.9325347308    0.1430591507
 H    0.9055077720   -2.4650298898    0.4093451006