19

 C   -0.0108408159    1.4948398016   -0.1396929988
 C    0.0418871025   -0.0253954782    0.0494286250
 C    0.8257738596   -0.4272957763    1.3057340167
 C   -1.3740774774   -0.6088196701    0.0967785721
 N   -2.1958770072   -0.4314176849   -1.1388551201
 C   -2.5573468292   -1.8725501596   -1.2070862479
 C   -1.5369732843   -2.1291085642   -0.0877340116
 O   -1.0407256430   -3.0997367444    0.4020965900
 H    0.9973694762    1.9103609404   -0.2371578659
 H   -0.5753200199    1.7548893094   -1.0398162598
 H   -0.4889840668    1.9815278178    0.7195189082
 H    0.5373600284   -0.4599137408   -0.8289608776
 H    0.3744172102    0.0096919143    2.2049310283
 H    0.8431181093   -1.5132027059    1.4319526917
 H    1.8585261462   -0.0692568580    1.2479244497
 H   -1.8792060466   -0.2763816873    1.0189930073
 H   -2.9926961695    0.1813692188   -1.0158381157
 H   -3.5805628523   -2.1268342705   -0.8970281319
 H   -2.3552919403   -2.3516196021   -2.1713497397