19

 C    0.0437498448    1.5641908472    0.0730044572
 C    0.0126444154    0.0356612703   -0.0063338509
 C    0.7089929247   -0.5099612597   -1.2568195046
 C    0.6676141008   -2.0467438100   -1.3358840799
 C    1.3977451474   -2.5770071207   -2.5243670592
 N    0.8007064317   -3.2212906783   -3.4930286917
 O    1.8429082799   -3.5154588584   -4.3875256411
 C    2.9463132560   -3.0071616019   -3.8417074628
 N    2.7619501278   -2.4179733048   -2.7055389856
 H    1.0731717999    1.9386144686    0.0901764678
 H   -0.4573937949    2.0157788602   -0.7902454379
 H   -0.4576114218    1.9262925026    0.9758055650
 H    0.4897877665   -0.3887593934    0.8869718524
 H   -1.0285590313   -0.3124561450    0.0110241016
 H    0.2362943083   -0.0923427930   -2.1549727420
 H    1.7547461478   -0.1812178611   -1.2747413834
 H    1.1267878155   -2.4691421836   -0.4338246388
 H   -0.3659632736   -2.4026661176   -1.3769490492
 H    3.8694800950   -3.1352822514   -4.3882177069