18

 C    0.0405804513    1.4445519408   -0.1637908083
 N    0.0395506573   -0.0073869058   -0.1172874928
 C   -1.0666493260   -0.6219619064    0.0419503019
 C   -2.4344304249    0.0289996199    0.2443534160
 O   -3.5043443539   -0.8951351010    0.3469865969
 N   -1.1156006066   -1.9967933858    0.0178551145
 C    0.1187484793   -2.7523127058    0.0035851686
 C   -0.1109905289   -4.1205792719   -0.4653753342
 N   -0.2944270519   -5.2047410822   -0.8190036478
 H    1.0726440978    1.7963686181   -0.2408010281
 H   -0.5039389042    1.8435054822   -1.0334300781
 H   -0.3956051499    1.9070412265    0.7346312621
 H   -2.4188945215    0.5907024551    1.1849370437
 H   -2.6024940773    0.7614924700   -0.5566837504
 H   -3.7127630667   -1.2109859831   -0.5384786607
 H   -1.9288581362   -2.4091842566    0.4502264257
 H    0.8168401652   -2.2371566021   -0.6634412925
 H    0.6095970570   -2.7905911720    0.9878497636