22

 C    0.2231506381    1.5508553050   -0.2865744887
 O   -0.3058370424    0.2993506558   -0.6592871632
 C    0.6621170306   -0.5936637220   -1.1414494637
 C    1.6337256650   -1.2828186642   -0.1453203211
 C    1.4093781971   -2.6032225630   -0.9320283605
 C    0.1200717995   -1.9899754873   -1.5707452916
 C   -1.1430496520   -2.3827242401   -0.7987191891
 C   -0.0706309604   -2.1994787526   -3.0698311876
 H    0.9522110414    1.4641988064    0.5331794581
 H    0.7190169690    2.0507232951   -1.1341615391
 H   -0.6109040111    2.1716037011    0.0500573043
 H    1.2248566931   -0.1274691536   -1.9677125900
 H    2.6540364576   -0.8994147954   -0.0749181853
 H    1.1998653836   -1.3224886265    0.8575975334
 H    2.1918106679   -2.7792005284   -1.6758508317
 H    1.2774194996   -3.5157670426   -0.3454085561
 H   -1.0198370717   -2.2580755808    0.2806325806
 H   -1.9939160731   -1.7668324006   -1.1035154190
 H   -1.3898808125   -3.4327151575   -0.9925038092
 H   -0.2920503621   -3.2489683743   -3.2965619909
 H   -0.9036978389   -1.5958391294   -3.4481853908
 H    0.8286677916   -1.9203917349   -3.6296221687