21

 C   -0.0528859721    1.5211354142    0.0085482286
 C    0.0165725583   -0.0042703508    0.0226364899
 C    0.8635418572   -0.5738992731   -1.1528075817
 O    1.5889700781   -1.7023058279   -0.6527215233
 C    1.0547235400   -1.9970490546    0.6483422603
 C    0.7811783995   -0.6040829942    1.2225122549
 C   -0.2488078994   -2.7668916609    0.5270502425
 C   -1.3725009542   -2.1194234666    0.2204410448
 C   -1.4011526899   -0.6253654360    0.0059420334
 H    0.9491530378    1.9618236734    0.0403055965
 H   -0.5513294794    1.8880660073   -0.8965545763
 H   -0.6151459268    1.9000072828    0.8688685163
 H    0.2301450136   -0.8725783741   -1.9989333521
 H    1.5919644854    0.1609081369   -1.5176054474
 H    1.8171077068   -2.5680947383    1.1825204653
 H    1.7220852959   -0.0728933686    1.3993424850
 H    0.1963907946   -0.6145624263    2.1460026456
 H   -0.2342507747   -3.8450617754    0.6538504024
 H   -2.3124794553   -2.6554774548    0.1113919741
 H   -2.0254572948   -0.1514640702    0.7789977256
 H   -1.8956255607   -0.3957271127   -0.9486186243