19

 C    0.0659612695    1.4846583556   -0.0306658792
 C   -0.0016643048   -0.0111956702    0.0391956854
 C   -1.3214035932   -0.7880030028   -0.1437496950
 C   -0.7181249447   -2.1086343039    0.3764374684
 C   -1.4135230458   -3.4269552992    0.2167975062
 O   -0.4161107851   -1.7333497582    1.7662375966
 C    0.6153428945   -0.9220519632    1.2125350009
 C    0.8130721593   -1.8052989747   -0.0115095571
 O    0.8564911483   -0.7145557111   -0.9264342420
 H    1.0925421744    1.8354315578    0.1095959897
 H   -0.2886844750    1.8459692331   -1.0017184714
 H   -0.5630214031    1.9260687274    0.7487776178
 H   -2.1435243995   -0.4617603876    0.4968748485
 H   -1.6201032142   -0.7972814909   -1.1941836042
 H   -1.5571352701   -3.6498930053   -0.8451199944
 H   -0.8273509120   -4.2338107137    0.6662082273
 H   -2.3967580195   -3.4099023405    0.6986903814
 H    1.3575556689   -0.5309958573    1.9065973097
 H    1.5298879123   -2.6089782352   -0.1721391986