20

 C   -0.2260043370    1.5202439529   -0.1381695804
 C   -0.0660032171   -0.0008530505   -0.2125821517
 C    1.0515031601   -0.4733082330   -1.1649739327
 C    2.4581709768   -0.0609115689   -0.7056832606
 C    0.9846128920   -1.9777509292   -1.3040018544
 O   -0.0908733104   -2.5311860276   -2.0626684330
 C    1.2328980914   -2.6998297058   -2.5729603847
 C    1.5584225838   -1.9872333318   -3.7902420853
 N    1.8451518263   -1.4358982468   -4.7649819848
 H    0.6607826235    2.0085473012    0.2770234384
 H   -0.4080617274    1.9463672143   -1.1308596828
 H   -1.0747429395    1.7881015350    0.4982422105
 H    0.1249058598   -0.4026670326    0.7922846988
 H   -1.0092772048   -0.4458751519   -0.5497831584
 H    0.8612225753   -0.0410152493   -2.1552341631
 H    3.2208580768   -0.4007796316   -1.4131115341
 H    2.5431452917    1.0252522780   -0.6257727517
 H    2.6932051798   -0.4870731855    0.2768837540
 H    1.2105466601   -2.5412131889   -0.3951789334
 H    1.6151620988   -3.7186899480   -2.5418460207