16

 C   -0.0836764973    1.5769411914    0.0007328556
 C    1.4518528762    1.2820583879   -0.0329147764
 C    1.3283406431    0.1593712812    1.0397708614
 C    1.7854623902   -1.0219403651    0.1768489647
 O    0.7845329746   -2.0612239676    0.3181343166
 C   -0.4901469211   -1.3624833274    0.3020782622
 C    0.0399894726    0.0445467615    0.1441925604
 C    1.2514771175   -0.0244574398   -0.8570831425
 H   -0.4639795328    2.1254551607    0.8680326142
 H   -0.5365314960    1.9519974931   -0.9222859435
 H    2.2618251839    2.0039208821   -0.1356925699
 H    1.3165691347    0.2702400103    2.1247351237
 H    2.7690360401   -1.4904119936    0.1823959232
 H   -1.0969307354   -1.7183860041   -0.5380735776
 H   -1.0248232656   -1.5459237913    1.2407895294
 H    1.1519573354   -0.1235426092   -1.9386815013