22

 C   -0.2050938601    1.5289795568   -0.0406306729
 C   -0.1458996423    0.0004429518   -0.0831132597
 C    0.8381979467   -0.5311361372   -1.1451278619
 C    0.9297260178   -2.0223499328   -1.2075103468
 C    1.9237446568   -2.8893479785   -0.8135013235
 C    1.4785069961   -4.2164322894   -1.0786737524
 C    0.2203641267   -4.1371338369   -1.6307794160
 C   -0.7153874557   -5.1981654252   -2.1074765400
 N   -0.0991236143   -2.7985741154   -1.7002686684
 H    0.7770377104    1.9559085808    0.1916255636
 H   -0.5226063530    1.9417940236   -1.0050118001
 H   -0.9089693572    1.8808058524    0.7199562080
 H    0.1484781685   -0.3933808228    0.8966960240
 H   -1.1478118832   -0.4022154586   -0.2810843214
 H    0.5541283140   -0.1230602015   -2.1267625456
 H    1.8389647892   -0.1378820829   -0.9343309910
 H    2.8699597010   -2.5974638770   -0.3824732535
 H    2.0203543319   -5.1315988861   -0.8912926524
 H   -1.6706026021   -5.1863405651   -1.5665154946
 H   -0.9469434913   -5.1013264064   -3.1762396564
 H   -0.2658988043   -6.1825144215   -1.9574191639
 H   -0.9601472256   -2.4362577882   -2.0730396053