18

 C    0.2076889944    1.0853885214   -0.4852057541
 O   -0.3864614790    0.0547601785    0.2930197309
 C    0.4530257769   -0.5217287477    1.2079984096
 C    0.7715356773   -1.8463059178    1.2292487634
 N    0.5013877857   -2.8965141015    0.3574718849
 O    1.5556364188   -2.1170804297    2.3036797288
 C    1.7488873601   -0.9362602341    2.9879433702
 C    2.5766918735   -1.0141955299    4.2181206786
 C    1.0996551758    0.0707921972    2.3503814340
 H    1.0739669930    0.7121971038   -1.0473089197
 H   -0.5572498454    1.4354040731   -1.1823319722
 H    0.5320192461    1.9274157157    0.1401543493
 H   -0.1633868797   -2.5925201725   -0.3442412440
 H    0.1362037298   -3.7146904030    0.8344768210
 H    3.5916378900   -1.3714155028    4.0057209569
 H    2.6534795637   -0.0235029151    4.6722055204
 H    2.1412042522   -1.6951553500    4.9594228496
 H    1.0633308469    1.1035882345    2.6602872725