23

 C    0.0015436674    1.5254170729   -0.3490015891
 C   -0.0567945361    0.1021609047    0.2351111486
 C   -1.3901053906   -0.4894202950    0.1801639905
 C   -2.4945138954   -0.9701583571    0.1282483544
 C   -3.8591305540   -1.5176071753    0.0668921813
 C   -3.8156250412   -3.0472236998   -0.0560879694
 O   -4.5492081351   -1.2590404538    1.3000373355
 C   -4.6120634525   -0.8512050864   -1.1155562468
 C   -6.0743313159   -1.2805992772   -1.2556389647
 H    1.0189132877    1.9228728768   -0.2858302868
 H   -0.3051194528    1.5276541697   -1.3984992943
 H   -0.6652190842    2.1976636324    0.1979638586
 H    0.6470115544   -0.5445215201   -0.3046646086
 H    0.2904281953    0.1178726016    1.2762782787
 H   -3.2343176239   -3.4671882964    0.7672198260
 H   -4.8283382809   -3.4541540422   -0.0064779354
 H   -3.3552730029   -3.3452625751   -1.0014949638
 H   -4.4020555578   -0.3331699593    1.5215622836
 H   -4.5594583951    0.2341723132   -0.9638669352
 H   -4.0575305199   -1.0559733161   -2.0386311277
 H   -6.5790613859   -0.6745914465   -2.0141571099
 H   -6.1663769070   -2.3278293501   -1.5586101283
 H   -6.6034973235   -1.1553992110   -0.3072831273