16

 N   -0.0893606495    1.2708999119   -0.5353839165
 C   -0.0521611905    0.1056748262   -0.0086304555
 N   -1.2263502467   -0.5945698274    0.1588147226
 C   -1.4779502981   -1.4607512648    1.3033110738
 C   -0.7555382776   -2.7772779515    1.2059228041
 C    0.5119471488   -2.9288858612    0.8237896684
 C    1.5085803610   -1.8702786328    0.5539224249
 O    2.6963055663   -2.1381713593    0.5324431993
 N    1.1289439519   -0.5334927868    0.4036580256
 H    0.8416613004    1.6314209187   -0.7308744445
 H   -2.0047090593   -0.0135160062   -0.1172429537
 H   -1.2248940468   -0.9723209461    2.2593873941
 H   -2.5543924827   -1.6454252339    1.3279026931
 H   -1.3232100268   -3.6624003628    1.4806173060
 H    0.9617237563   -3.9149668158    0.7874069271
 H    1.9546414432    0.0404725919    0.2937129412