19

 C   -0.0555178968    1.5145689102   -0.0666274679
 C   -0.0240136756    0.0084461714    0.0085786491
 N   -0.0604047965   -0.6355014298   -1.1680644300
 C   -0.0335738846   -1.9635342641   -1.1234779805
 N    0.0255811953   -2.7298002150   -0.0372334120
 C    0.0620653927   -2.0906830936    1.1392727274
 C    0.1289901741   -2.9535677331    2.3707901868
 C    0.0392289479   -0.6892044941    1.2235078596
 C    0.0814565540    0.0013528604    2.5631241500
 H    0.8371360124    1.9600539647    0.3861046062
 H   -0.1045982204    1.8152532389   -1.1134431944
 H   -0.9237253661    1.9268845014    0.4591647579
 H   -0.0632476358   -2.4811711086   -2.0800881731
 H    1.0296843906   -2.7411722840    2.9584934221
 H   -0.7271919258   -2.7735456190    3.0313115548
 H    0.1362325621   -4.0036224976    2.0778408337
 H    0.9885082655   -0.2628119400    3.1194583336
 H    0.0582761688    1.0871017329    2.4670214788
 H   -0.7675284020   -0.2939701510    3.1908819480