18

 N    0.3235324686   -1.1362480524    0.3393372659
 C    0.1950151992    0.0005457436    0.1695664563
 C    0.0371082514    1.4308044549   -0.0093699854
 C   -0.4082497350    2.2641252949    1.2383624326
 C    0.8389792817    3.1817309290    1.0863402477
 C    1.9296515071    3.0359767036    2.1539846968
 C    2.6126585779    1.7171179562    1.7588662987
 O    2.5450151993    1.6715356659    0.3297020429
 C    1.3611687815    2.2939581093   -0.0875100931
 H   -0.6005644825    1.6128949245   -0.8784882904
 H   -1.3728228519    2.7589769396    1.1164997185
 H   -0.4296059699    1.6871017130    2.1653592618
 H    0.6105945899    4.2197999302    0.8439295409
 H    2.6399739510    3.8650710447    2.0813780447
 H    1.5314036973    3.0148925495    3.1721729957
 H    3.6669590232    1.6624347598    2.0389768891
 H    2.0960023758    0.8493779370    2.1921583592
 H    1.5365131454    2.7412078365   -1.0677119920