14

 O    0.0563832210    0.0217369570    0.1004684454
 C   -0.0357866483    1.2120762831    0.0866137449
 C   -1.2921908546    2.0759226410    0.0689576647
 C   -0.7847053584    3.4543413077    0.4931203146
 C    0.6863593838    3.4161923473    0.0062406863
 O    1.0656986712    2.0244162087    0.0880512584
 C    0.8527293652    3.9112102537   -1.3582177523
 C    0.9711103501    4.3307994346   -2.4775394536
 H   -1.6825730604    2.0810623584   -0.9545112023
 H   -2.0557635993    1.6451272803    0.7168192462
 H   -1.3343665950    4.2901959317    0.0607037365
 H   -0.7983850398    3.5534079709    1.5820680356
 H    1.3547488550    3.9590823202    0.6799041225
 H    1.0883647694    4.6976826953   -3.4677423768