18

 C    0.0148891946   -1.2238634022    0.0491573640
 C   -0.0112397664   -0.0201587706    0.0391016529
 C   -0.0620963229    1.4108878447    0.0346670868
 C   -1.0877901387    2.2803468009    0.7694893997
 N   -0.6694898346    3.4133823539   -0.1375916838
 C    0.7237303971    3.6193181621    0.3739723543
 C    1.3101041054    2.2548267693   -0.0259233624
 C    1.1294916179    2.3401408607   -1.5632837301
 C   -0.3543596970    2.3267925660   -1.2088694230
 H    0.0393333356   -2.2852670672    0.0575682023
 H   -2.1116486093    1.9708404786    0.5440446001
 H   -0.9834398797    2.4765701765    1.8408318883
 H    1.2121953822    4.4533561230   -0.1372615344
 H    0.7062383719    3.8282704083    1.4459331627
 H    2.2241033589    1.8879882372    0.4369945153
 H    1.5593166147    3.1972973406   -2.0890717050
 H    1.3951657961    1.4092521143   -2.0705901586
 H   -1.1722809158    2.1659980440   -1.9080904692