17

 C    0.0165213879    1.3994962197    0.0804356128
 N   -0.0112085455   -0.0085843948   -0.2615607465
 C    1.1877775562   -0.7611957483    0.0653282296
 C   -1.2205098805   -0.6713295263   -0.1112267793
 N   -1.2622468734   -1.9986378650    0.0307138821
 N   -2.5871355271   -2.2879719357    0.0791837529
 C   -3.3709481488   -1.1934510823   -0.0052775611
 C   -2.5292855167   -0.1100722681   -0.1281105649
 H    0.9736986948    1.8233521924   -0.2358884391
 H   -0.7732496377    1.9369704839   -0.4511468807
 H   -0.1036605954    1.5917152556    1.1606045631
 H    1.3086333013   -0.9283199286    1.1485337215
 H    1.1475666353   -1.7376444084   -0.4189382112
 H    2.0612737581   -0.2148166714   -0.3021347149
 H   -2.8673869662   -3.2455937962    0.1922004271
 H   -4.4473774912   -1.2592508970    0.0262577486
 H   -2.8191215412    0.9224767108   -0.2183460999