18

 C    0.3682388354    0.3558004466   -1.1530415588
 C   -0.3457860164    0.3550354403    0.1834006280
 O   -0.2039862258    1.2327003211    1.0081711693
 C   -1.2233102723   -0.7772609408    0.4193725381
 C   -1.9571629055   -1.7153062213    0.6168158489
 C   -2.8436450872   -2.8498396486    0.8490876467
 C   -3.2458434995   -3.5754754313   -0.4263637155
 C   -4.5693276058   -4.2379861965   -0.5087797040
 N   -4.2876756300   -3.0259502990   -1.3002165704
 H    0.9932522617    1.2463211347   -1.2335892815
 H    0.9836919292   -0.5451842528   -1.2499430021
 H   -0.3614965447    0.3321021808   -1.9695291919
 H   -2.3442984062   -3.5542128318    1.5287768466
 H   -3.7437097970   -2.5077330812    1.3783546829
 H   -2.4097367800   -4.0082828874   -0.9710511265
 H   -4.6918594055   -5.1476140084   -1.0892596979
 H   -5.2300673042   -4.1595854693    0.3515241885
 H   -4.7198172563   -2.2149010752   -0.8629477502