20

 C    0.0456433770    1.5234114779   -0.0890012672
 C   -0.0156882410    0.0239149226   -0.0788454205
 N    0.5318253365   -0.7802693922   -1.2078877995
 C   -0.2424296090   -1.9135358174   -0.5827960612
 C    0.6421858844   -2.1691829883    0.6479035929
 C    0.3082349906   -0.7923731458    1.2473061433
 O   -1.1202221845   -0.9358148471    1.5121277622
 C   -1.2713841392   -0.8668801251    0.0864034019
 C   -2.6598857746   -0.6613424744   -0.4358632786
 H    1.0844191041    1.8704763658   -0.0881967395
 H   -0.4468141945    1.9384554172   -0.9756811789
 H   -0.4533390802    1.9284521327    0.7968624713
 H    0.0414029142   -0.4771145971   -2.0507919200
 H   -0.5435036830   -2.7413601442   -1.2231338197
 H    0.3009218487   -2.9682970118    1.3082353713
 H    1.6854147830   -2.3103333287    0.3613784081
 H    0.8739188942   -0.3887690632    2.0858561199
 H   -3.1128104387    0.2357337169   -0.0032437424
 H   -2.6484075205   -0.5549116641   -1.5256818642
 H   -3.2943743275   -1.5189485439   -0.1879884494