18

 O   -0.1895141850    1.3188930463    0.2003877791
 N   -0.0851886630   -0.0699521936    0.3616803150
 C   -1.1199592664   -0.6761857226   -0.0635998780
 C   -2.4150939717   -0.1261790465   -0.6126742577
 C   -3.4682927010   -1.1455808103   -0.1123978810
 C   -2.7364419917   -2.4977609845   -0.0204853716
 C   -2.4061454458   -3.1951947359   -1.3552012821
 O   -1.0207104062   -2.7954181950   -1.2827162938
 C   -1.2151514346   -2.1745487688    0.0178184284
 H    0.6335723684    1.6315356814    0.5913703076
 H   -2.5992357012    0.8967883574   -0.2823191525
 H   -2.3688116269   -0.1112355429   -1.7086183510
 H   -3.8118988964   -0.8518614222    0.8851832933
 H   -4.3510222968   -1.1928291477   -0.7573053152
 H   -3.1326603904   -3.1489192549    0.7586647699
 H   -2.5118914445   -4.2871362960   -1.3527077275
 H   -2.9073306693   -2.7926723081   -2.2453550854
 H   -0.5696939073   -2.6150214859    0.7813006926