20

 C   -0.1638030978    1.5509947084    0.6837120817
 C   -0.0902428552    0.0435468223    0.5309283224
 C    0.0475937940   -0.6076264907   -0.8533110643
 O    1.1831106779   -0.0726363149   -1.5807752467
 C    2.1063171779   -0.9344880244   -0.8668333098
 C    2.4567821238   -0.3608307663    0.5141869121
 C    2.9955746513    1.0493872688    0.6629558742
 N    1.0906635320   -0.7641877314    1.0599609261
 C    0.9391420942   -1.6673271049   -0.1769706253
 H    0.4772188041    2.0637590210   -0.0342619496
 H   -1.1929559378    1.8851496707    0.5141566927
 H    0.1226848925    1.8557096988    1.6950640996
 H   -0.9579588265   -0.4099481199    1.0296554270
 H   -0.8193942785   -0.7656390990   -1.4999164237
 H    2.8733747929   -1.3519375298   -1.5241719238
 H    3.1477003591   -1.0617923466    1.0026568329
 H    2.5355763818    1.7370082145   -0.0476055879
 H    2.8307753955    1.4256889906    1.6773514612
 H    4.0753119280    1.0487246044    0.4792899494
 H    0.7703544106   -2.7352508917   -0.0605547284