22

 C    0.0234669715    1.6613704250   -0.0190997289
 C   -0.1154098960    0.1387840155    0.1045914697
 C    0.6581154669   -0.4699330153    1.2863735637
 C    0.2299525882    0.1097111774    2.6371138461
 C    0.8117994747   -2.0289803980    1.2938621950
 C    0.1849862070   -2.8990431313    0.2273494307
 O    2.2624504263   -1.8784061084    1.0944459888
 C    2.1672380748   -0.5069333246    1.0943341327
 N    3.0582504790    0.3706748854    0.9761573066
 H    1.0774613313    1.9508271367   -0.0498431952
 H   -0.4584443923    2.0113277384   -0.9370241088
 H   -0.4479093972    2.1838539513    0.8183735298
 H   -1.1745857059   -0.1339080769    0.2046335577
 H    0.2350086395   -0.3183003767   -0.8267399978
 H   -0.8477683428   -0.0192011789    2.7889933694
 H    0.7522253991   -0.3851080446    3.4616113892
 H    0.4601961118    1.1758336839    2.6953015775
 H    0.6360392677   -2.4574656785    2.2866252534
 H    0.3976917974   -2.5291866703   -0.7780549750
 H    0.5749938967   -3.9185402851    0.3042304819
 H   -0.9008883659   -2.9419923527    0.3621423850
 H    3.9825112879   -0.0505496527    0.8645135087