22

 C    0.0186190540    1.5837564121   -0.0290747976
 C   -0.0214858316    0.0569102242    0.0686702585
 C   -1.4392433651   -0.5184271058   -0.0441048692
 O   -2.0679645322   -0.1349597778   -1.2689157425
 C   -1.4755503739   -2.0304317053    0.1335501537
 C   -1.1785626840   -2.6389447161    1.5356251697
 C   -2.3234419926   -3.6597914567    1.2938486928
 C   -2.8589619972   -2.7377857357    0.1649686960
 H    1.0464605872    1.9581913685   -0.0051070081
 H   -0.4517721044    1.9201412545   -0.9566760155
 H   -0.5246695558    2.0445881829    0.8034053241
 H    0.5975138020   -0.3860868515   -0.7259036586
 H    0.4199342350   -0.2742308042    1.0170641999
 H   -2.0689721793   -0.0614864979    0.7323959177
 H   -1.5732217411   -0.5454052677   -1.9873344685
 H   -0.8272979558   -2.4962761416   -0.6222427494
 H   -0.1750500844   -3.0286759080    1.7224529867
 H   -1.4286354018   -1.9320538604    2.3344340935
 H   -1.9432440677   -4.6067973318    0.8998802576
 H   -2.9905609184   -3.8787990023    2.1308231285
 H   -3.6383002030   -2.0586698570    0.5245431077
 H   -3.2129351299   -3.2083992624   -0.7548469971