17

 C    0.3148598689    1.3589645437    0.3454101579
 C    0.0663476187   -0.0410048520   -0.1641557607
 C    0.9775567883   -0.6638483510   -1.1820610159
 N    0.9313021057   -1.1498591712    0.1931163600
 C    1.9724838766   -1.0561638424    1.1209392996
 O    1.8957838947   -0.4894617361    2.1793777473
 N    3.0867252347   -1.8034598490    0.6913720126
 C    4.3058655636   -1.9543210584    1.3383345255
 O    4.6551699419   -1.4192296620    2.3533968792
 H    1.3722759668    1.6293520128    0.2874908751
 H   -0.2587334868    2.0722490505   -0.2551656752
 H    0.0076887390    1.4522273989    1.3894330645
 H   -0.9828136711   -0.3287897492   -0.2081411137
 H    0.5889441123   -1.3401363918   -1.9391594308
 H    1.8475942349   -0.0836111190   -1.4833615268
 H    2.9657141872   -2.3337315087   -0.1587785335
 H    4.9484270846   -2.6553555453    0.7657963150