17

 C    0.0982490609    1.5138269197   -0.1469303885
 C    0.0569240218    0.0013802720   -0.0663956421
 C    1.3786499403   -0.7684162312   -0.1006304731
 C    0.6096145034   -0.6746010695    1.1778971822
 O    1.0466827556    0.1718946099    2.2004543142
 C   -1.0928140074   -0.7490302541   -0.6882883756
 N   -2.0509030776    0.0078300995   -1.2954362525
 O   -1.1647735305   -1.9673417949   -0.6508030269
 H    0.9419722752    1.8982484346    0.4276956521
 H    0.2026163451    1.8592756422   -1.1818673386
 H   -0.8049259865    1.9644590023    0.2815116304
 H    1.3758209626   -1.7164896118   -0.6246789719
 H    2.2770230574   -0.1663876770   -0.1884933453
 H    0.0727389957   -1.5649451605    1.4975424903
 H    1.8351143947   -0.2207262205    2.5890240945
 H   -2.0179993794    1.0098142772   -1.3304359272
 H   -2.8337807613   -0.4717238778   -1.7073559821