21

 C   -0.0326606706    1.1130633660    0.3939141050
 O   -0.1428689868   -0.2069591889   -0.1128351260
 C    0.5679228185   -0.5337739701   -1.3014317932
 C    0.0349117551    0.1821865452   -2.5303248046
 O    0.4918419972    1.5310671061   -2.5266347425
 C    2.1084386247   -0.5937691397   -1.0875349270
 C    1.9667094739   -2.0754706644   -0.6453720747
 C    0.5696006962   -2.1014773386   -1.3269836249
 O   -0.5028447802   -2.7513178803   -0.7149024213
 H    1.0109313006    1.3926104633    0.5874424284
 H   -0.4623846941    1.8501335916   -0.2904473230
 H   -0.5799477571    1.1232660241    1.3401160732
 H    0.3958980830   -0.3479490740   -3.4252021439
 H   -1.0642532320    0.1255570933   -2.5241304195
 H    0.1405833447    1.9696712655   -3.3072978377
 H    2.6423160157   -0.4794738963   -2.0341225038
 H    2.5333437952    0.1081426111   -0.3690726139
 H    2.7128983442   -2.7912621012   -0.9964554281
 H    1.8654412436   -2.1684759142    0.4386585601
 H    0.6398913696   -2.4754114378   -2.3536382333
 H   -0.7605838515   -2.1789819007    0.0208392307