19

 C   -0.3380680612    1.4862948547   -0.0503199608
 C    0.1242562423    0.0466361007   -0.0352533319
 O    1.3895790099   -0.1309973484   -0.7668266726
 C    1.9995791555   -0.6910378209    0.3319908645
 N    3.1641200724   -1.1313597619    0.4873882871
 C    0.7819659420   -0.5829590337    1.2367022430
 C    0.9829562843    0.3197890020    2.4537270762
 C    0.1990762076   -1.9392553099    1.6398596900
 H    0.4274690396    2.1613388001    0.3394232749
 H   -0.5731060414    1.7930251231   -1.0740122056
 H   -1.2446086429    1.6002048376    0.5533683802
 H   -0.6346058469   -0.6059361800   -0.4805469790
 H    3.7148923896   -1.0418187745   -0.3684088809
 H    1.4256247055    1.2830186357    2.1888998425
 H    0.0313781670    0.5054818619    2.9634794331
 H    1.6588755306   -0.1679026902    3.1619625041
 H    0.8738277093   -2.4506260198    2.3323568743
 H   -0.7692668646   -1.8111594799    2.1362743579
 H    0.0555257214   -2.5889693467    0.7712020528