19

 C   -0.1142084529    1.5737048596   -0.0521158730
 C    0.0509701634    0.0593295754    0.0522425392
 C    0.9996219602   -0.5432916136   -1.0127899998
 O    1.0096963643   -0.3794105306   -2.2009567758
 C    1.9369166268   -1.3621280811   -0.1127122814
 C    2.2982337892   -0.3192765426    0.9685267286
 C    0.7916896969   -0.5414721025    1.2772822863
 C    0.1930399066   -0.4058181425    2.6473929877
 O    0.9619682168   -1.9349504867    0.8133065216
 H    0.8296163114    2.1012962943    0.1200101912
 H   -0.4616301477    1.8386795726   -1.0549470828
 H   -0.8458055589    1.9457992221    0.6714322784
 H   -0.9252982897   -0.4322211075   -0.0306982574
 H    2.6336615543   -2.0663515155   -0.5618951154
 H    2.9367199126   -0.7515019590    1.7406828242
 H    2.6506436729    0.6704619154    0.6671036621
 H    0.1470599347    0.6480161347    2.9401494887
 H   -0.8246985281   -0.8091799150    2.6633122022
 H    0.7909618970   -0.9462691875    3.3862968156