19

 C   -0.7984420059    1.3341353975    0.0773547508
 C    0.1020468282    0.1083754991    0.0185025250
 O   -0.6771871869   -1.1034181433    0.0872104566
 C    1.0131642326    0.0961107745   -1.1938715132
 C    2.0062225991   -0.7913166041   -1.2769448787
 C    2.2787899721   -1.7739401020   -0.1660743441
 C    1.9994986005   -1.1709721797    1.2301792767
 C    1.0353777094    0.0111454938    1.2424633072
 O    1.0222126913    0.8247847758    2.1328416160
 H   -0.2056377484    2.2527471588    0.0988463442
 H   -1.4518222137    1.3599617736   -0.8013600477
 H   -1.4157919359    1.3052244032    0.9765643453
 H   -0.9594488736   -1.3139812022   -0.8094800270
 H    0.8237581497    0.8185344296   -1.9830688369
 H    2.6330246951   -0.8327627013   -2.1639250965
 H    1.6550413136   -2.6621421646   -0.3226413139
 H    3.3159244436   -2.1194896481   -0.2138654163
 H    1.5887905966   -1.9304612910    1.9041889310
 H    2.9232763626   -0.8152746197    1.6948185716