20

 C    0.2845369027    1.0340460183   -0.8554159510
 C   -0.0262480326   -0.0969611361    0.1117438116
 C   -0.6665559557    0.1923754586    1.4436801954
 C   -1.4569611108   -0.5017293426    0.3617767140
 C    1.5697335295    1.7315444977   -0.5319894096
 N    2.6545017353    1.6526619723   -1.1884467367
 C    3.6365908411    2.4879445396   -0.4817901644
 C    2.8661255556    3.0534827080    0.7400951267
 O    1.5380186213    2.5065654944    0.5913549808
 H    0.3621751029    0.6558033762   -1.8778131854
 H   -0.5275789676    1.7702631025   -0.8254883609
 H    0.7045777900   -0.9005999289    0.0933456946
 H   -0.3500503515   -0.3870077766    2.3038453464
 H   -0.9061937540    1.2253496759    1.6698302415
 H   -2.2369179766    0.0624700916   -0.1393941598
 H   -1.6797892161   -1.5564596614    0.4782932437
 H    4.5011860290    1.8831704498   -0.1881980971
 H    4.0051488621    3.2758711555   -1.1475723987
 H    3.2685193411    2.7238446965    1.7024795070
 H    2.7898247643    4.1444983988    0.7452291019