22

 C   -0.0193861416    1.3765899034    0.0894165305
 O   -0.0851623018   -0.0248922361   -0.0417722944
 C    0.6851017751   -0.5309503645   -1.1170655159
 C    0.6064079297   -2.0456262315   -1.0322068080
 O    1.0569099360   -2.4774160756    0.2318415782
 C   -0.7213750964   -2.7140441084   -1.5057028948
 N    0.0746749779   -3.6795480755   -2.2862865989
 C   -0.3786313008   -4.0516030927   -3.6039676658
 C    1.2870583707   -2.8516615086   -2.1606364858
 H    1.0125354796    1.7205408855    0.2586643791
 H   -0.4100623531    1.8854958847   -0.8048646095
 H   -0.6326380792    1.6542079217    0.9499834710
 H    0.2998209230   -0.1637728918   -2.0809696382
 H    1.7355563703   -0.2087508563   -1.0219969696
 H    0.6364061337   -1.8903532125    0.8733637315
 H   -1.3445778662   -3.1598585900   -0.7237082472
 H   -1.3383865664   -2.0420867171   -2.1248461035
 H   -0.5362383118   -3.1842435955   -4.2766829196
 H    0.3530060947   -4.7155852589   -4.0772275915
 H   -1.3257211965   -4.5970284599   -3.5314423523
 H    1.5020491990   -2.2342954912   -3.0498111764
 H    2.1918007440   -3.3949347592   -1.8697526187