19

 C    0.0727810464    1.3309937949   -0.1875576764
 O   -0.0191394173   -0.0356982093    0.1897048464
 C   -1.2903538913   -0.5397145490    0.1115599177
 C   -1.7521946379   -1.9604190752   -0.0873740146
 C   -2.7208686805   -1.8550215503    1.0931004235
 C   -2.5060199471   -0.3034166979    1.0584292403
 O   -3.5033049338    0.3618427882    0.2984837722
 C   -3.4406267167   -0.1824314677   -1.0301737387
 C   -2.0822113403   -0.8652644032   -1.1203999439
 H    1.1212471909    1.6180998131   -0.0841484574
 H   -0.2440245222    1.4789659682   -1.2289518868
 H   -0.5409022730    1.9716657597    0.4595670411
 H   -1.1701036588   -2.8264340618   -0.3787511502
 H   -3.7527516810   -2.1947601172    0.9609165388
 H   -2.3025193831   -2.3038829404    1.9981550640
 H   -2.3718699271    0.2191477673    2.0044423270
 H   -4.2788299463   -0.8743728095   -1.1929421194
 H   -3.5371925092    0.6403757075   -1.7479961187
 H   -1.5662741018   -0.9398000474   -2.0700816550