19

 C   -0.0832563338    1.4366680744    0.0121325677
 C    1.3032310764    0.8435934594    0.0260688924
 C    1.9519858236    0.6179085927    1.3815387765
 N    1.1180333958    1.0084260528    2.5404696595
 C    1.1813971927   -0.4134937778    2.1197930771
 C    0.0236539809   -0.8506917399    1.2506386578
 C   -0.4363380763   -2.2620279141    1.3046242309
 N   -1.2903715764   -1.1828265650    1.8275809230
 C    0.0862053172   -0.0615249175   -0.0415489641
 H   -0.4462349377    1.8848337772    0.9282034467
 H   -0.4053508861    1.9212638493   -0.9033700189
 H    1.9589933366    0.9820614289   -0.8252383410
 H    3.0302828392    0.6966867475    1.4656140092
 H    1.7149470764    1.1387315281    3.3541230019
 H    1.6438914921   -1.1341913545    2.7885484761
 H   -0.8098449222   -2.7423099014    0.4035470814
 H    0.0535679849   -2.9380729905    2.0023924917
 H   -1.2378212569   -1.1500508368    2.8431750435
 H   -0.1863267764   -0.5755155429   -0.9566933416