18

 C    0.0071757728    1.5394084077   -0.0750505738
 C    0.0035872517    0.0130084932    0.0938151908
 O    0.7205521126   -0.3843582528    1.2622809055
 C   -1.3600612370   -0.5271974846    0.0811566397
 C   -2.4909219275   -0.9429423535    0.1123131276
 C   -3.8426563652   -1.4862024509    0.1333811901
 C   -3.8696876813   -3.0095857232   -0.0348196512
 O   -5.2305074021   -3.4033717741    0.0040593721
 H    1.0370565703    1.9053928184   -0.0540730651
 H   -0.4574096796    1.8280992615   -1.0224081019
 H   -0.5529240566    2.0148191950    0.7366935142
 H    0.5701846392   -0.4311523389   -0.7338570377
 H    0.1743274315   -0.1564092069    2.0227680765
 H   -4.3437225471   -1.2328704488    1.0757059683
 H   -4.4461565924   -1.0383465763   -0.6656218853
 H   -3.3927337656   -3.2796956113   -0.9886252139
 H   -3.2855468958   -3.4763282487    0.7721209870
 H   -5.2722295778   -4.3578354058   -0.1033074031