19

 O    0.4666488009    1.1163825456   -0.4140646873
 C    0.2095808413   -0.1117714582    0.2230183133
 C   -0.1606780411   -0.0880470194    1.7416526479
 C   -1.3879078305   -0.9387632503    1.3751630262
 O   -2.1524569747   -1.6170861855    2.0023033125
 C   -1.1907102405   -0.6826007124   -0.1178247043
 C   -2.2752155404    0.2208158765   -0.7894464239
 C   -2.8574036671   -1.0506648519   -1.4595411327
 C   -1.5278319795   -1.7877194601   -1.1468356068
 H    1.3350347211    1.4272876034   -0.1399435571
 H    0.9995241420   -0.8472403607    0.0140109310
 H    0.5382348811   -0.5096003937    2.4679065959
 H   -0.4556562834    0.9181389448    2.0591960124
 H   -2.9270372039    0.7967616742   -0.1286696704
 H   -1.8011209046    0.8989869880   -1.5021716575
 H   -3.6880459649   -1.4657839983   -0.8842802851
 H   -3.1562847476   -0.9712634639   -2.5068133774
 H   -0.8304025079   -1.7687872469   -1.9897152834
 H   -1.5939768904   -2.8060424313   -0.7564560235