13

 N    0.0488937972   -1.1831682187   -0.0653656187
 C    0.0426955648   -0.0290640084   -0.0063146978
 C    0.0173164727    1.4274875241    0.0585954942
 C   -0.1729689056    2.1399798267    1.4026128510
 C    1.2480620457    2.2716651551    1.9759994693
 O    2.1465985856    1.6108528699    1.0860655579
 C    1.3822412629    2.1952119296    0.0090781577
 C    0.7659646022    3.2686480685    0.9809306272
 H   -0.6730660925    1.8266512669   -0.6886317717
 H   -1.0691753131    2.1895042227    2.0056995124
 H    1.4891315510    2.3312921797    3.0279875177
 H    1.9386831033    2.3292414343   -0.9146715754
 H    0.6649696956    4.3437813999    0.9623926962