21

 C    0.1168288414    1.5195242811   -0.2572771429
 C   -0.0067522661    0.0233028350    0.0881004417
 C   -1.4222111636   -0.5052487714    0.0085347744
 N   -2.0365729060   -0.7324266207   -1.0893385061
 O   -1.2469652374   -0.4240722785   -2.2150503901
 C   -2.1668990914   -0.8208219334    1.2932280809
 C   -2.3669773417    0.4505313847    2.1432013461
 C   -3.4993461385   -1.5433026156    1.0711457270
 H    1.1619742904    1.8383817806   -0.1955611808
 H   -0.2410209114    1.7063027366   -1.2713465828
 H   -0.4645162190    2.1402035062    0.4308475757
 H    0.6074496864   -0.5502301573   -0.6141813665
 H    0.3886662881   -0.1598319591    1.0927098072
 H   -1.8301313833   -0.6720307025   -2.9396254896
 H   -1.5058190229   -1.4890836860    1.8667771958
 H   -3.0201805399    1.1612610670    1.6257912421
 H   -2.8353255713    0.1958011008    3.0991608732
 H   -1.4216282660    0.9554572508    2.3609724347
 H   -3.3641043062   -2.4632962809    0.4978111357
 H   -3.9522625097   -1.7958596734    2.0353502842
 H   -4.2002876019   -0.9132014038    0.5165837898