19

 C   -0.0936525257    1.4683807870    0.0429186256
 C    0.1834020211    0.0050797244   -0.0618765955
 O   -0.7528416933   -0.9235675554    0.5228478770
 C    0.6331155006   -1.0124081228    0.9098359872
 C    1.3859019713   -1.8129563540   -0.1731767156
 C    2.8969921862   -1.7114069494   -0.0220721551
 O    1.0033695269   -3.1459012725   -0.3657063741
 C    0.7760022178   -0.8025100170   -1.2360293746
 O   -0.1790560926   -1.3822358069   -2.0945114952
 H    0.8078996225    2.0482227898   -0.1790127099
 H   -0.8697768807    1.7686320336   -0.6696204158
 H   -0.4357954219    1.7217643430    1.0497051221
 H    0.8449559364   -0.9182278031    1.9700110936
 H    3.2344581720   -2.3238928113    0.8198689909
 H    3.3876445369   -2.0789227179   -0.9279900928
 H    3.2157926249   -0.6785240114    0.1552932878
 H    0.4264876149   -3.1444332903   -1.1433445899
 H    1.5233865895   -0.2919317635   -1.8471664450
 H   -0.9652895569   -1.5112877823   -1.5424311609