18

 C    0.0830899657    1.4909866926    0.1089548284
 C    0.0160604147    0.0033662935   -0.0122823250
 C   -0.0025929019   -0.7589433896   -1.1301419714
 C   -0.0350464356   -0.3003802385   -2.5158270942
 O   -0.0842854380   -1.0476866567   -3.4716977785
 C    0.0196869748   -2.2115663423   -0.7810203160
 N    1.2558983644   -2.5871265925   -0.0382750573
 C    0.0149324525   -2.2862232523    0.7032469971
 C   -0.0241333518   -0.8606294752    1.2376548448
 H    0.9998812135    1.7874960664    0.6337602183
 H    0.0649296539    2.0026796649   -0.8543866322
 H   -0.7532967054    1.8643499872    0.7133369107
 H   -0.0268759298    0.8007515668   -2.6628664787
 H   -0.4486002752   -2.9389618239   -1.4319795669
 H    1.3648410449   -3.5988913369   -0.0864185515
 H   -0.4855740483   -3.0824361168    1.2427907966
 H    0.8208933292   -0.6443614518    1.9028526190
 H   -0.9397814676   -0.6606364950    1.8114433869