19

 C    0.1784728835   -1.2277464585    0.0702881442
 C    0.1165046604   -0.0289729157    0.0321206752
 C    0.0021836777    1.4285864253    0.0023092087
 C   -0.8310959060    1.9418904255    1.1970978672
 C   -1.3682892325    3.3875552873    1.0792592560
 C   -0.5752170505    4.3332195838    0.1660433504
 O    0.8325705474    4.2559916093    0.3355932376
 C    1.4537986063    3.2746301920   -0.4455080791
 O    1.3274472639    1.9656786585    0.0385982481
 H    0.2440984152   -2.2873794294    0.0968603256
 H   -0.4792768439    1.7156254847   -0.9482021793
 H   -1.6694706225    1.2576185852    1.3578788990
 H   -0.1782990933    1.8512326362    2.0698737300
 H   -2.3989557005    3.3753639664    0.7031938903
 H   -1.4171529756    3.8161421995    2.0856469345
 H   -0.8240765237    4.1413483233   -0.8895556690
 H   -0.8597087154    5.3689168411    0.3786499161
 H    1.0707867084    3.3301606710   -1.4818688663
 H    2.5242234411    3.4897905143   -0.4254443490