18

 N    0.0432430252    1.0835018641   -0.0444862490
 H    0.4845070493    0.1695233510    0.0809786783
 H    0.7854783163    1.7804403503   -0.1310044316
 H   -0.5074465769    1.0683094681   -0.9057957343
 C   -0.8400303539    1.3543091266    1.2394714709
 C   -1.9022191430    0.2739935956    1.5249747201
 C   -1.2784595162    0.1158613560    2.9157318498
 C    0.1252859716   -0.3395666300    2.7984403991
 C   -0.1191851755    1.1245026015    2.5253194170
 C   -2.0647398264    0.2018685789    4.2567715247
 O   -3.2950942505    0.2521478231    4.0954374654
 O   -1.3230774416    0.2363716580    5.2519027876
 H   -1.2252753026    2.3632199159    1.0871845940
 H   -2.9141843213    0.6738741152    1.5883035672
 H   -1.8935264167   -0.6130169896    0.8770456604
 H    0.5851580956   -0.5078360293    3.7669090173
 H    0.4418970568   -1.0275365371    2.0087346081
 H    0.2923044898    1.9073135416    3.1483703150