19

 C   -0.0797635969    1.4423477176   -0.0888767457
 C    0.0016633881   -0.0368165874    0.1156912840
 C   -0.9965166696   -0.9098921337    0.2805249220
 C   -2.4353411959   -1.1573315841   -0.1194277713
 C   -1.9087092812   -2.5095321703   -0.7394831543
 C   -0.6053542533   -2.3483487277    0.1222873657
 C    0.8338752896   -2.2423008182   -0.4039372441
 O    1.4668683319   -3.0559418664   -1.0181798236
 C    1.3071359077   -0.8098120764   -0.0197248698
 H    0.4499545005    1.9869518296    0.7033212810
 H    0.3889585070    1.7390585954   -1.0361615233
 H   -1.1171460142    1.7885778678   -0.0947091893
 H   -3.1039752289   -1.3486361307    0.7267403970
 H   -2.9115172832   -0.4352259948   -0.7877479891
 H   -2.5107103911   -3.4013065971   -0.5548925621
 H   -1.7081803660   -2.4202127234   -1.8091249182
 H   -0.6286758928   -2.9733110613    1.0235727139
 H    1.9736665601   -0.4049991003   -0.7901065926
 H    1.8990277485   -0.8644236885    0.9054742097