15

 C   -0.0124613771    1.4560518262    0.0133635347
 N   -0.0238296153    0.0060665800   -0.0004343776
 C    0.0128737454   -0.7775522038   -1.1405789221
 C    0.0477102065   -2.0919742273   -0.7642830440
 C    0.0335536776   -2.1207540917    0.6650850880
 C    0.0511403406   -3.2891744259    1.5298134255
 O    0.0861000886   -4.4406747599    1.1489220514
 C   -0.0084432847   -0.8014911669    1.0931499301
 H    0.9788895676    1.8491055188   -0.2362886475
 H   -0.7366161007    1.8451622283   -0.7073528974
 H   -0.2894646228    1.8091469787    1.0080945332
 H    0.0086944678   -0.3153267791   -2.1153014996
 H    0.0711015105   -2.9546618217   -1.4104151117
 H    0.0302673281   -3.0509110720    2.6190957806
 H   -0.0281995720   -0.3890154237    2.0903844567