12

 C    0.2104547290    0.5124931263    0.8462196315
 C   -0.0854081768    0.4039764903   -0.6342104716
 O    0.6080288387    0.9043267159   -1.4900728214
 C   -1.3245599118   -0.3514191369   -1.0399162739
 C   -1.5663336827   -1.7326242023   -0.5722753990
 O   -2.2943099449   -0.6422325835   -0.0303826720
 H    1.1692318339    1.0120419695    0.9863954182
 H   -0.5858329750    1.0820977910    1.3367217827
 H    0.2267286305   -0.4706084270    1.3272420636
 H   -1.7206887931   -0.0605968271   -2.0113617839
 H   -2.1284123443   -2.4077039335   -1.2152754657
 H   -0.8563036535   -2.2099569727    0.1008196616