21

 C   -0.0639074347    1.4299509842    0.1646550184
 C    1.2948193513    0.8200539285   -0.0361126903
 C    1.7529580527    0.1253565382    1.2507168535
 C    0.4675395402   -0.7739414129    1.2031084981
 C    0.0335049110   -0.0485520674   -0.0790810886
 C    0.7810585411   -2.2397571667    1.0037848044
 C    1.1465565730   -3.0846052489    2.2469154604
 C   -0.0813696834   -3.9295148662    1.8540876445
 O   -0.4105920254   -3.0346609207    0.7725365406
 H   -0.3584398534    1.8099283821    1.1412861406
 H   -0.4411062666    2.0130017365   -0.6696179461
 H    1.9425300449    1.1277040603   -0.8480781849
 H    2.6660576617   -0.4637064485    1.1245490082
 H    1.8743359621    0.7672451421    2.1293702645
 H   -0.2240805881   -0.6669136464    2.0476691706
 H   -0.4499202393   -0.5267322862   -0.9222127311
 H    1.4855644413   -2.3574494496    0.1665082631
 H    2.1108838033   -3.5935208163    2.2187822384
 H    1.0494064412   -2.5491192112    3.1938111038
 H    0.1465899113   -4.9406660691    1.4924828103
 H   -0.8883623941   -3.9944127420    2.5935384914