21

 C    0.0344576564    1.5699240105   -0.0952197456
 C   -0.0151221856    0.0577921180    0.1395121045
 C   -1.4288146950   -0.5341136383    0.0443510271
 C   -2.1037330790   -0.5777020041   -1.3677413979
 N   -2.5358972044   -1.9552520597   -1.0934521238
 C   -2.5269190875   -2.9184317418   -2.1698809570
 C   -1.5546711091   -2.0926187636   -0.0076944468
 C   -2.3085156313    0.0471348986    1.0551214676
 N   -2.9810925092    0.5227526605    1.8668047482
 H    1.0622199624    1.9370751826   -0.0257725139
 H   -0.3460116897    1.8307717388   -1.0886594342
 H   -0.5666919832    2.1048428701    0.6458470048
 H    0.6096005046   -0.4575297166   -0.5986865449
 H    0.4003046118   -0.1819864188    1.1254893258
 H   -2.9096401312    0.1320752582   -1.5745031002
 H   -1.3375379091   -0.4999459145   -2.1580294481
 H   -1.5417467024   -3.0058527622   -2.6673459688
 H   -2.8030476774   -3.9055206657   -1.7850012889
 H   -3.2663931367   -2.6352750907   -2.9260297397
 H   -0.5991213354   -2.5434628705   -0.3245614058
 H   -1.9173514988   -2.6052653907    0.8878985378