17

 O    0.0300118340    1.4918699346    0.0724483093
 C    0.0010589310    0.0748771117    0.0179976868
 C    0.5812879714   -0.5881982524    1.2781998387
 O   -0.5372189350   -0.7982701388    2.1608711469
 C   -1.7034174949   -0.8507718932    1.4432332407
 N   -2.8417999365   -1.1046178568    1.9208935678
 C   -1.4067795321   -0.5057024715    0.0146584006
 C   -2.4584657277   -0.1040585968   -0.9454076710
 N   -1.8805195976   -1.4524829856   -1.0219508042
 H   -0.5563569216    1.7815809617    0.7807463632
 H    0.5707700557   -0.1912798316   -0.8762770030
 H    1.0464457273   -1.5547308091    1.0494911646
 H    1.3031628087    0.0549268293    1.7848348837
 H   -2.7814745414   -1.3210918562    2.9167860354
 H   -3.4835973327   -0.0763201563   -0.5897614771
 H   -2.1907420818    0.6331677093   -1.6974510779
 H   -1.1929819567   -1.4849598781   -1.7731460446