17

 O   -0.2311783273    1.1710736543    1.2054488020
 C   -0.0333508541    0.1726882974    0.2293334752
 C    0.5095924350   -1.1615116442    0.8080292460
 C   -0.9533185776   -1.7002172843    0.9330188387
 C   -1.5114673219   -1.5617950604    2.3304425863
 O   -1.9983929251   -2.4746412098    2.9482012351
 C   -1.3875838753   -0.5509799516   -0.0555938972
 C   -2.6357172806    0.1505511460    0.1525682721
 C   -3.6852147676    0.7098261108    0.3268910480
 H    0.6330517293    1.4782008891    1.4989418269
 H    0.4811197255    0.5754092965   -0.6522418175
 H    1.0885778819   -1.7365988991    0.0815154803
 H    1.0858599356   -1.0749188556    1.7329470424
 H   -1.1356089224   -2.7175196703    0.5848809295
 H   -1.4194872298   -0.5453566358    2.7662927428
 H   -1.3541420187   -0.9540841013   -1.0731211562
 H   -4.6077393768    1.2110506983    0.4860187854