18

 O   -0.0274690683    0.3748403768    0.6684515641
 C    0.0371990039    1.4914320588    0.2136830306
 N    1.0737749709    1.9717354830   -0.5684768263
 C    2.4625538864    1.6553264490   -0.3283078486
 C    1.9778128169    3.0771803438   -0.2229391673
 C    2.2801594811    4.1641588605   -1.2644097075
 C    2.0635235402    5.5122002117   -0.5236670090
 C    1.8954451626    5.1058755873    0.9214037294
 C    1.8492144586    3.7833600208    1.0802772967
 H   -0.7731302990    2.2375296435    0.3206318155
 H    2.6926583976    1.1123132744    0.5857009685
 H    3.0396359900    1.3577184478   -1.2005583217
 H    3.3175682803    4.0761589140   -1.6001552720
 H    1.6408432666    4.0499205102   -2.1417955627
 H    2.9078930541    6.1967907911   -0.6614656909
 H    1.1764312792    6.0492272502   -0.8837375027
 H    1.8114167337    5.8313513724    1.7227521148
 H    1.7153450552    3.2526652347    2.0161882990