19

 C    0.0559241338    1.2672822781   -0.3577910358
 O   -0.0473255866   -0.0070659581    0.2564594379
 C   -1.3190155861   -0.5832321681    0.1556361373
 C   -1.6710192044   -1.2912939284   -1.1452483488
 C   -1.3426226078   -2.0956927295    0.0864175506
 C   -0.0573882965   -2.8787667385    0.1620709072
 O   -0.2562885097   -4.0942447102   -0.5516876341
 C   -2.3614633389    0.0945932471    0.8880553508
 C   -3.2220367969    0.6744519097    1.4966149259
 H    1.0880173557    1.5968711280   -0.2213408601
 H   -0.1695355482    1.2150513730   -1.4321097160
 H   -0.6214077418    1.9933345700    0.1094799479
 H   -2.6956522336   -1.2542302241   -1.4948597540
 H   -0.9127548512   -1.2497186961   -1.9200638663
 H   -2.1815791690   -2.5645749514    0.5903401789
 H    0.7622427961   -2.2861794193   -0.2636110666
 H    0.1906115866   -3.0752054927    1.2167873526
 H    0.5449509100   -4.6195937921   -0.4667714872
 H   -3.9824006715    1.1788475227    2.0398080200