16

 O    0.0339157442    1.2385192651    1.1103280566
 C    0.0679735777    0.1293751674    0.2658736295
 C   -0.5216410437   -1.1951922962    0.6542203606
 C   -1.1683098074   -0.3640577169   -0.4548929125
 C   -2.4679157114    0.3016067843   -0.2088510141
 C   -2.7706602355    1.6309094519   -0.2618715116
 O   -4.0684011821    1.8390591804   -0.0021932145
 N   -4.6831819566    0.6121427578    0.2384323257
 C   -3.7332108130   -0.2783330825    0.1153563455
 H   -0.8287563752    1.2701069901    1.5381951151
 H    0.9995446165    0.1292483590   -0.2892925029
 H   -0.0032079517   -2.1089632433    0.3850605728
 H   -1.0495323833   -1.2410438641    1.6019546957
 H   -1.0191928982   -0.7267174178   -1.4687518377
 H   -2.1791202102    2.5096158742   -0.4670619101
 H   -3.9689379500   -1.3234754693    0.2612607918