19

 C   -0.2765082162   -1.1934058905    0.3340518949
 C   -0.1310876383   -0.0126194325    0.1519657101
 C    0.0342283794    1.3930302375   -0.0762827182
 C    0.6072426329    2.2861686957    1.0170167397
 C    1.4215213138    2.0102421812   -0.2142396521
 C    2.6702992920    1.1555537975   -0.1519588390
 C    3.8839266950    1.9668633700    0.2356938126
 C    5.2103921673    1.7207803096   -0.3409135967
 O    4.4197271232    2.8288556461   -0.7751863313
 H   -0.4098871861   -2.2339519445    0.4965391823
 H   -0.7382470419    1.8407003502   -0.6947892808
 H    0.1612920615    3.2655485130    1.1479481694
 H    0.8975726235    1.7939315343    1.9388939684
 H    1.4816241297    2.8200234723   -0.9356433266
 H    2.5290482225    0.3416957536    0.5686362976
 H    2.8511322450    0.6904863924   -1.1280479355
 H    3.8392574849    2.4301382437    1.2232526690
 H    6.1061348442    1.9765107740    0.2235727148
 H    5.3362747675    0.9222447065   -1.0714223986