13

 O   -0.4123400767    1.1281945484    1.0782832516
 C    0.0423391923    1.2515466991   -0.0270107262
 C    1.4701567527    1.6980169145   -0.3234122949
 C    1.4938316173    2.8555905112   -1.2750179631
 N    1.8223134123    2.6676810227   -2.5331770773
 O    1.7123497499    3.9112500659   -3.1436575120
 C    1.3179027392    4.8095362185   -2.2307467520
 C    1.1553014065    4.2181646710   -1.0215530744
 H   -0.5620571354    1.0388180073   -0.9364655571
 H    1.9608064553    1.9402019815    0.6225142866
 H    1.9920592002    0.8553864763   -0.7925844271
 H    1.1988513108    5.8209498566   -2.5874000551
 H    0.8484380757    4.6683472370   -0.0922996989