15

 O   -0.0834651197    1.3191999625    0.0079830931
 N    0.0249917998   -0.0813873141    0.0038815096
 C   -1.1310032179   -0.6291035123    0.0114906981
 C   -1.2729114338   -2.1463412986    0.0090326841
 N   -2.7335508283   -2.3241641942    0.0198444580
 C   -3.3905230440   -3.5274699616    0.0220958545
 O   -4.5946277698   -3.6502966539    0.0313162934
 C   -3.3579193578   -1.0807941524    0.0275595614
 C   -2.4723274776   -0.0658498472    0.0231195566
 H    0.8391737125    1.5943371217    0.0015299544
 H   -0.8292065248   -2.5982437358   -0.8834199324
 H   -0.8155505799   -2.6024004154    0.8924307494
 H   -2.6860079944   -4.3801116770    0.0149110982
 H   -4.4376232019   -1.0634557613    0.0359019609
 H   -2.6999805925    0.9867344196    0.0273286307