20

 C   -0.1060470484    1.5301311954    0.0434845553
 C    0.0955904184    0.0169796145    0.0353607546
 C    1.0983505287   -0.5923966157   -0.9715935331
 C    2.4441384924    0.0827131698   -0.6317091038
 C    2.2825852195   -0.7601767474    0.6297218419
 N    1.6114333228   -1.8487353116   -0.2040408100
 C    0.6631687432   -2.0946874359    0.9350603520
 C    0.8214789841   -0.5958875095    1.2555614122
 O    0.5159826959    0.0098757836    2.4687436474
 H    0.8083509215    2.0819522243    0.2718657823
 H   -0.4803154240    1.8780213119   -0.9255404801
 H   -0.8418981085    1.8002687767    0.8061504733
 H   -0.8884877330   -0.4520914241   -0.0781665244
 H    0.7717326022   -0.7556646593   -1.9984873670
 H    3.2563142441   -0.3092523080   -1.2479760508
 H    2.5009392881    1.1690507210   -0.5740763681
 H    3.1002280221   -1.0509613154    1.2937011817
 H   -0.3291466588   -2.4835841143    0.6851286019
 H    1.1581397936   -2.7666678728    1.6450334717
 H    0.9858254162   -0.4522244430    3.1703236931