13

 C    0.0526714002    1.5362300733    0.0191099543
 C   -0.0750900087    0.0518887638    0.1164936224
 C   -1.3435008348   -0.8174634858   -0.0060964878
 C   -0.6545978596   -1.7909888680    0.9988751332
 O   -1.0310015838   -2.7363266625    1.6234897795
 C    0.5949609633   -0.9188376244    1.0309277150
 O    0.9862681163   -0.7745214760   -0.3550032455
 H    1.0651483332    1.8501914312    0.2848255830
 H   -0.1531753475    1.8739156258   -1.0024403731
 H   -0.6595778604    2.0306335980    0.6867263310
 H   -2.2468438520   -0.3901578638    0.4402989432
 H   -1.5603448218   -1.1927014883   -1.0080889887
 H    1.3639661255   -0.7949558933    1.7846664134