15

 O    0.0479177221    1.3333659108   -0.2606986291
 C   -0.0002523685   -0.0347373314    0.1104067239
 C   -1.3800335059   -0.5835269054    0.0128694695
 C   -2.2887943527   -0.9794427243   -1.1240674405
 C   -3.4667710755   -0.4105807124   -0.2967100695
 C   -3.1800649724   -1.3563874370    0.8124467595
 C   -1.9914271164   -1.9613889717    0.0239574617
 N   -2.5450780340    0.0112392002    0.8179682527
 H   -0.6163182954    1.7859004930    0.2723979095
 H    0.6669294095   -0.5755543175   -0.5701827941
 H    0.3795591183   -0.1827067344    1.1346226322
 H   -2.0942139455   -1.0838749679   -2.1816813875
 H   -4.3560141434    0.1525907934   -0.5527134553
 H   -3.7898796695   -1.7145828454    1.6332021481
 H   -1.5369081207   -2.9411061297   -0.0129774311