14

 O   -0.0689477885    1.3822215455    0.0103316667
 C    0.0424554377    0.0295813702    0.0027066488
 C    1.2756607672   -0.5704553734   -0.0079073987
 N    1.6181309460   -1.8821157866   -0.0164399454
 C    0.8571379361   -2.9241222086   -0.0173588103
 C   -0.6153647704   -3.0976455697   -0.0105318459
 O   -1.0759967953   -4.2334147662   -0.0127038840
 C   -1.5181566369   -1.9389247725    0.0018539210
 C   -1.2377967355   -0.6174598162    0.0072918782
 H    0.8101943919    1.7800996410    0.0069936612
 H    2.1368757675    0.1013010847   -0.0097875954
 H    1.3649588570   -3.8908805445   -0.0250769749
 H   -2.5637763120   -2.2348747365    0.0069081041
 H   -2.0711808448    0.0799294429    0.0162998647