22

 C    0.0273530997    1.3905239950    0.0894452879
 O    0.0294718836   -0.0171763757    0.0917986500
 C   -1.2623297628   -0.5702881733   -0.0155249748
 C   -1.1373186777   -2.0974843449   -0.0017797106
 C   -0.4262121748   -2.5705738776    1.2724084172
 C   -2.5335465528   -2.7646149723   -0.1610548107
 C   -3.2990799962   -2.3616970830   -1.4403093186
 C   -2.4003601974   -4.2264228314   -0.1273795949
 N   -2.3015574543   -5.3781758593   -0.1223985426
 H    1.0661926960    1.7185641380    0.1708285856
 H   -0.4025153720    1.7970367677   -0.8398087729
 H   -0.5430462097    1.7996681083    0.9382679819
 H   -1.8970434410   -0.2361698420    0.8265752011
 H   -1.7405183461   -0.2185072643   -0.9427625092
 H   -0.5312324019   -2.3832270028   -0.8709706835
 H   -0.2704537670   -3.6521021834    1.2617844296
 H    0.5421772605   -2.0767082064    1.3636774911
 H   -1.0166452726   -2.3219368854    2.1629400399
 H   -3.1422368769   -2.4874050155    0.7111389878
 H   -4.2136522890   -2.9511087693   -1.5399779390
 H   -3.5797527703   -1.3071367726   -1.4106905209
 H   -2.6855475074   -2.5343840298   -2.3293178244