17

 C    0.0726688297    1.5304346149    0.0342821323
 C    0.0429077288    0.0796646946   -0.0073147139
 C    0.0143281319   -1.1297611704   -0.0411647927
 C   -0.0167222205   -2.4886464712   -0.0793798932
 C   -0.0470440780   -3.6974557810   -0.1128277722
 C   -0.0694141982   -5.1455600465   -0.1562006874
 C   -1.4496205560   -5.7837224149    0.1107054946
 C   -1.4686300206   -7.3007238930    0.0442241737
 O   -2.4302697136   -5.1296445897    0.3518857850
 H    1.0732732292    1.9137592751   -0.1959288839
 H   -0.6245396225    1.9620242522   -0.6928252482
 H   -0.2070019496    1.9042353174    1.0258027771
 H    0.2825610057   -5.5121905048   -1.1316115195
 H    0.6354303144   -5.5681253031    0.5750064846
 H   -0.7575135015   -7.7267456407    0.7607877701
 H   -2.4729252467   -7.6640925256    0.2628607585
 H   -1.1624281327   -7.6432767932   -0.9507101847