15

 O   -0.5799880534    0.5366368995    0.6617297235
 C    0.2164032348    0.8501970932   -0.1850670902
 C    1.2981673205    1.8957045735    0.0156801435
 C    1.3250739421    2.9324457836   -1.1092745055
 C    2.5514037137    3.8583936631   -1.2124449272
 O    3.6706534909    3.0164543792   -1.4506285916
 C    2.8835078575    3.4294393365   -2.5937791504
 C    1.6827584844    2.4878099440   -2.5725276393
 O    1.1467875457    1.7836710030   -3.3735373244
 H    0.2087150462    0.3761351744   -1.1901712540
 H    1.1451596874    2.3662470558    0.9917388358
 H    2.2672639550    1.3794276666    0.0285000529
 H    0.3847546991    3.4963839865   -1.1574067235
 H    2.7219876838    4.8225429787   -0.7498990404
 H    3.3975256722    3.9307299425   -3.4044378392