19

 C    0.0523240725    1.5231588540    0.0333884556
 O    1.2136139805    0.6539488152    0.0169040944
 C   -0.0691309408    0.0742790237   -0.0011152292
 C   -0.6115979572   -1.0074294513    0.9259375648
 C   -1.8459464544   -1.1270971952   -0.0354516458
 C   -2.2994571320   -2.5877915978   -0.0713684568
 C   -0.9159969459   -3.2968300529   -0.0833219358
 C    0.0023578208   -2.0752179050   -0.0514434655
 C   -0.6050821075   -0.9625463694   -0.9816967347
 H   -0.1002179332    2.0672754082    0.9647090932
 H   -0.0939445554    2.1104990825   -0.8723304374
 H   -0.6181440466   -1.0357373201    2.0162643092
 H   -2.6054437931   -0.3436013027   -0.0196111780
 H   -2.9030565119   -2.8506810602    0.8029721182
 H   -2.8970242300   -2.8091726562   -0.9612104865
 H   -0.7656356374   -3.9464579644    0.7845718815
 H   -0.7596061621   -3.9049521991   -0.9797558220
 H    1.0821514296   -2.2238404928   -0.0512525591
 H   -0.6041752758   -0.9395445766   -2.0721675760