22

 C    0.3150099037    1.5265790546    0.1674431126
 C   -0.2350926336    0.1247106411   -0.1227953986
 C    0.4470445692   -0.5049039801   -1.3168562235
 N    1.7638290205   -1.1202498906   -1.0995636133
 C    0.6272413046   -1.9823428173   -1.5272505492
 C    0.1707701190   -3.0149841823   -0.5116129972
 C    0.6210937333   -2.4421187704   -2.8964906507
 C    0.6248728313   -2.8511511880   -4.0307447046
 C    0.6261816336   -3.3394796226   -5.4022607871
 H    1.3888071233    1.4809810854    0.3736419197
 H    0.1644814403    2.1976524595   -0.6856721051
 H   -0.1797558190    1.9742394467    1.0346297441
 H   -0.0990359433   -0.5080758108    0.7585311311
 H   -1.3142245807    0.1777767407   -0.3161181514
 H    0.3251342444    0.0628154477   -2.2392921984
 H    2.3743368497   -0.9463871194   -1.8937635865
 H    0.2768525648   -2.6359173951    0.5057551086
 H   -0.8742164362   -3.2915845219   -0.6829822760
 H    0.7795040473   -3.9198066326   -0.6007867473
 H    0.1879040124   -4.3417111680   -5.4644628221
 H    0.0475439019   -2.6839395140   -6.0627232618
 H    1.6439734335   -3.4000554926   -5.8039330934