16

 C   -0.1063966809    1.4491179097   -0.0655504413
 N   -0.0291174630   -0.0039039928    0.0352497663
 C    0.0230314261   -0.5672484678    1.3105207888
 O    0.0069620097    0.0854653713    2.3268416576
 C   -0.0025675701   -0.8843273429   -1.0758306078
 O    0.0611613994   -2.0803588322   -0.9511116518
 N   -0.0577046619   -0.2152419163   -2.2934784958
 C   -0.0521984143   -0.7714430216   -3.5748556992
 N    0.0079755167   -2.0092268492   -3.8258991020
 H    0.7607682304    1.8619400018   -0.5926579948
 H   -1.0291608946    1.7687710139   -0.5621089355
 H   -0.1089260568    1.8322470834    0.9551303078
 H    0.0794163126   -1.6612435353    1.2674987092
 H   -0.1100427051    0.7884525860   -2.2715570605
 H   -0.1076564307    0.0296414366   -4.3231392589
 H   -0.0029263675   -2.1539385446   -4.8343498021