17

 C   -0.2767303067    1.3609718868    0.1141626155
 C   -0.1347846643   -0.1129646249   -0.1143179022
 N    0.7573871347   -0.6133058907   -0.8558224214
 O   -1.1086993637   -0.7830408102    0.6030522211
 C   -1.1098307634   -2.1703804274    0.5529852544
 C   -2.3937425201   -2.8286251233    0.9053151730
 C   -1.9118872202   -2.8739504050   -0.5437985463
 C   -2.5944370787   -2.0862147707   -1.5291909651
 N   -3.1436242464   -1.4546657195   -2.3275182796
 H    0.5042197967    1.8895169727   -0.4299506261
 H   -1.2593543189    1.6972734729   -0.2307247457
 H   -0.2087351901    1.5897121094    1.1820124132
 H    0.6971326792   -1.6275486605   -0.9295918524
 H   -0.1750864525   -2.6411106619    0.8485469894
 H   -2.3725659056   -3.7546609976    1.4667441232
 H   -3.2302807540   -2.1729620009    1.1140394521
 H   -1.5208323260   -3.8166855891   -0.9115114131