20

 C    0.2863185123    1.4198917031    0.5673322842
 N   -0.0389581466    0.0448285679    0.1930292527
 C    0.3754861838   -0.3335247453   -1.1521628992
 C    1.8435385797   -0.2117820621   -1.3614735385
 N    2.9903952282   -0.1080995468   -1.4690217741
 C   -0.0781069656   -1.7593421242   -1.4488835103
 C   -1.4370035047   -1.9991056545   -2.0066230411
 N   -0.2474019206   -2.2860188117   -2.7964802617
 C    0.0336810510   -1.4573571560   -3.9606109877
 H    1.3566908442    1.6677132037    0.4932518801
 H   -0.2675328130    2.1104461973   -0.0781763560
 H   -0.0400993198    1.5913674153    1.5961215779
 H    0.3671269901   -0.6009877165    0.8629651589
 H   -0.1054397699    0.3599326750   -1.8504054079
 H    0.3424764489   -2.4839447967   -0.7515368671
 H   -2.0259445636   -2.8554143307   -1.6894708375
 H   -2.0221850085   -1.1148905386   -2.2608936649
 H   -0.3442922749   -0.4244783809   -3.8924553044
 H    1.1138679297   -1.4212080923   -4.1289934374
 H   -0.4335196509   -1.9219082461   -4.8340378059