16

 C   -0.0457750484    1.5756205932   -0.0446462537
 C    1.5009567436    1.4037888250    0.0012182398
 C    1.2276685844    0.1843099610    0.9297615691
 C   -0.0170908321    0.0198927342    0.0091389544
 C    0.6299001907   -0.3357694574   -1.3442413658
 C    1.7877055708    0.7197191783   -1.3502812126
 H   -0.4467270650    2.0206705374    0.8691024179
 H   -0.4879078455    2.0555815371   -0.9237657308
 H    2.1622524169    2.2181642640    0.2997851007
 H    1.9651642526   -0.6245427213    0.9532644288
 H    0.9620208909    0.4815324693    1.9470415147
 H   -0.8872785313   -0.5618808074    0.3156918660
 H    0.9986296085   -1.3654590000   -1.3705766767
 H   -0.0618091386   -0.2068659775   -2.1819988238
 H    1.7183848972    1.4160106888   -2.1912857700
 H    2.7788254452    0.2574188553   -1.3798649580