21

 C   -0.7020934873    1.2688139337    0.0985213753
 C    0.2525861696    0.0822704296   -0.0521055124
 C    0.5889939403   -0.5779391212    1.2848920160
 N    1.5343350176   -1.6768244178    1.0901721797
 C    1.9066703439   -2.3848315958    2.3082425046
 C    0.8518131642   -3.4103332257    2.8013967028
 O    0.5658676679   -4.3664994108    1.8009406251
 C    3.1719460497   -3.1127058544    2.0855844966
 N    4.1209210760   -3.7508550738    1.9180333580
 H   -0.2669805182    2.0513854777    0.7298770196
 H   -0.9304743833    1.7161081488   -0.8731459662
 H   -1.6502329480    0.9637137043    0.5547997010
 H   -0.1957277755   -0.6679183954   -0.7173687619
 H    1.1866364564    0.3994097867   -0.5288165192
 H    1.0641118422    0.1582098889    1.9472926539
 H   -0.3494297865   -0.8862517508    1.7810913592
 H    1.1519449538   -2.3580342589    0.4393878341
 H    2.0814014356   -1.6470220316    3.1015371725
 H    1.1883343597   -3.8758666187    3.7386139931
 H   -0.0847271418   -2.8821136649    3.0013044561
 H    1.3374850537   -4.9376002401    1.7048471723