18

 C    0.0268547952    1.5284286082   -0.1058597595
 C    0.0171821898    0.0124761429   -0.0490501899
 O    0.6542784034   -0.4835041892   -1.2213069289
 C    0.7260562503   -1.8329061803   -1.3179718514
 C    0.2966615876   -2.8249612690   -0.4874001700
 O    0.6182118106   -4.0371869571   -1.0194720987
 C    1.2592519970   -3.8031737699   -2.2047807612
 C    1.3570620948   -2.4661833929   -2.4444831824
 N    1.8679163453   -1.7699366760   -3.5468222113
 H    1.0521298374    1.9067685528   -0.1471601946
 H   -0.5084362274    1.8842301088   -0.9904988454
 H   -0.4589541373    1.9411173951    0.7830846451
 H    0.5519395528   -0.3558450906    0.8391325503
 H   -1.0107216413   -0.3763887104   -0.0032201885
 H   -0.2160888148   -2.8368792167    0.4576875354
 H    1.5768731071   -4.6745956041   -2.7515522753
 H    2.6556015466   -2.2301740557   -3.9831233271
 H    2.1181172130   -0.8210195559   -3.2992152066