21

 C   -0.0374985334    1.5236464201    0.0914557100
 C    0.0546059173    0.0127262948   -0.0425990959
 C   -1.2425200859   -0.7895504193    0.2022369985
 O   -0.5764283252   -1.6760732132    1.1375518020
 C    0.6169282864   -0.8341293694    1.1439640487
 C    1.8443762764   -1.5829109891    0.6474836668
 C    1.5437331025   -1.8025034721   -0.8500388340
 O    0.7133233710   -2.9359456548   -1.0584617808
 C    0.8655554515   -0.4729613543   -1.2667805687
 H    0.9583679300    1.9780375132    0.1384984577
 H   -0.5576487563    1.9633118682   -0.7674266001
 H   -0.5835639540    1.8141363793    0.9953137883
 H   -2.0389870054   -0.2200713243    0.6982540418
 H   -1.6605497520   -1.3355694160   -0.6502537887
 H    0.7370318871   -0.3348727829    2.1117204994
 H    2.7305361034   -0.9495381498    0.7784648360
 H    2.0164748922   -2.5238751093    1.1779448406
 H    2.4498536557   -1.9818903498   -1.4363154182
 H    0.0925181411   -2.9591255405   -0.3170097061
 H    0.2506962069   -0.6098188513   -2.1609690723
 H    1.6377463807    0.2687444603   -1.5060644951