21

 C   -0.2360042373    1.5588524984    0.0050333348
 C    0.0641828708    0.0485922609    0.0224196202
 C    0.8207521523   -0.4344051033   -1.1904411688
 C    2.1141702238   -0.7635333209   -1.1670212050
 C    2.8469864947   -1.2962743056   -2.3696951551
 O    3.7276558853   -2.3642712808   -2.0289240681
 C    1.8318532125   -1.7367237302   -3.4319441091
 O    0.8411897340   -0.7472012171   -3.6274116266
 C    0.0401804623   -0.5467662441   -2.4810030595
 H    0.6915101295    2.1376792743   -0.0373559468
 H   -0.8469178057    1.8438479324   -0.8569642806
 H   -0.7807675079    1.8532522938    0.9072843687
 H    0.6401721224   -0.1937526499    0.9219340068
 H   -0.8841976386   -0.5011697833    0.1023806312
 H    2.6949756751   -0.6818603617   -0.2498795891
 H    3.5033160195   -0.5248511880   -2.7916346295
 H    3.2121405651   -3.0155172825   -1.5392599062
 H    2.3166759072   -1.8982795550   -4.3977487589
 H    1.3777607836   -2.6922061736   -3.1130031534
 H   -0.7000944779   -1.3637751716   -2.3797721478
 H   -0.5303952409    0.3697385879   -2.6685002872