21

 C    0.0576595889    1.5723580128   -0.0192291344
 C   -0.0022453953    0.0399483969   -0.0089052011
 C   -1.4235897127   -0.5416206376    0.0119846796
 O   -2.1129904959   -0.1681080404    1.2086791115
 C   -2.2621681669   -0.1878488682   -1.2479123612
 O   -3.1684572924   -1.2616419208   -1.4712517778
 C   -2.6093195397   -2.4208835479   -0.9097524361
 C   -1.2000119711   -2.7910474706   -1.2937217418
 C   -1.4823311250   -2.0619550055    0.0092237170
 H    1.0949872226    1.9193578368   -0.0223055156
 H   -0.4319966316    1.9968295242   -0.9025518375
 H   -0.4176736192    2.0006385603    0.8705603771
 H    0.5270942795   -0.3548953802   -0.8836096290
 H    0.5234954960   -0.3381737767    0.8750355838
 H   -2.2178352038    0.7885714268    1.2089774731
 H   -2.8480129606    0.7265489106   -1.1129237081
 H   -1.6081478427   -0.0452992420   -2.1210981396
 H   -3.3568322419   -3.1760027035   -0.7005962262
 H   -0.9210329511   -3.8359594200   -1.2114785784
 H   -0.7192762398   -2.2675746356   -2.1133135827
 H   -1.3149047172   -2.5542559694    0.9590754975