19

 C   -0.2292099355    1.5380011093   -0.1654959143
 C   -0.0065494220    0.0526090352    0.0128216522
 C    1.3436335401   -0.5873756026   -0.1859856939
 O    2.4267890770    0.2753636904   -0.3836747137
 C    3.4283452973    0.2215704338    0.6190488032
 C    2.8777214169    0.5058012768    2.0027512354
 O    1.8696571848    1.5132481204    2.0731504294
 C    1.4763717318    0.1469066171    2.2663458267
 C    0.7194961656   -0.5798603425    1.1918512490
 H    0.6676700493    2.1044938919    0.0767351079
 H   -0.5093508826    1.7495700767   -1.2032160624
 H   -1.0420757404    1.8896669519    0.4784318646
 H   -0.8317099254   -0.5623746254   -0.3397615517
 H    1.4227428082   -1.5228149930   -0.7388637408
 H    3.9354915729   -0.7580509721    0.6356353369
 H    4.1669244271    0.9780020220    0.3354494991
 H    3.6082683051    0.5138070955    2.8118581994
 H    1.1711977251   -0.0769258932    3.2875715950
 H    0.3072681446   -1.5190625121    1.5502517779