21

 C   -0.3319140338    1.3029816195    0.1617489417
 O    0.2462571773    0.0349684294   -0.0803591691
 C    0.8476658886   -0.5315930443    1.0422730197
 C    2.2319600930   -0.1076468949    1.4182815245
 C    2.9771172601   -1.1475636906    1.7987909637
 C    2.2134892451   -2.4539096787    1.7195575803
 C    0.8215102703   -2.0329626291    1.2484523567
 C   -0.0296095933   -1.1315455507    2.1307139798
 C    0.1747987073   -0.9543371240    3.6178623641
 H    0.4197364977    2.0525468871    0.4495124139
 H   -0.8039272747    1.6227196292   -0.7703671104
 H   -1.0936423187    1.2567438533    0.9530700912
 H    2.5566230112    0.9261349369    1.3889282697
 H    3.9984664530   -1.0907230224    2.1592266046
 H    2.6841842889   -3.1540201169    1.0173304591
 H    2.1877736618   -2.9669420926    2.6903539441
 H    0.2967989807   -2.6579065421    0.5357047217
 H   -1.0751130780   -1.1569677437    1.8288731113
 H    1.2297043872   -0.8239670648    3.8716559416
 H   -0.3643109527   -0.0737365403    3.9842055326
 H   -0.1998111610   -1.8241815503    4.1695866994