20

 C   -0.1619991050    1.6430429533    0.2676743789
 N   -0.1317377582    0.1877712194    0.2900334430
 C    1.0157170193   -0.4928908809   -0.3030014060
 C    0.7868387834   -0.5335024439    1.1715220397
 C    1.7375825162    0.1810271894    2.1133826155
 C    0.1079860069   -1.7427160917    1.8362249240
 N   -0.9207896393   -1.2408643000    2.7495169926
 C   -0.4173770764   -2.7137067600    0.8522232294
 N   -0.8558129523   -3.4961429334    0.1223755012
 H    0.8294253746    2.1201229632    0.2649692090
 H   -0.6885146762    1.9631171194   -0.6367525253
 H   -0.7199022083    2.0116891066    1.1340187146
 H    0.7934599957   -1.3463703375   -0.9370239328
 H    1.8478249032    0.1250389688   -0.6407019820
 H    2.1427229195    1.0937712695    1.6736398385
 H    1.2273222890    0.4360656064    3.0466259406
 H    2.5846964760   -0.4691644540    2.3571650137
 H    0.8598010609   -2.2755904589    2.4314580218
 H   -1.6223917754   -0.7613524324    2.1906956963
 H   -1.3863868837   -2.0119596235    3.2180866972