18

 C    0.2666233885    0.9403384920   -1.8471583494
 C    0.2770122540   -0.3314358959   -1.0181005587
 C   -1.0791071993   -0.7175005762   -0.4608385064
 C    1.2662403098   -1.4036849479   -1.3416244135
 N    1.3900891490   -0.6369778567   -0.1007994988
 C    2.5124459365    0.2834659814    0.0142914726
 C    3.6660602703   -0.3961540375    0.6176221702
 N    4.5862609683   -0.9207790993    1.0777054786
 H    1.2333953132    1.1644757285   -2.3032376854
 H   -0.4596864601    0.8425267157   -2.6604923115
 H   -0.0371017486    1.8017093084   -1.2409115775
 H   -1.7876298822   -0.9189636741   -1.2719009981
 H   -0.9979758200   -1.6091549708    0.1643846969
 H   -1.4924534769    0.0910350239    0.1526333993
 H    1.0142694445   -2.4539460085   -1.2216110207
 H    1.9820663153   -1.1997208336   -2.1373180088
 H    2.8505310279    0.7218395329   -0.9380720904
 H    2.2248949998    1.1158527975    0.6672298518