22

 C    2.5437033205    2.2532315165   -1.0403503423
 C    1.3020230018    1.4484498514   -0.6606492620
 N    1.3751992455    0.1242687622   -1.2859960117
 C    1.9677929017   -1.0092101113   -0.6164318826
 C    2.5474765019   -0.9761422968    0.7804381556
 C    0.4722451455   -0.9684836465   -0.8977451559
 C   -0.5192006286   -0.8809897718    0.2195962707
 C   -1.7569785300   -1.7445584073    0.0393956807
 O   -0.3778652752   -0.1792856692    1.2029751990
 H    3.4515036859    1.7959967447   -0.6332540636
 H    2.6534473665    2.3085718563   -2.1271609825
 H    2.4738457257    3.2703515818   -0.6425009999
 H    1.1753170511    1.4144800205    0.4254921666
 H    0.4073904328    1.9357545882   -1.0650377221
 H    2.5264250071   -1.6509284714   -1.2994346989
 H    1.8899213174   -0.4805984792    1.4938220254
 H    2.7207012128   -2.0002418986    1.1274306845
 H    3.5167174329   -0.4656101886    0.7745756684
 H    0.1129271955   -1.5467478903   -1.7476245872
 H   -1.4774914383   -2.7856749369   -0.1581472333
 H   -2.3777119608   -1.6885894720    0.9339769531
 H   -2.3325972616   -1.4013781917   -0.8282879219