19

 O   -0.0475335609    1.5586168876    0.0650875967
 C    0.0710216647    0.1425453187    0.0818555377
 C    0.7050021203   -0.4052316426   -1.2021832875
 C   -0.0918154341   -0.0183769882   -2.4272907640
 O    0.3624507420    0.5296015656   -3.3973216957
 C    0.8348010507   -0.3171542005    1.3212732675
 C    0.1303216985   -0.1568770139    2.6836481354
 C    0.2241461617   -1.6949135078    2.7507427752
 O    0.8443885814   -1.7571412531    1.4440724510
 H    0.8151687835    1.9318884312   -0.1493125968
 H   -0.9590865830   -0.2288433338    0.1584885548
 H    1.7344237145   -0.0472980711   -1.3217566975
 H    0.7307787512   -1.5004454607   -1.1247569463
 H   -1.1725454293   -0.2874756485   -2.3722550493
 H    1.8596069376    0.0849071981    1.2857797979
 H    0.6907801308    0.3852812992    3.4454988947
 H   -0.8789278320    0.2532351288    2.6221751973
 H    0.8850479220   -2.0938729537    3.5291276880
 H   -0.7251903996   -2.2419256253    2.7768684107