18

 N   -0.0828658236    1.2858079853   -0.0318514433
 C   -0.0052611889   -0.0634455920   -0.1017260323
 O    1.0307952762   -0.6740811990   -0.3103854337
 C   -1.3273491316   -0.8299743957    0.0613685109
 O   -1.0400525361   -2.2103296591    0.0620579511
 C   -2.0781411667   -0.4586250962    1.3270650549
 C   -3.3458831185    0.3811017035    1.2539853979
 C   -3.4293806528   -1.0961843864    1.5125516239
 O   -3.9322056855   -1.8977418224    0.4885648117
 H    0.7643015669    1.8255455244   -0.1015594234
 H   -0.9343239403    1.7427304830    0.2464635958
 H   -1.9570753161   -0.5840060652   -0.8076441001
 H   -0.0914049566   -2.2694764313   -0.1482278555
 H   -1.4597297286   -0.3614682515    2.2149211880
 H   -3.5649989933    1.0670285840    2.0645521707
 H   -3.6741612652    0.7092930105    0.2729311115
 H   -3.6953167725   -1.4149035026    2.5198288640
 H   -3.2662427168   -2.5746313994    0.3084575278