21

 C    0.3338473968    1.5378570875    0.0751859823
 C   -0.2345038400    0.1350660283   -0.1262487872
 N    0.5205796590   -0.5651220587   -1.1632908021
 C    1.7329555198   -1.3068013217   -0.8718563748
 C    1.6758051706   -2.1240843004    0.4120031677
 N    1.6748824012   -3.5643994986    0.1255351158
 C    0.4233354905   -2.8181095463   -0.0622510445
 C   -0.8028392687   -3.2781332747    0.6711290474
 C    0.4745774065   -2.0020225011   -1.3561318523
 H    1.3684534184    1.4923590198    0.4313312742
 H    0.3257106677    2.0957998626   -0.8652464177
 H   -0.2533466871    2.0896278862    0.8155873825
 H   -0.2455478522   -0.4019019660    0.8326004082
 H   -1.2724974312    0.1981506022   -0.4737412435
 H    2.6320178370   -1.0718709773   -1.4327973284
 H    1.9450899671   -1.8106394447    1.4138491489
 H    2.1374066815   -3.7659964001   -0.7597305306
 H   -0.5316543984   -3.6752532432    1.6525727085
 H   -1.5205426824   -2.4631608246    0.8044998166
 H   -1.3066070256   -4.0780177218    0.1159689726
 H    0.2482792594   -2.3768626773   -2.3501867036