13

 C   -0.0169597380    1.5686062551    0.0465912980
 C   -0.0198308497    0.0333472751    0.0472602960
 C    0.7299641810   -0.5156968059    1.1862080695
 N    1.3532308678   -0.9197949278    2.0695198654
 N   -1.3876215768   -0.4962019624    0.0381186407
 N   -2.3101615722   -0.2163288160    0.9460233129
 N   -3.3662638883   -0.8600421560    0.5591676235
 N   -3.0840926965   -1.5257829022   -0.5812160000
 N   -1.8511926896   -1.3024020855   -0.9081711241
 H    1.0141951442    1.9267920510    0.0214916496
 H   -0.5446113686    1.9343314406   -0.8369347548
 H   -0.5052059926    1.9512323003    0.9440661697
 H    0.4248585593   -0.3517071764   -0.8744711963