18

 O   -0.0996527056   -0.0196357231    0.3930438920
 C   -0.0157436890    1.1748912358    0.1908598118
 N    1.1502770978    1.8480914672    0.0479556395
 C    2.4308879744    1.1983399853    0.1236008150
 C    3.5419564520    2.2179361102   -0.0757574798
 O    3.2864148819    3.3919636801   -0.2656758467
 C    4.9287075722    1.6956282544   -0.0241926441
 C    5.9639602031    2.3686491283   -0.9182505169
 C    6.0021481783    2.6145034759    0.5479626199
 H   -0.8958422779    1.8417339581    0.1019949810
 H    1.1756366021    2.8445239158   -0.1195592005
 H    2.5739729122    0.6960430909    1.0912576044
 H    2.5294084954    0.4073155130   -0.6338340778
 H    5.0333456035    0.6308810310    0.1516065929
 H    6.7136233782    1.7265789260   -1.3654511077
 H    5.5877229753    3.1643516071   -1.5505711406
 H    5.6517451953    3.5760320933    0.9046153557
 H    6.7789262708    2.1468650709    1.1414051520