23

 C   -0.2208013846    1.5306648004    0.0372944259
 C    0.0258439058    0.0220164916   -0.0366845889
 C    0.5910735960   -0.5603977694    1.2623765400
 C    0.9019109295   -2.0629642675    1.1636104520
 O    1.8213013968   -2.3321152673    0.1124390119
 C    1.4461607150   -2.6302558645    2.4646270274
 O    2.7418973820   -2.1502795494    2.7588144880
 C    0.5364290944   -2.9753399901    3.6111853744
 C    1.2293521129   -4.0670224112    2.8144013979
 H    0.7073320951    2.0740658924    0.2484947739
 H   -0.6222193248    1.9153572236   -0.9055313879
 H   -0.9357094570    1.7812780650    0.8294978799
 H   -0.9133441074   -0.4923396877   -0.2812151913
 H    0.7207829507   -0.2090001848   -0.8504154768
 H    1.5151522261   -0.0237874698    1.5242402984
 H   -0.1144016184   -0.3946633472    2.0881611725
 H   -0.0219863552   -2.5975535553    0.9068284313
 H    2.6972501594   -2.1880643456    0.4938323290
 H    2.6556639859   -1.2574275034    3.1114414972
 H    0.9069834897   -2.7818494844    4.6118957384
 H   -0.5328889234   -2.8386551425    3.4870241760
 H    0.6381146660   -4.6759361807    2.1398383103
 H    2.0555844454   -4.5795054723    3.2928679205