19

 O   -0.7231538588    0.8409117762    0.6490367700
 C    0.0190714338    1.0013861099   -0.2846904238
 C    1.3503173135    1.7168523784   -0.2245213661
 C    1.3984412775    2.8988856002   -1.1926559670
 C    0.6054627876    4.2026097220   -0.8620921241
 C    1.8151097503    5.0455960845   -1.3653667978
 C    2.6587401441    3.7736378077   -1.2604417127
 C    3.9471668639    3.5837427174   -0.5916859971
 O    3.8118594543    3.4791896438   -2.0188858524
 H   -0.2477839923    0.6233803969   -1.3004397016
 H    1.5342379715    2.0329658183    0.8065607931
 H    2.1274276437    0.9930811661   -0.5121188966
 H    1.1560041011    2.5599768766   -2.2078360207
 H   -0.3464961223    4.3448618722   -1.3755070403
 H    0.4451250971    4.3137174197    0.2134740071
 H    1.6988426894    5.3589407420   -2.4069068959
 H    2.1209524415    5.9068414111   -0.7676904817
 H    4.5024697677    4.4518555087   -0.2383756477
 H    4.1696779163    2.6501311685   -0.0766969946