13

 O   -0.0139814719   -0.0647356732   -0.0031629788
 C    0.0256337627    1.1404652606    0.0064028224
 C    1.2511298057    1.9588324102   -0.0002128480
 N    2.4775451507    1.4132864932   -0.0182747579
 N    3.3017690377    2.4523617555   -0.0185663888
 C    2.6679620657    3.6691201493   -0.0013446028
 C    1.3158684861    3.3702349697    0.0107703116
 C    3.3743600057    4.8883658064    0.0012127908
 C    3.9940670158    5.9203886760    0.0031174532
 H   -0.9046485297    1.7521462449    0.0215817907
 H    4.2982271067    2.2971073231   -0.0308051199
 H    0.5013584634    4.0756309825    0.0255243747
 H    4.5332734513    6.8356677518    0.0049032827