18

 C   -0.1124044885    1.4688669852    0.0529428886
 C   -0.0508824707   -0.0265734443    0.1174751480
 C    0.6192632525   -1.0545781686   -0.8768889714
 C    1.9387087047   -1.0591015791   -0.0804047124
 C    0.8547389235   -0.9490749725    1.0109780108
 C   -0.1234729761   -1.8827199284    0.2295031304
 N   -1.2378059490   -0.9123548129    0.3599637331
 C   -2.4262815177   -0.9557250439   -0.3131140309
 O   -3.0021862809   -1.9705342934   -0.6459865991
 H    0.8950547198    1.8795499242   -0.0678175914
 H   -0.7178174861    1.8090837902   -0.7930878610
 H   -0.5417724259    1.8799190306    0.9718146926
 H    0.4470262367   -1.1166696692   -1.9523527977
 H    2.5168276628   -1.9865137701   -0.1000214590
 H    2.5978170153   -0.1963923451   -0.2098726590
 H    0.9512302265   -0.8876842239    2.0952038413
 H   -0.2567241101   -2.9585066504    0.3055634576
 H   -2.8607897068    0.0565271116   -0.4500295505