21

 C   -0.1086615943    1.5152843125   -0.0240404840
 C    0.0385684552   -0.0051027299    0.0044866913
 C    0.7253282556   -0.4744912933    1.2969277859
 O   -1.2820446896   -0.5386371433   -0.0719961134
 C    0.8208911190   -0.4803323908   -1.2288909506
 O    0.7661176957   -1.8983071680   -1.2397179323
 C    1.3356458556   -2.4707766191   -2.4014314368
 C    1.2214805373   -3.9220255073   -2.3469116023
 C    1.1375182003   -5.1195061539   -2.3240499444
 H    0.8677113252    2.0082654624    0.0102186036
 H   -0.6346981214    1.8329316418   -0.9287726358
 H   -0.6917295633    1.8456887282    0.8399803462
 H    0.1086630957   -0.2037993839    2.1579613805
 H    0.8572974456   -1.5596107799    1.2878734464
 H    1.7116080146   -0.0126649883    1.4156199381
 H   -1.1783281812   -1.4752793074   -0.2814224577
 H    0.3510006168   -0.0781118483   -2.1401245423
 H    1.8661552599   -0.1336116740   -1.1962736606
 H    0.8297782172   -2.0899029063   -3.3046596238
 H    2.3969472381   -2.1837048127   -2.4885768038
 H    1.0618330980   -6.1786130883   -2.2994307144