13

 N    0.0752958912    1.2727222512   -0.1241213710
 C   -0.0321958133   -0.0841537943   -0.0670125696
 N   -1.1338555261   -0.7877573443   -0.0969659517
 C   -0.6803779146   -2.0857102188   -0.0873016656
 O   -1.5291546329   -3.1199836083   -0.1115532344
 C    0.6848874853   -2.1387004300   -0.0454027611
 O    1.1022476748   -0.7866004523   -0.0323605470
 C    1.6374378359   -3.1531577864   -0.0115566866
 C    2.4602139163   -4.0355805967    0.0172292480
 H    0.9292649271    1.6618364960    0.2445159571
 H   -0.7653005836    1.7703408051    0.1240237907
 H   -2.4197377642   -2.7493808948   -0.1453078250
 H    3.1779402642   -4.8169713363    0.0429203761