21

 C   -0.0442076280    1.7369118858   -0.0035117966
 C    0.0982375146    0.2055959600    0.0473215274
 C    0.8831264158   -0.2231753363    1.2986412860
 C   -1.3107091453   -0.4722147601    0.0232270481
 C   -2.1516349019   -0.1631846755    1.2411248983
 O   -2.9542677993    0.7350227091    1.3003745311
 C    0.7912411057   -0.2504451786   -1.2348435418
 C    2.2205078249   -0.5608012847   -1.3663318308
 O    1.2417421887   -1.6039030062   -1.3035616208
 H    0.9411109819    2.2142106288   -0.0043367390
 H   -0.5765999278    2.0568652829   -0.9054823371
 H   -0.6051689379    2.1116070520    0.8564629561
 H    0.3331186487    0.0217759586    2.2115122533
 H    1.0764257848   -1.2995099400    1.2885431533
 H    1.8427343882    0.2989177916    1.3566928415
 H   -1.8592357494   -0.1253043442   -0.8586933054
 H   -1.1690144021   -1.5566554069   -0.0501902690
 H   -1.9814185079   -0.8252289850    2.1203509406
 H    0.2765112388    0.0792788171   -2.1410838821
 H    2.7069148622   -0.4365762834   -2.3329376753
 H    2.8814782852   -0.4936133651   -0.5060199078