18

 C   -0.1587418548    1.6853771357    0.0786026374
 C    0.0452202509    0.1927037034    0.0962549185
 C   -1.0118870614   -0.7382934242   -0.4300254954
 C   -1.0193553168   -1.8980105859    0.2313893253
 C    0.0101808820   -1.9362736746    1.3404190781
 C    0.7219700434   -0.5922148407    1.2085891565
 N    1.4185803784   -0.3109792469   -0.0280512535
 C    1.8817669271   -1.2456769515   -0.9322926891
 O    2.4675316720   -2.2612800321   -0.6400209198
 H    0.6820551763    2.1953369061    0.5547582055
 H   -0.2403593046    2.0567350570   -0.9490818125
 H   -1.0795709022    1.9548334716    0.6058535027
 H   -1.6588828518   -0.4727074314   -1.2580093496
 H   -1.6489250235   -2.7484911238   -0.0040326309
 H   -0.4579974006   -2.0315332568    2.3275837745
 H    0.7059229628   -2.7745098399    1.2262299385
 H    1.1219751634   -0.1039228531    2.0921156570
 H    1.7202284792   -0.9213034733   -1.9787899232