15

 O   -0.0075140309    1.4217152727   -0.0766777990
 C    0.0564194566    0.0092331249   -0.0510516065
 C    1.0062372170   -0.5178955909   -1.0211958636
 C    1.8175560056   -0.9337741678   -1.8058233325
 C    0.0446949894   -0.6548542820    1.3535909985
 C   -1.4729694885   -0.3320246057    1.5399286393
 O   -1.8384198067   -1.6975137803    1.8917376967
 C   -0.8310996098   -1.8407125977    0.8468783780
 C   -1.3458809540   -0.6293425257    0.0110154847
 H    0.8913093698    1.7614990442   -0.1412425791
 H    2.5239616994   -1.3057388123   -2.5065898961
 H    0.8214245414   -0.6810948237    2.1167498101
 H   -1.9560786614    0.4951570313    2.0535881203
 H   -0.5396655278   -2.8373067178    0.5230597377
 H   -2.1336232202   -0.6213658294   -0.7401833085