17

 C   -0.4404609481    1.0430904030   -0.2067013089
 O    0.5199456388    0.0218815990    0.0492590321
 C    0.9780547520   -0.6009825725   -1.0911022314
 C    1.3521543472   -2.0431048165   -0.9310086654
 N    1.0347808029   -2.6714536290    0.3202856282
 C    0.0843533979   -1.6745292685   -1.7426305676
 O   -1.1132375457   -1.9791866289   -1.1242916725
 C    0.1042660072   -1.8081338913   -3.1736949893
 N    0.1650280845   -1.8849477619   -4.3271440374
 H   -0.0186797260    1.8260591719   -0.8515736205
 H   -1.3362379689    0.6241528383   -0.6761024660
 H   -0.6990398408    1.4778241448    0.7606628234
 H    1.5812407670    0.0116661817   -1.7631073937
 H    2.2154708309   -2.4061341552   -1.4789534618
 H    1.5580647689   -3.5247554591    0.4603612613
 H    1.1817897362   -2.0411970772    1.1004325651
 H   -0.8510118541   -2.5123100487   -0.3460174357