17

 C    0.0388461837    1.4639827201    0.0170441401
 N   -0.0003691154    0.0105225183   -0.0044845058
 N    0.0202097976   -0.5912624456   -1.1914420252
 C    0.0504195667   -1.8908937751   -1.1993456222
 C    0.0728074946   -2.7152732899   -0.0045051520
 N    0.0978088308   -4.0031230514    0.0668782789
 C    0.0663933422   -1.9048306197    1.2178003253
 C    0.0954383477   -2.5840868794    2.5481895475
 N    0.0349882942   -0.6038503253    1.1902111181
 H    1.0354196375    1.8217718205    0.2970293697
 H   -0.2098870562    1.8176813619   -0.9820707828
 H   -0.6867003206    1.8341769113    0.7436794123
 H    0.0576676763   -2.3558408372   -2.1820818225
 H    0.0990380885   -4.4097756827   -0.8718610231
 H    0.9832867894   -3.2205627715    2.6241919467
 H    0.0886252777   -1.8492117170    3.3540722224
 H   -0.7629481547   -3.2574120774    2.6434401826