20

 O   -0.0417837617    1.4249606988   -0.1612743349
 C    0.0387564830    0.0154003935   -0.0155960004
 C   -1.3799558316   -0.5381847150   -0.0177938628
 C   -1.4294135512   -2.0614334325    0.1386063646
 C   -2.8487886592   -2.6160736340    0.1169928260
 C   -3.5787192098   -2.6625225387   -1.2468125293
 O   -3.7215536805   -4.0954624826   -1.1770667240
 C   -3.0127861292   -4.1524624438    0.0769707835
 H    0.8521281174    1.7790199817   -0.1669539314
 H    0.6159847963   -0.4387565241   -0.8380182892
 H    0.5435301493   -0.2607181382    0.9252081595
 H   -1.9412912793   -0.0575569518    0.7929685371
 H   -1.8661223598   -0.2365572327   -0.9538970280
 H   -0.8473398043   -2.5368568499   -0.6634616452
 H   -0.9452025085   -2.3514442514    1.0814461618
 H   -3.4474146778   -2.1448975424    0.9021399713
 H   -4.5498156578   -2.1556125010   -1.3004405092
 H   -2.9703887095   -2.3520440739   -2.1079206949
 H   -2.0734091176   -4.7167069735   -0.0067427792
 H   -3.6220777884   -4.5979467784    0.8731215649