18

 C   -0.1239786928    1.3977325918    0.1118723001
 O   -0.0650541242   -0.0042046196   -0.0785286528
 C   -1.3256887522   -0.6565688719   -0.0423069193
 C   -1.1330826828   -2.0425320096   -0.6617131141
 N   -0.3963333861   -2.9915208612    0.1673732077
 C   -0.4867841259   -2.8315703603    1.4208472777
 N   -1.2052271001   -1.8315316644    2.0723689784
 C   -1.7921609189   -0.7659971874    1.4029981003
 N   -2.5791356495    0.1039759037    1.9028801240
 H    0.9026922222    1.7649377056    0.0423255381
 H   -0.7318629113    1.8793460370   -0.6687247891
 H   -0.5450600598    1.6680002636    1.0878549273
 H   -2.0761693847   -0.0784499253   -0.5970924012
 H   -2.1169181395   -2.4754343375   -0.8931288672
 H   -0.6038810470   -1.9211395291   -1.6114708293
 H    0.0121885703   -3.5228665887    2.0990799836
 H   -1.2945823116   -1.8768599640    3.0764521745
 H   -2.7593567160   -0.0733408827    2.8953397814