16

 O    0.2702836417    0.8887433611    0.9585998107
 C   -0.0547024890    0.1660498263   -0.2268475371
 C   -1.4026688373   -0.3713405352   -0.1324998234
 C   -2.5194536149   -0.8269866542   -0.0827662681
 C   -3.8202932817   -1.3759539485   -0.0133363322
 C   -4.9994034616   -0.7384867718   -0.3667078150
 N   -6.0282160238   -1.6084007187   -0.1499998702
 C   -5.5443672952   -2.8000594569    0.3373471174
 C   -4.1820535295   -2.6901132660    0.4340440777
 H    1.1684168043    1.2192772720    0.8522412532
 H    0.0135736326    0.8163754846   -1.1148806841
 H    0.6526971397   -0.6642529979   -0.3883452749
 H   -5.1664104173    0.2557504690   -0.7466349138
 H   -6.9974701242   -1.4048199173   -0.3194667394
 H   -6.2097022799   -3.6151504386    0.5709384530
 H   -3.4984400639   -3.4473323079    0.7830530762