17

 C    0.1784624402    1.1431247344   -0.4933450051
 N   -0.3513263727    0.3584975437    0.6263920625
 C   -1.3200307212   -0.5886341475    0.3351950494
 C   -1.3110893551   -1.8864989370   -0.0719012928
 O   -0.1731547891   -2.5839815915   -0.3581360757
 C   -2.6690058202   -2.3520251845   -0.1329934035
 C   -3.4245425131   -1.2741583453    0.2313825397
 N   -4.7903335250   -1.0981769334    0.4107984433
 O   -2.6571178557   -0.2106641547    0.5234506328
 H    0.9009788197    1.8706515578   -0.1103201007
 H    0.6684416372    0.5337758882   -1.2674183846
 H   -0.6398973294    1.6974818864   -0.9614577293
 H    0.3925960516   -0.0285766091    1.1921566085
 H   -0.4092231850   -3.5022948970   -0.5142828699
 H   -3.0227209728   -3.3336892655   -0.4075577670
 H   -5.3507117307   -1.6357066176   -0.2363224926
 H   -5.0516161585   -0.1209243473    0.3869248449