16

 C    0.0403649999    1.4738015803    0.0615734990
 C    0.0224529292   -0.0130331125   -0.0424673441
 C   -0.0635205457   -0.7678703714   -1.1454166975
 C   -0.0543756607   -2.2099530883   -0.8280487256
 O   -0.1643653232   -3.1335975943   -1.5972170399
 C    0.1242151916   -2.3373394858    0.6948464578
 C    0.0732222174   -0.8823230568    1.2217256073
 C    1.1969229531   -0.5263587176    2.0906778605
 N    2.0865893467   -0.2348246902    2.7685331500
 H    0.9505535369    1.8130485885    0.5698754650
 H   -0.0113752312    1.9463883630   -0.9210903394
 H   -0.8037683688    1.8304884233    0.6652002170
 H   -0.1455553519   -0.4015873485   -2.1610441558
 H   -0.6562347357   -2.9707643905    1.1213393778
 H    1.0843018798   -2.8156035441    0.9049802322
 H   -0.8429455574   -0.7101913454    1.8026661359