17

 O    0.0250223503    1.3863230219    0.0099391812
 C   -0.0372887216   -0.0166182177    0.0031470488
 C   -1.4862412425   -0.4596752252    0.0121894021
 N   -2.4498051145    0.3672243550    0.0244026255
 N   -1.6416482178   -1.8512311123    0.0057129571
 C   -2.8686379905   -2.6648923225    0.0112356012
 C   -1.9621804778   -3.9272691217   -0.0022695887
 C   -0.7756558189   -2.9468314148   -0.0062254078
 O    0.4220100871   -3.0222004870   -0.0156987523
 H    0.9550917969    1.6303291597    0.0056646824
 H    0.4481758572   -0.4598781736   -0.8807378389
 H    0.4618978738   -0.4690161639    0.8746679424
 H   -3.3530608354   -0.1109186092    0.0288934537
 H   -3.4748106808   -2.5304715462    0.9116011057
 H   -3.4889152819   -2.5213648842   -0.8780424640
 H   -2.0168276839   -4.5578889494    0.8864175053
 H   -2.0304732797   -4.5486263988   -0.8965219438