25

 C   -0.0262412103    1.5802866837   -0.0937120252
 C    0.0526414715    0.0499943632   -0.0112330960
 C    0.6689161827   -0.5297719323   -1.2960836722
 C    0.5639648553   -2.0579658698   -1.3401413282
 C    0.9396132379   -2.6714595232   -0.0191019926
 C    1.0455179457   -1.9731210428    1.1092520470
 C    0.7784678040   -0.4873890644    1.2615397270
 C    2.1235093471    0.2283431341    1.5252657804
 C   -0.1257796472   -0.2973089564    2.4994762949
 H    0.9593348432    2.0262798914   -0.2634343595
 H   -0.6672167930    1.8799044644   -0.9295966045
 H   -0.4429586158    2.0267811715    0.8140622413
 H   -0.9781250030   -0.3298747458    0.0471017066
 H    0.1749631215   -0.0914030885   -2.1709651674
 H    1.7243802534   -0.2349834424   -1.3596345411
 H   -0.4594553570   -2.3608819668   -1.6092703619
 H    1.2037548797   -2.4622495203   -2.1350268296
 H    1.1322826775   -3.7421492398   -0.0056850951
 H    1.3417479952   -2.4837676713    2.0251491648
 H    2.7841158190    0.1842362438    0.6544416250
 H    1.9741987086    1.2795035683    1.7914474389
 H    2.6497003844   -0.2508187970    2.3579131377
 H    0.3609609579   -0.6911436054    3.3986294936
 H   -0.3432263564    0.7598460308    2.6816556379
 H   -1.0771439519   -0.8252407851    2.3769388382