17

 C   -0.0609781580    1.5525256175    0.0099585277
 C    0.1060924644    0.0282120792   -0.0256201235
 C    0.7835547164   -0.4660289682   -1.2683657241
 N    2.2018376659   -0.1444525922   -1.6631832706
 C    1.7311994257   -1.0252606711   -2.7803402765
 C    0.9194342972   -1.9263929752   -1.8106153962
 O   -0.3107999249   -1.8835073991   -2.5905797085
 C    0.2451926555   -0.5460983051   -2.7477548712
 H    0.9093855059    2.0587494801   -0.0209287302
 H   -0.6539706965    1.9063988823   -0.8400384810
 H   -0.5693711338    1.8677728449    0.9255388655
 H    0.6849190532   -0.3050257036    0.8442824835
 H   -0.8730506494   -0.4627022962    0.0341370529
 H    2.2684378287    0.8240149225   -1.9868388994
 H    2.3495253444   -1.3123614777   -3.6306805367
 H    1.1950400964   -2.8474398321   -1.2990116492
 H   -0.2900646711    0.1789120942   -3.3637187224