23

 C    0.1169185401    1.3807872945   -0.4654464419
 C   -0.0351439286    0.1405467227    0.4269959717
 C   -1.3825498455   -0.5473435783    0.2721343165
 C   -2.5854535964    0.2311736633    0.7677960793
 O   -1.6184852907   -1.2050239829   -1.0038972002
 C   -1.5075984435   -2.0143000809    0.1786580547
 C   -0.3537822885   -3.0218692715    0.1699189008
 C   -0.8717094049   -4.4342104179   -0.1226430594
 O    0.6384531472   -2.6503821005   -0.7718311143
 H    1.1204667834    1.8038983041   -0.3637087321
 H   -0.0332195426    1.1182298733   -1.5172642921
 H   -0.5992864609    2.1678844078   -0.2102386867
 H    0.7609938872   -0.5698639715    0.1980967667
 H    0.0782148654    0.4250456844    1.4810458745
 H   -2.6728075601    1.1908897747    0.2500649483
 H   -3.5077160514   -0.3290723426    0.5963000452
 H   -2.4947106645    0.4350633884    1.8401509918
 H   -2.4571309908   -2.4430485837    0.5061810689
 H    0.1254427904   -3.0178452115    1.1588577466
 H   -1.5633924289   -4.7733913977    0.6565556825
 H   -1.3954918495   -4.4599582656   -1.0843258748
 H   -0.0321785796   -5.1320752562   -0.1702611318
 H    0.1704617124   -2.1358139422   -1.4459150841