17

 O   -0.0365908102   -0.0682118220    0.0028289120
 C   -0.0695259760    1.1445346307    0.0072551632
 C    1.1459563535    1.9463798721    0.0011699819
 C    2.1363400338    2.6310354179   -0.0035316030
 C   -1.3462911651    1.9239513606    0.0178511285
 C   -1.8328392928    2.9604684330   -1.0502861875
 C   -2.9502111945    2.8981494030    0.0313270677
 C   -2.7869557773    1.3483922809    0.0250394316
 C   -1.8192284905    2.9531761280    1.0991006537
 H    3.0227580961    3.2178955749   -0.0069004467
 H   -1.2628994051    3.8897028729   -1.1211385114
 H   -2.0727067749    2.5529659003   -2.0356222119
 H   -3.8848126975    3.4583452141    0.0391492246
 H   -3.1019895289    0.8215705360   -0.8783619685
 H   -3.0905287809    0.8154428270    0.9287681160
 H   -2.0466005652    2.5389654444    2.0846010069
 H   -1.2483858846    3.8819250062    1.1690368030