19

 C    0.1267385802    1.5681894613    0.0091353504
 C    1.3834899820    0.7385072692   -0.0070432479
 C    0.0460027659    0.0468645957    0.0019054301
 C   -0.3995347455   -0.6559297495    1.2402659876
 C   -1.6932110975   -0.8678640422    1.5495222815
 C   -2.8312619115   -0.5918363634    0.7047463173
 C   -2.8440368339   -0.5847031116   -0.6533572494
 C   -1.7221056170   -0.8517301958   -1.5222440153
 C   -0.4228198189   -0.6429282130   -1.2351685519
 H   -0.1417155041    2.0763374697    0.9289070540
 H   -0.1589192471    2.0859420855   -0.9000366954
 H    1.9630823809    0.7060897830   -0.9243005928
 H    1.9802299780    0.6965165262    0.8987588680
 H    0.3709548866   -1.0037458090    1.9257184863
 H   -1.9184608540   -1.3080505839    2.5191751804
 H   -3.7886283966   -0.4921047451    1.2114326156
 H   -3.8107552094   -0.4797494982   -1.1408696564
 H   -1.9655990777   -1.2817301024   -2.4920581401
 H    0.3346051495   -0.9834496664   -1.9386086520