21

 C    0.6722177390    1.4765917836    0.0729807162
 C   -0.1855728512    0.2209300771   -0.1304065902
 C    0.2603009448   -0.5665746854   -1.3393854206
 O    1.4984684210   -1.2889675346   -1.2429726997
 C    0.2944141191   -2.0366248118   -1.4591428410
 C   -0.1274975060   -2.9638181728   -0.3417541548
 C    0.1741727079   -2.6251124057   -2.8693698896
 C    0.9330230021   -3.8574705374   -3.0559306332
 C    1.5573644213   -4.8744728109   -3.1982765771
 H    1.7211803324    1.2031198406    0.2196705921
 H    0.6173342189    2.1405101386   -0.7966840464
 H    0.3398829242    2.0427679985    0.9478921521
 H   -0.1414898146   -0.4037132468    0.7657807238
 H   -1.2370219476    0.5040437573   -0.2713972521
 H    0.1653265919   -0.0089950070   -2.2766326677
 H    0.0561857222   -2.5193715960    0.6366644852
 H   -1.1925838255   -3.2078217226   -0.4232150380
 H    0.4362801674   -3.8990461546   -0.4047832060
 H   -0.8864800902   -2.8135673157   -3.0847950545
 H    0.5146615994   -1.8733711028   -3.5898814655
 H    2.1148349633   -5.7680996716   -3.3322336931