21

 C    0.2399107681    1.4882311021   -0.0547613873
 C    0.1128763196   -0.0207568419    0.0702961917
 O    0.1506912547   -0.5776784380    1.1432166139
 C   -0.0675309117   -0.7901793691   -1.2338760400
 C   -0.0161021157   -2.3078658699   -1.0686029283
 C   -0.2903670143   -3.0603127590   -2.3769119713
 C   -0.1981152295   -4.5568059166   -2.2041973606
 C    0.3164181239   -5.4437162267   -3.2539546186
 O    1.1203986200   -5.1081030907   -2.1217268624
 H    1.1766539078    1.7406431138   -0.5655544668
 H   -0.5730521891    1.9014765965   -0.6614731981
 H    0.2361011669    1.9448564554    0.9356401230
 H   -1.0301525730   -0.4758275714   -1.6656451931
 H    0.6884911778   -0.4418173525   -1.9515176948
 H    0.9665112605   -2.6001135446   -0.6834408886
 H   -0.7394245002   -2.6076072608   -0.3024284198
 H   -1.2919478809   -2.8080323886   -2.7526575076
 H    0.4263348826   -2.7520253538   -3.1481989087
 H   -0.8946207637   -4.9853972876   -1.4800395511
 H   -0.0152770722   -6.4801041448   -3.3035567085
 H    0.6435662282   -5.0174284319   -4.2019477233