13

 C    0.0669260375    1.3850907697   -0.1349321601
 O    1.4610487645    1.7857921893   -0.0548560048
 C    1.9709442240    0.7211160007    0.6370126420
 C    1.1471739747   -0.3535571907    0.6443985595
 O   -0.0127524538   -0.0392106252   -0.0538904627
 C    1.8599472471   -1.4646953013    1.1506087696
 C    3.1267202276   -0.9798216909    1.4395502103
 N    3.2013709524    0.3673555196    1.0876790861
 H   -0.4613171081    1.8308560443    0.7230902090
 H   -0.3432636139    1.7248479675   -1.0867355610
 H    1.5205702217   -2.4755283587    1.3071034874
 H    3.9527006329   -1.4519351162    1.9447600708
 H    3.9733599733    0.9791993420    1.2847776239