15

 O   -0.2434536577    0.1358198082    0.3904212489
 C   -0.0123323610    1.1852057410   -0.1466633965
 C    1.3197005734    1.9139044369   -0.0500010648
 N    1.5970151340    2.6199161817   -1.2992131355
 C    2.7086228643    3.5715423988   -1.2640761410
 C    2.7317443413    4.2563303307   -2.6512489746
 O    3.5958264588    4.0550694817   -3.4552766730
 C    2.4876141120    4.5923466659   -0.2345631930
 N    2.3251535765    5.4162000689    0.5590356011
 H   -0.7710510683    1.7239376641   -0.7562696295
 H    1.2082129730    2.6606283946    0.7486349631
 H    2.0980940090    1.2046749662    0.2674641658
 H    1.7881950856    1.9510554265   -2.0390976980
 H    3.6986807279    3.1179283394   -1.0982858494
 H    1.8510278712    4.8989865453   -2.8475827436