21

 C    0.0861850808    1.5421806271    0.0805878675
 C   -0.0472088488    0.0245816644   -0.0611552851
 C   -1.4637287881   -0.5241261375    0.0399526923
 C   -2.5633342758    0.3032481873    0.5711487631
 O   -2.4243103353    0.0911450171   -0.8368178491
 C   -1.5934049549   -2.0392828715    0.1174489891
 C   -2.9955050105   -2.6094799772    0.1612877029
 C   -0.5016038949   -2.8988551291   -0.3775786700
 O   -0.6664255889   -2.6637601808    1.0228756648
 H    1.1089292919    1.8525873180   -0.1512889130
 H   -0.5866404606    2.0585275903   -0.6106119315
 H   -0.1357700748    1.8792833876    1.0976731129
 H    0.3482775681   -0.2697447246   -1.0410718697
 H    0.5632235403   -0.4854849728    0.6912069844
 H   -3.4318413551   -0.1632297891    1.0289578051
 H   -2.3599689573    1.3159039625    0.9091334971
 H   -3.6061907900   -2.1771859575   -0.6351137203
 H   -2.9662216328   -3.6942734946    0.0395630236
 H   -3.4732773503   -2.3972902466    1.1224717050
 H   -0.7434112628   -3.9067709129   -0.7126702280
 H    0.3955485598   -2.4738580700   -0.8196188613