16

 O   -0.0533187378    0.1079249892   -0.4510809307
 C    0.0007647864    1.2663251432   -0.1081922403
 N    1.1387054291    1.8812561605    0.3281543352
 C    2.5614168306    1.4247727201    0.2980236777
 C    2.9228984672    2.8523152179    0.8680617238
 O    3.7478821632    3.8027264982    0.2442362170
 C    2.9119193226    4.9750373074    0.0533205124
 C    1.4755282377    4.4526467993   -0.0340311672
 C    1.5357051874    3.2236421403    0.4668489465
 H   -0.8700344367    1.9503341530   -0.0857552144
 H    2.7704467093    0.5646384289    0.9350326279
 H    2.9069045046    1.2543445189   -0.7245099469
 H    3.1132838864    2.7932280987    1.9490449179
 H    3.0816426559    5.6840774715    0.8785166277
 H    3.2194497668    5.4618236119   -0.8785026785
 H    0.6845898772    4.9524821511   -0.5728681281