16

 N    0.3720323677    0.6802715147   -0.9109443332
 C   -0.0208805695    0.1377437426    0.2677471439
 O    0.5378883356    0.3020414675    1.3365285403
 C   -1.2413528950   -0.7483635522    0.1527767659
 C   -2.2331530890   -0.8111794739    1.3251893960
 O   -2.2649933075   -2.2642422655    1.2728889517
 C   -1.2773840548   -2.2971127773    0.2388872431
 C   -1.8676721693   -2.2296139385   -1.1776249540
 O   -1.8706540392   -0.7724642063   -1.1466897288
 H    1.1472174711    1.3215988810   -0.9213032319
 H   -0.1957134513    0.5433388530   -1.7308375912
 H   -1.8065233949   -0.4552879469    2.2673034816
 H   -3.2106975566   -0.3584248949    1.1330251138
 H   -0.4401921859   -2.9626569394    0.4522986920
 H   -1.2154672814   -2.6038317218   -1.9756727856
 H   -2.8737410501   -2.6466575721   -1.2791050936