17

 C    0.1778626736    1.3215257118   -0.2441849840
 O    1.2931932231    1.9040638305    0.4157036038
 C    1.9720724661    0.8616772143    1.0708978414
 C    2.4044617851   -0.3407104214    0.2258004733
 C    3.1921370946   -1.3566402685    0.9785918938
 C    2.4818953612   -1.9342529876    1.9542406864
 C    1.0508719497   -1.4378757035    2.0083486060
 C    1.0692015934   -0.3217602247    0.9912144892
 O   -0.1276129624    0.1020426593    0.4047931469
 H   -0.6815139794    1.9954972127   -0.1757274559
 H    0.4273062529    1.1330340733   -1.3011706085
 H    2.5313078799    1.1936691491    1.9381070931
 H    2.5070161164   -0.2300916098   -0.8484053826
 H    4.2325886393   -1.5672909779    0.7579522883
 H    2.8592460644   -2.6783680339    2.6454443988
 H    0.3336859209   -2.2217285002    1.7278402407
 H    0.7602183212   -1.0839674237    3.0044452294