18

 C   -0.0499739225    1.4654485555   -0.0386210388
 C   -0.0108999373   -0.0288306255   -0.0248736061
 C    0.0098358343   -0.8723085652   -1.0597718168
 C    0.0198723890   -2.3064422213   -0.5807425708
 C    1.1278076425   -3.1817420996   -1.1515517353
 O    1.5827096665   -3.0607393674   -2.2586883359
 N    0.0716835760   -2.2515775112    0.9005886350
 C    1.2866335490   -1.6164763082    1.4416264129
 C    0.0449500273   -0.8142769487    1.2493784403
 H    0.8307021329    1.8898477438    0.4590446603
 H   -0.0899890298    1.8563862907   -1.0580337612
 H   -0.9266003408    1.8396287679    0.5047460221
 H    0.0509785666   -0.6081552415   -2.1084792033
 H   -0.9153770898   -2.8227461931   -0.8613672454
 H    1.4758137884   -3.9789245694   -0.4572371826
 H    1.5664594056   -1.9737154371    2.4286110183
 H    2.1170065474   -1.4037288829    0.7712436385
 H   -0.5589133252   -0.5155394468    2.1030470888