23

 C    0.6221320484    1.6916593507    0.0404941135
 C    0.0659863439    0.2721483366    0.0251060147
 C    0.7328145298   -0.7447022732   -0.9687991558
 O    1.6602876228   -0.2921182483   -1.9255695930
 C    1.2012010034   -1.6278250910    0.2206670573
 C    1.0107083200   -3.1245926621    0.1046590325
 C    2.5189368398   -1.1450843698    0.9049704632
 C    1.6937550260   -0.4076651241    1.9982792886
 C    0.3953816777   -0.6929766501    1.2107132513
 H    1.7073302447    1.7236537264    0.1876595559
 H    0.4082334268    2.1941711286   -0.9079707514
 H    0.1713853237    2.2821941017    0.8450810262
 H   -1.0136469632    0.3304975343   -0.1444163590
 H   -0.0285599045   -1.2738945736   -1.5509992345
 H    2.3638225179    0.1811914010   -1.4703772274
 H    1.6953672712   -3.5460416835   -0.6418951079
 H    1.2056511367   -3.6324815581    1.0563141471
 H   -0.0109127281   -3.3745509371   -0.2038340617
 H    3.1508482114   -1.9572455819    1.2731784309
 H    3.1566320286   -0.5019910280    0.2882256317
 H    1.7141531967   -0.9397304617    2.9531373792
 H    1.9432094537    0.6384507674    2.1943467618
 H   -0.4676384572   -1.0448414841    1.7787771768