21

 C   -0.0136623383    1.5040746368    0.1091849752
 C    0.0914737979    0.0082989187    0.0356567169
 C   -0.7577394664   -0.9179966930    0.8625823560
 C    0.7460642198   -0.9867288542    1.0057914526
 C    1.3193584951   -1.7502154801   -0.1687162252
 C    2.6920653725   -2.3589225560   -0.2519504867
 C    1.4718339022   -3.2415983437   -0.2507545008
 O    1.2633080461   -4.0019746091    0.9054835075
 C    0.6771727859   -0.7635985313   -1.1648248064
 H    0.9270968420    1.9857044404   -0.1814551885
 H   -0.7981308131    1.8809551412   -0.5589229575
 H   -0.2593681694    1.8349866930    1.1237678545
 H   -1.2812039618   -0.4474978860    1.6897419831
 H   -1.3071315046   -1.7351478945    0.3976632727
 H    1.2462382509   -0.7964684028    1.9482044916
 H    3.2540814760   -2.2532595879   -1.1748428408
 H    3.2920350171   -2.3723688496    0.6523051813
 H    1.2044876346   -3.7380214578   -1.1848705381
 H    0.3464513864   -3.8800884116    1.1745236285
 H   -0.0456047970   -1.1696004621   -1.8823780291
 H    1.4258300839   -0.1805370005   -1.7099731469