15

 C    0.2940538138    1.6246463572    0.1018785285
 C    1.1384213199    0.4887476519   -0.3328811017
 N   -0.2526245470    0.2600295976    0.1241719731
 C   -0.3946919946   -0.3199523320    1.3947798787
 N    0.1429032727    0.0438448829    2.5376807504
 C   -0.3262990942   -0.8621188828    3.4644103084
 C   -1.1517827629   -1.7783748222    2.8717411879
 N   -1.1876011148   -1.4168309752    1.5400847376
 H    0.5193742161    2.0694256257    1.0655765201
 H   -0.1626719488    2.2783730754   -0.6350831078
 H    1.3068471761    0.2961780096   -1.3880654954
 H    1.9278772316    0.1723441449    0.3420627252
 H   -0.0431935476   -0.7985436676    4.5040708799
 H   -1.7032119593   -2.6216136655    3.2519247819
 H   -1.7092355511   -1.8498709399    0.7967924032