21

 C    0.1065546659    1.4857295683   -0.2158997188
 C    0.0327346458   -0.0254871998    0.0564548993
 C    0.7702389950   -0.3970403526    1.3534411635
 C   -1.3879500277   -0.5062557066    0.0751246959
 C   -2.0449222766   -1.8854825847   -0.0298154661
 C   -2.8617744082   -1.6576349560    1.2404585541
 C   -2.6828767293   -0.1508679723    0.9270577574
 O   -3.4566453227    0.0441719189   -0.2898512604
 C   -2.4463310439   -0.7147988144   -0.9524033273
 H    1.1469683125    1.8214296485   -0.2760214287
 H   -0.3922881938    1.7442127891   -1.1544155334
 H   -0.3796325767    2.0504563951    0.5875185767
 H    0.5310644999   -0.5458220059   -0.7746532938
 H    0.3120581764    0.0969539593    2.2181294719
 H    0.7436772364   -1.4767240352    1.5297905529
 H    1.8185064447   -0.0843352835    1.3108584757
 H   -1.6144365489   -2.8035321080   -0.4108279074
 H   -3.8932598124   -2.0212269467    1.2880611864
 H   -2.3058511313   -1.9550889535    2.1333491430
 H   -2.8283167710    0.6368804032    1.6638462393
 H   -2.4259930840   -0.7387619629   -2.0345125503