22

 C   -0.7171113311    1.3035471147   -0.0310166649
 C    0.1174253974    0.0249468725    0.0000895947
 C    1.2305362843   -0.0267267402   -1.0686385314
 O    2.2949110524   -0.8055329080   -0.5287549514
 C    1.9036882217   -1.3228201273    0.7471522832
 C    3.1570366085   -1.6110299192    1.5567028841
 C    0.9015710504   -0.2880396982    1.3005815206
 C    1.5698975095    0.9340731584    1.9406970549
 H   -0.0970143679    2.1952446374    0.1034999844
 H   -1.2346491121    1.4045150686   -0.9912083664
 H   -1.4802788849    1.3013809540    0.7543999051
 H   -0.5560954625   -0.8237807619   -0.1747272936
 H    0.8752363977   -0.4720584950   -2.0077593781
 H    1.6126783651    0.9773451873   -1.3016012030
 H    1.3593883981   -2.2729372607    0.5999468337
 H    3.7513323918   -0.7057977366    1.7036458083
 H    2.8959145804   -2.0247733062    2.5362368818
 H    3.7787932583   -2.3420579442    1.0323006103
 H    0.2415859692   -0.7596392660    2.0376615109
 H    2.2712495695    1.4182705782    1.2533579533
 H    0.8265496617    1.6779075315    2.2414219884
 H    2.1279079127    0.6517681007    2.8381652650