17

 C   -0.0808911964    1.5201501269    0.0790151035
 C    0.1183228555    0.0440375080    0.0024745319
 O   -0.7265406991   -0.8450471082    0.7216047998
 C    0.6956295209   -0.9131510820    0.9947841328
 C    1.2671195826   -1.7342468996   -0.1409329973
 O    2.0916523804   -2.5957480117   -0.2427691954
 C    0.6183536742   -0.7789600560   -1.2121299321
 C   -0.4083128323   -1.3244599593   -2.1851314249
 O    1.6665971420   -0.0674950059   -1.8482645743
 H    0.8018952941    2.0308490517   -0.3134989315
 H   -0.9455000733    1.8226951937   -0.5215281909
 H   -0.2535338872    1.8338257378    1.1114676647
 H    1.0158993655   -0.7739402786    2.0206762780
 H   -1.2575176760   -1.7536523835   -1.6484363222
 H   -0.7616551797   -0.5282877838   -2.8478749234
 H    0.0393564568   -2.1099413991   -2.8038266826
 H    2.2483741121   -0.7136424706   -2.2662734962