16

 N    0.1345370022    1.5267066911    0.1065959270
 C    0.0096716701    0.0791607417   -0.0316949097
 C    0.5387306376   -0.4553167325   -1.3098100679
 N    0.9355879074   -0.8468598059   -2.3228812317
 C    0.7025500017   -0.5745519626    1.1735022876
 C    1.0008938537   -2.0895179999    1.1950002304
 O    2.4344407996   -1.8054037917    1.3018800210
 C    2.2145103411   -0.4527673322    1.2118730383
 N    3.0037947319    0.5192343309    1.1392424140
 H    1.1210647259    1.7735166316    0.1654575055
 H   -0.2575866804    1.9977073237   -0.7023159765
 H   -1.0561832356   -0.1811092190   -0.0024956441
 H    0.2232682168   -0.1951034967    2.0778523060
 H    0.6443559893   -2.6428952861    2.0655417299
 H    0.7871133074   -2.6331072514    0.2721550519
 H    3.9814617713    0.2255032389    1.1492575982