14

 O   -0.6417138926    0.8452989461   -0.5700217539
 C    0.2050384251    0.9717048550    0.2779430967
 C    1.3880207773    1.8954664111    0.1625150138
 C    1.4946438038    2.7327625385   -1.1502624043
 N    1.2574216812    3.9294799194   -0.3179491240
 C    1.1905962608    3.2831290640    0.8835705102
 O    1.0366729709    3.6394242279    2.0156774678
 C    2.7684795215    2.6957552292   -1.8476548357
 C    3.8184801548    2.6664026576   -2.4311378503
 H    0.1507981919    0.4190984956    1.2392890972
 H    2.3099989143    1.4034419770    0.4798689471
 H    0.6642349709    2.5201410800   -1.8295183230
 H    1.2823319554    4.9130048497   -0.5447628961
 H    4.7452482345    2.6401357388   -2.9498655957