22

 C   -0.0828371606    1.5852849505    0.0154509204
 C    0.0591031742    0.0727654055    0.0714907546
 C    1.2951864426   -0.7235065851   -0.2947847199
 C    2.6883624907   -0.1005350029   -0.1709640507
 N    3.0484950868   -0.0032463373    1.2693088039
 C    2.3713649084    1.0564642846    2.0291503862
 C    1.8281638419   -0.3272123084    2.0375578703
 C    0.7263873353   -0.8145498570    1.1135365585
 C   -0.0305944361   -2.0303098893    1.6067309338
 H    0.8567232069    2.1013450936   -0.1953453076
 H   -0.7712956339    1.8512351331   -0.7932051197
 H   -0.4935482708    1.9988267565    0.9424372141
 H   -0.8457646490   -0.4105525557   -0.2942782222
 H    1.1845829263   -1.5448797453   -0.9970531416
 H    3.4205916548   -0.7557409469   -0.6529643873
 H    2.7765370476    0.8815875299   -0.6523756111
 H    2.9330316412    1.4136155269    2.8898203878
 H    1.8410473720    1.8362733515    1.5001611634
 H    1.9750446106   -0.9374765300    2.9263942861
 H   -0.6681594566   -1.7838718114    2.4642047166
 H   -0.6759270992   -2.4384330880    0.8231405157
 H    0.6557790967   -2.8249956744    1.9216077285