17

 C   -0.0314323049    1.5280970008    0.1240117847
 C   -0.0175517092    0.0463690164   -0.0680071456
 C    0.0360048013   -0.7627095550   -1.1823193607
 C    0.0877604314   -0.8047915188   -2.6729709923
 O    0.0723824049   -2.2107638339   -2.9902128788
 C    0.1051785257   -3.0454939568   -1.8208005257
 C    0.0481617948   -2.0729632786   -0.6875260211
 N    0.0059659768   -2.1384938004    0.6324956852
 N   -0.0306474358   -0.8279385306    0.9859864474
 H    0.9786911124    1.9329860486    0.2592043231
 H   -0.4695089215    2.0216372031   -0.7467999859
 H   -0.6222103840    1.8136664829    1.0005644805
 H   -0.7731458749   -0.3273000712   -3.1618807593
 H    0.9982988234   -0.3511109472   -3.0919885735
 H   -0.7489960811   -3.7349187396   -1.8471061797
 H    1.0242750720   -3.6486130833   -1.8215846252
 H   -0.0815361012   -0.5932268865    1.9635980671