16

 C   -0.0114055243    1.4816112244    0.0121541334
 C    1.3198603244    0.7855666240    0.0079307373
 C    1.8739659877    0.4117693104    1.4032089851
 N    0.9582403306   -0.5715842015    2.0427919446
 C    0.0444649880   -0.7764815094    1.1810356997
 N   -0.9295780803   -1.7507475694    1.0158344635
 C   -1.2034790260   -1.7555633056   -0.3649102931
 N   -0.6825328209   -0.8098363160   -1.0629095101
 C    0.0282609158   -0.0239036412   -0.0932972582
 H   -0.3825391160    1.9316522424    0.9291382042
 H   -0.2974094136    1.9897973846   -0.9028044822
 H    1.9954440092    0.9340110162   -0.8253338148
 H    2.8646839446   -0.0525477310    1.3317044029
 H    1.9843239708    1.3012645033    2.0345214425
 H   -1.0006023677   -2.5714298389    1.5963763671
 H   -1.8443560623   -2.5296404522   -0.7717836420