13

 N    0.0165028487    1.3263446500    0.0898085091
 C   -0.0434080028   -0.0250413998    0.0326261076
 N   -1.1793697780   -0.6678856340    0.0197877343
 C   -1.1393896361   -2.0384105888   -0.0010745145
 C    0.0159604403   -2.7424131596   -0.0166187969
 N    1.2094715353   -2.0449024814   -0.0160218155
 C    1.2930504042   -0.6746447708    0.0027835623
 O    2.3501894574   -0.0562896523   -0.0124454129
 H    0.9209268496    1.7470616925   -0.0490754934
 H   -0.8240490025    1.8604548512   -0.0450198723
 H   -2.0947318250   -2.5491726101   -0.0047695047
 H    0.0796727517   -3.8211840167   -0.0318372048
 H    2.0939701572   -2.5328617002   -0.0386950882