18

 C    0.0194340414    1.5514725242    0.0418867304
 C   -0.0260459941    0.0524820856    0.0427262070
 C    1.1379757709   -0.8086805502   -0.3331307318
 C    0.5769918148   -0.9431317586    1.0702809923
 C    1.3564922242   -0.6856278003    2.2343460979
 N    1.9964313603   -0.4567220888    3.1717241069
 C   -0.6973844197   -1.7973416746    1.0234501685
 O   -1.3268163786   -1.7871217787    2.2793248501
 C   -1.3070329625   -0.7947463604   -0.0146002103
 H    1.0105251289    1.9165623905    0.3280367151
 H   -0.2077850744    1.9453287891   -0.9558297758
 H   -0.7101191670    1.9690848186    0.7430502297
 H    1.0236490024   -1.6414605365   -1.0240046799
 H    2.0991835109   -0.3087653704   -0.3890971287
 H   -0.5393117825   -2.8235813328    0.6612632564
 H   -2.1363788928   -2.3042108060    2.2182255348
 H   -2.1621680431   -0.2869052476    0.4372204381
 H   -1.5851923692   -1.1834772730   -0.9995333407