18

 O   -0.0114562274    1.4528894351   -0.0581945462
 C    0.0445068536    0.0273347112    0.0100618227
 C    0.6461614197   -0.5398013300    1.3277477726
 N   -0.4907443572   -0.9494366769    2.1797115748
 C   -1.3877679376    0.2498603125    2.4270835551
 C   -2.2553849901   -0.1669039356    1.2548624316
 C   -1.4991961047   -1.4779584234    1.2110348945
 C   -1.3687257145   -0.5331101131    0.0580343371
 O   -2.0236348921   -0.8540206142   -1.1255678483
 H    0.8832001974    1.7796899816   -0.1954076847
 H    0.5574075918   -0.3704934848   -0.8771538720
 H    1.2494852067   -1.4289449456    1.1132874330
 H    1.2762725598    0.1893548269    1.8465176208
 H   -1.8889797233    0.1447445037    3.3941166063
 H   -0.8834891786    1.2183543899    2.3699878236
 H   -3.3146334068    0.0029400761    1.1022162506
 H   -1.8097182213   -2.5142062867    1.1693385710
 H   -2.3098301353   -0.0294302167   -1.5340620124