20

 O   -0.1000004554    1.4618271881    0.0385302905
 C    0.0187751233    0.0460064542    0.0423794726
 C   -1.3862307301   -0.5375228019   -0.0343096621
 C   -1.4034835018   -2.0687415048   -0.0114857953
 O   -0.7553804511   -2.5823566361    1.1569021044
 C   -2.8204157588   -2.6308668634   -0.1590050399
 C   -2.8580595472   -4.1529393731   -0.2069978301
 O   -4.2179691293   -4.5486801577   -0.3197538377
 H    0.7805210927    1.8355372687    0.1356320397
 H    0.6122017287   -0.3068254063   -0.8176564665
 H    0.5172027845   -0.3174263505    0.9516945708
 H   -1.9768712140   -0.1497670519    0.8072713164
 H   -1.8733213765   -0.1769409410   -0.9477889141
 H   -0.7851302952   -2.4431029327   -0.8390535866
 H   -1.2601837517   -2.2811252230    1.9215392764
 H   -3.4421818239   -2.2877222232    0.6795136385
 H   -3.2816015037   -2.2334033090   -1.0706310719
 H   -2.2662410879   -4.5096446588   -1.0665525141
 H   -2.3904246114   -4.5597461584    0.7002930810
 H   -4.2518323513   -5.5093659191   -0.3012632318