20

 C    0.1203050289    1.4387125951    0.1675564130
 C   -0.1283223212   -0.0417852987   -0.1603240495
 C    0.6542494349   -0.5084084054   -1.3462233183
 N    0.0798574239   -0.9419457642   -2.4579720336
 N    1.1454998287   -1.2443775816   -3.2481173880
 C    0.9312463108   -1.7667472350   -4.5789943613
 C    2.2977412036   -0.9825775026   -2.5868646459
 C    3.6670599135   -1.1945779765   -3.1418993138
 N    2.0200007266   -0.5151831863   -1.3805122717
 H    1.1843964793    1.6187847652    0.3423007521
 H   -0.1999431806    2.0816318658   -0.6584100751
 H   -0.4325979488    1.7358489512    1.0638698371
 H    0.1486482822   -0.6535894197    0.7067112733
 H   -1.1890190396   -0.2201096682   -0.3585223704
 H    1.8959713132   -1.9349127450   -5.0591334162
 H    0.3839292931   -2.7121924502   -4.5314727503
 H    0.3524411012   -1.0557825284   -5.1746964390
 H    3.8409801569   -0.5963928695   -4.0429600535
 H    4.3931647436   -0.8961943057   -2.3852164112
 H    3.8470152097   -2.2440789102   -3.3990514978