18

 C   -0.2364784692    1.5450213442   -0.2082355347
 C    0.1431563109    0.0887265400   -0.0299957672
 C   -0.8132749707   -0.7251850242    0.8199514934
 C    0.8970885081   -0.6143880676   -1.1263114176
 N    1.5744758442   -0.1567807871    0.0801845882
 C    2.1504272405   -0.9960792105    1.0407104363
 N    3.0700239552   -1.8806776372    0.5115612825
 O    1.8932332268   -0.9313234360    2.2251094067
 H    0.5096331473    2.0722784507   -0.8076891978
 H   -1.2099007459    1.6324821937   -0.7027157577
 H   -0.3054022180    2.0433933724    0.7643948195
 H   -1.8271376358   -0.6483612827    0.4132988739
 H   -0.5327340981   -1.7805972927    0.8493285376
 H   -0.8204897262   -0.3575393187    1.8492150661
 H    0.7391124046   -1.6846762334   -1.2408956506
 H    1.1535097031   -0.0874843956   -2.0428876643
 H    3.4775566026   -1.6608649318   -0.3835758286
 H    3.6977290205   -2.2802191333    1.1917993543