19

 O    0.1232413766    1.2770052118   -0.3561253205
 C    0.0349229788   -0.0882474629   -0.0121619955
 C    0.1421587335   -0.4019175080    1.5428179464
 C   -1.4107570106   -0.4104599072    1.6040125060
 C   -2.3111603577    0.8415437644    1.5522093766
 C   -2.8636800294   -0.0749960124    0.4462760819
 C   -2.5932125031   -1.3986985562    1.3016984909
 C   -1.8307790053   -2.0771908014    0.1523484184
 C   -1.4365585727   -0.5901500033    0.0502112395
 H    1.0259478614    1.5676421162   -0.1876879049
 H    0.6867309388   -0.7020999709   -0.6515735964
 H    0.6088648228   -1.3710604328    1.7388999711
 H    0.6390045392    0.3597318089    2.1514544282
 H   -2.9583501150    1.0197650326    2.4179084531
 H   -1.8407283126    1.7671439594    1.2150392908
 H   -3.7275195187    0.0810067392   -0.2094802303
 H   -3.3026158746   -1.8428152697    2.0089947494
 H   -1.0463109980   -2.7838445746    0.4445580945
 H   -2.4227163232   -2.4910155332   -0.6705487391