19

 C    0.3393331231    1.5802014883   -0.0138400111
 C    0.0013312119    0.0870911392    0.1379005573
 C   -1.5229242757   -0.1367843259    0.1584701566
 O   -2.1006088983    0.2029176283   -1.0816405143
 N    0.4983373263   -0.6652596086   -1.0074057232
 C    1.6937180127   -1.1030841898   -1.0340378259
 N    2.6638356944   -0.9993445345   -0.0583211348
 C    2.1492925969   -1.8962794588   -2.2420205444
 O    1.4781851680   -2.1028935329   -3.2129947610
 H    1.4155238122    1.7449046133   -0.1281823401
 H   -0.1666152675    1.9779659527   -0.8961428767
 H   -0.0017825066    2.1384929132    0.8637317931
 H    0.4146926909   -0.2912446655    1.0888406065
 H   -1.7214482909   -1.1880550314    0.4222327288
 H   -1.9895629349    0.4952153321    0.9224065392
 H   -1.5498237406   -0.2448972645   -1.7404151030
 H    2.5590251047   -0.3013152402    0.6585115064
 H    3.6171233648   -1.2029181965   -0.3131718196
 H    3.1925252285   -2.2864298783   -2.1619861137