16

 O   -0.0658063147   -0.0556128611   -0.0707194589
 C   -0.0073269675    1.1234738816    0.1765882248
 C    1.2505542240    1.9472893976    0.0582398470
 C    1.2154444647    3.1880383095   -0.9179698644
 C    1.5504722743    4.1019320790    0.2742253385
 N    0.4347736002    3.8963702549    1.2444568531
 C    1.5451632660    2.9271411463    1.2098016699
 C    2.3388568573    5.2818881534    0.2749712290
 C    3.0076104593    6.2825120458    0.2511826391
 H   -0.8985620117    1.6931286238    0.5129923882
 H    2.0917987095    1.2880082544   -0.1599748316
 H    2.0100726101    3.1340562331   -1.6621305286
 H    0.2617383629    3.4078655143   -1.4025400583
 H    0.6020510064    4.5241057622    2.0305880351
 H    2.1566157669    2.7412870417    2.0840030225
 H    3.5986363423    7.1646915935    0.2330759046