18

 C   -0.0249362625    1.4470181221    0.2939062198
 C    0.0282382967   -0.0088887889   -0.1240061568
 O    1.0533432039   -0.5593234768   -0.4698062088
 C   -1.2360085879   -0.7154280386   -0.0853168823
 C   -2.2834829893   -1.3205283270   -0.0642838629
 C   -3.5220509457   -2.0459711376   -0.0123814973
 C   -4.6948869635   -1.3400685270    0.6402938063
 C   -3.7540522412   -3.0483535974   -1.1061831157
 N   -3.4434451320   -3.5094770453    0.2453727030
 H    0.9735830902    1.8815912730    0.2284791676
 H   -0.7173829055    1.9994148853   -0.3504697528
 H   -0.4045752768    1.5315532103    1.3178683587
 H   -4.9436668465   -0.4210376270    0.1012787614
 H   -5.5664179076   -1.9985839535    0.6426287146
 H   -4.4594197209   -1.0785003423    1.6760024797
 H   -4.7776253683   -3.2217412388   -1.4275731919
 H   -3.0020334702   -3.1374291212   -1.8840056438
 H   -2.4681376228   -3.7939688294    0.2996151814