20

 C   -0.9116880982    1.0365613940   -0.4227599344
 O   -0.0658110881    0.2634366702    0.4025888706
 C   -0.7098637884   -0.8112956811    1.0595767622
 C   -0.9441583755   -2.0074778673    0.1485831614
 N   -1.7908335786   -3.0889676566    0.6819373714
 C   -2.2771309230   -2.3624804961   -0.4799548305
 C   -3.5334548978   -1.5430150089   -0.3247464383
 C    0.2420170777   -2.4593495238   -0.6439633294
 O    0.3335424670   -3.5720976977   -1.1132698784
 H   -0.3099295170    1.8609128708   -0.8125971243
 H   -1.3120440177    0.4620177290   -1.2698980466
 H   -1.7577188471    1.4518459154    0.1454950849
 H   -0.0366117661   -1.1105596363    1.8703828308
 H   -1.6536661441   -0.4912681875    1.5209972812
 H   -1.3746467731   -3.9713123818    0.3803893776
 H   -2.1780276886   -2.8711300042   -1.4383426086
 H   -3.5960562950   -1.0809542385    0.6625971113
 H   -3.5937773522   -0.7607085522   -1.0880839864
 H   -4.4082432320   -2.1920249985   -0.4401399669
 H    1.0429753878   -1.7066087189   -0.7720244975