10

 O   -0.0141873452    1.4264224166   -0.0542365107
 C   -0.0039183940    0.0071771432    0.0349606216
 C   -1.4231701908   -0.5556060013   -0.0125663926
 O   -2.1122941316   -0.1056387482   -1.1722831277
 H   -0.1898788211    1.6415470511   -0.9755514801
 H    0.5965950414   -0.4331542952   -0.7740909498
 H    0.4731111572   -0.2490373319    0.9874721596
 H   -1.3949485910   -1.6497527924   -0.0628318813
 H   -1.9649741719   -0.2721691543    0.9013197201
 H   -2.3592599130    0.8094439625   -1.0061459692