18

 O    0.0794014610   -0.1500567763    0.0929867193
 C    0.0535197598    1.0623945168    0.0735086321
 N    1.1504477211    1.8739672853    0.0670059008
 C    2.4750143103    1.2634921411    0.0266084235
 C    3.0554527819    1.1731653879   -1.3624011097
 C    2.9627541770    2.1211520803   -2.3035296011
 C    2.3429327681    3.4416265020   -2.2033860153
 C    1.5635241901    3.9636626295   -1.2451201933
 C    1.0248757591    3.3135379100    0.0015115780
 H   -0.8896198431    1.6434301891    0.0717422031
 H    3.1432974137    1.8387703604    0.6820340170
 H    2.3696466605    0.2628865648    0.4502064808
 H    3.5895889832    0.2561681155   -1.5949503826
 H    3.4362742591    1.9195115280   -3.2613213996
 H    2.5783890341    4.1022846327   -3.0351232150
 H    1.2555044777    5.0017372759   -1.3553968711
 H   -0.0427808076    3.5515052699    0.0881771881
 H    1.4989175640    3.7762874571    0.8827847851