23

 C   -0.1818747712    1.3628721387   -0.0089028777
 O    0.0284459963   -0.0292810112   -0.0097402255
 C    0.7028085459   -0.5384565357    1.1375895539
 C   -0.2762893936   -0.6972479825    2.3049902717
 C    1.3660654353   -1.8555365178    0.6869814683
 C    2.3477136654   -1.6047653193   -0.4674278131
 C    2.0653954610   -2.5860079213    1.8507929900
 C    2.5926975625   -3.9425426939    1.4394476145
 O    3.7070971625   -4.3482915506    1.6445105982
 H    0.7648233027    1.9171419058    0.0872489281
 H   -0.6429012085    1.6181614722   -0.9664453868
 H   -0.8549136663    1.6922263098    0.7964684971
 H    1.4989668358    0.1695304028    1.4281179709
 H   -1.0124821444   -1.4779581571    2.0866864736
 H    0.2384325737   -0.9495769556    3.2359395802
 H   -0.8181536601    0.2360215414    2.4814248185
 H    0.5527687764   -2.4978899379    0.3190185885
 H    3.1917426279   -0.9901977547   -0.1319598209
 H    2.7603915104   -2.5428916012   -0.8519162876
 H    1.8485038114   -1.0856087835   -1.2864534766
 H    2.8945225218   -1.9994718867    2.2606826527
 H    1.3492309224   -2.7729998742    2.6621719790
 H    1.8382812927   -4.5814652075    0.9200286328