21

 C   -3.0174934249    0.0609772561   -2.2314435952
 C   -2.2517335134   -1.1516794253   -1.7379280066
 O   -2.1375830243   -2.1438502745   -2.4262160460
 C   -1.6637021125   -1.0390235044   -0.3322777212
 C   -1.1058281610   -2.3266070352    0.2498844282
 C    0.3010085318   -2.6931599056   -0.1942825075
 O    0.4925433948   -2.6451681311   -1.5921290771
 C   -1.4674104252   -2.6873780463    1.6734222863
 C   -2.0803676673   -3.4487489203    0.5278595434
 H   -3.2833979417   -0.0678374316   -3.2809937903
 H   -3.9307324888    0.1906451167   -1.6388753335
 H   -2.4244854762    0.9728247516   -2.1035692687
 H   -0.8860847280   -0.2624386813   -0.3709205079
 H   -2.4490966683   -0.6257518157    0.3144945579
 H    1.0192681377   -1.9836213498    0.2405326247
 H    0.5489245139   -3.6875104787    0.2151840035
 H   -0.3402452583   -2.9080619472   -2.0094640157
 H   -0.7138316413   -3.1852303515    2.2750528133
 H   -2.0945393364   -2.0007385045    2.2325775788
 H   -3.1287590690   -3.2830118631    0.3041615458
 H   -1.7477787416   -4.4657992983    0.3495726480