15

 O    0.0280631535    0.0127879131   -0.3879245750
 C   -0.0053830244    1.1683143592   -0.0525056802
 C   -1.2825300293    1.9451354239    0.2706884673
 C   -0.9614632637    3.3773782031    0.6582468024
 C    0.2219354164    4.0447298412   -0.0225492186
 O    1.0651025917    3.1741484870   -0.7500526741
 C    1.2347530769    2.0519673591    0.1055238535
 O    1.2354844386    2.5435604741    1.4390969570
 C    0.3335594216    3.6316232447    1.4116036890
 H   -1.9377650859    1.9042690286   -0.6068848597
 H   -1.8066748157    1.4192810429    1.0768452495
 H   -1.7989504184    4.0210714567    0.9088480133
 H    0.2178920451    5.0543326031   -0.4089179324
 H    2.1684521073    1.5340696591   -0.1163273272
 H    0.4263596864    4.2828267944    2.2694596652