23

 C   -0.7783832084    1.2250532663   -0.3722725177
 C    0.0969389960   -0.0168179705   -0.3024701708
 C    1.5898821273    0.0868199668   -0.7234088082
 C    1.9206263519   -0.9197555407    0.4034271013
 O    3.1298275691   -0.8266378517    1.1149998636
 C    0.5600278513   -0.5637307570    1.0779276150
 C    0.6466114369    0.3449118213    2.3381827899
 C    0.3698679716   -0.9109711301    3.2054427690
 C   -0.1743953923   -1.6183781540    1.9351282240
 H   -0.3190435208    2.0685731441    0.1544401380
 H   -0.9391529680    1.5326074001   -1.4114322558
 H   -1.7632360822    1.0486270808    0.0754063722
 H   -0.3823782231   -0.8329826818   -0.8576302161
 H    1.8719441244   -0.1679389346   -1.7478230019
 H    1.9915055542    1.0801394839   -0.4861948388
 H    1.8847088208   -1.9488218048    0.0288076213
 H    3.2577599466    0.0942156200    1.3648516480
 H    1.5768584547    0.8913542374    2.5244598516
 H   -0.1802745680    1.0601243727    2.3782865510
 H    1.3014001389   -1.3676144441    3.5481722290
 H   -0.3057896963   -0.7984064980    4.0564182096
 H   -1.2628999285   -1.5269044596    1.8501901199
 H    0.1001885439   -2.6654810866    1.7739553358