19

 C    0.0736541622    1.3077885082   -0.2976852213
 O   -0.0234601324   -0.0278553024    0.1678085687
 C   -1.3033105775   -0.5356362678    0.1376738343
 C   -1.9466647956   -1.0421927098   -1.1443003969
 C   -1.6880656959   -2.0144796141   -0.0232104661
 O   -0.8982132956   -3.1198962717   -0.2717651141
 C   -2.7002035496   -1.8750396480    1.0851616292
 C   -2.0535580974   -1.3631949529    2.3510919650
 C   -2.3277696285   -0.3879597938    1.2382736781
 H    1.1285123047    1.5875412094   -0.2485506580
 H   -0.2762872960    1.3961360200   -1.3355467520
 H   -0.5075613488    1.9994492499    0.3283556994
 H   -2.9569554473   -0.7616392179   -1.4315215857
 H   -1.2455168092   -1.1506781480   -1.9666744569
 H   -0.4341454884   -3.3460528725    0.5424148943
 H   -3.7055958953   -2.2812781885    1.0789638380
 H   -2.7097220977   -1.2927095619    3.2133774532
 H   -1.0273434759   -1.6255956751    2.5943982918
 H   -3.0381319458    0.4238553470    1.3460524989