21

 O   -0.1982328824    1.5928858574   -0.3301939254
 C    0.0110886686    0.2480399293    0.0838741398
 C   -1.2860602036   -0.5312402056    0.0873386857
 C   -1.8702125758   -1.2578028724   -1.0953721810
 C   -0.8032353337   -2.0445516212   -1.8763970294
 C   -0.5181844961   -2.8946033748   -0.5951365716
 C    0.8980390162   -3.1121930612   -0.0939528497
 O    1.5415629819   -3.9807482759   -1.0185009741
 C   -1.5049568642   -2.0205629763    0.1921368615
 H   -0.6152929772    1.5598816859   -1.1977555490
 H    0.7724812537   -0.2365314850   -0.5409651375
 H    0.4179000733    0.3131656962    1.0991014700
 H   -2.0516971877    0.0074779205    0.6447827302
 H   -2.8591517665   -1.0259591940   -1.4727435379
 H   -1.2153122309   -2.6418037290   -2.6910921864
 H    0.0359922407   -1.4653867152   -2.2747402339
 H   -0.9593972806   -3.8868724909   -0.7340682413
 H    1.4414394663   -2.1606655299   -0.0063523217
 H    0.8582896711   -3.5576797820    0.9144960091
 H    2.4547111342   -4.0950936194   -0.7399598501
 H   -2.1746168775   -2.4099496965    0.9511395829