19

 C   -0.0837114960    1.5337319266   -0.0384248662
 C   -0.0613538712    0.0064146501   -0.0330599171
 O   -1.3586568914   -0.4756924576   -0.2995247795
 C    1.2136866196   -0.5899183063   -0.7306454960
 O    1.9387589162   -0.1358411306    0.4722149167
 C    0.7219890830   -0.5963183861    1.1701118835
 C    0.8292292305   -2.1175807959    0.9637718250
 C   -0.0180445032   -2.8525463029   -0.0473167047
 C    1.2130764678   -2.1115406797   -0.5114255673
 H    0.8930725326    1.9523994801    0.1956150997
 H   -0.3875016743    1.8996913668   -1.0284146445
 H   -0.8152409287    1.8943849514    0.6927266867
 H   -1.8160077763    0.1788542536   -0.8354259496
 H    1.6232513491   -0.1925593010   -1.6602742323
 H    0.6280098384   -0.2104452963    2.1858096257
 H    1.3995052722   -2.6735919369    1.6983292381
 H    0.0985139953   -3.9330911759   -0.0210017615
 H   -1.0077424613   -2.5144303558   -0.3027384437
 H    2.0709727175   -2.6628320337   -0.8778284731