17

 O   -0.0524013430    1.4084694564   -0.0971057175
 C    0.0388470809    0.0080265663   -0.0016134202
 C    0.3635708882   -0.7893291146   -1.2997548867
 C   -0.8604519640   -1.7086277215   -1.0136108732
 C   -1.3391895766   -0.6954009794    0.0599999896
 O   -1.5491682668   -1.2085492109    1.3702676166
 C   -0.4082985494   -1.1317839400    2.1158616212
 O   -0.3497065968   -1.5333994785    3.2392546819
 C    0.7082036485   -0.4824956307    1.2903945026
 H    0.8374279688    1.7682101460   -0.1821131748
 H    0.2096214845   -0.1563930192   -2.1764437048
 H    1.3444589411   -1.2655635841   -1.3664371027
 H   -1.5417791746   -1.8936599017   -1.8448014048
 H   -0.5907924774   -2.6653706183   -0.5606257076
 H   -2.1919178164   -0.0763359850   -0.2187487101
 H    1.4937129445   -1.2262677542    1.1275937580
 H    1.1396040585    0.3397876394    1.8654447024