21

 C   -0.1894105972    1.4822223123    0.0404632075
 C    0.0133365835   -0.0324043808   -0.0202305856
 C    0.7819767401   -0.5135573108   -1.2619836731
 C    0.8703623362   -2.0751414671   -1.3609276973
 C    0.3808867389   -2.3963363952   -2.7930548691
 C    0.3534340225   -1.0160886048   -3.4644179740
 O    0.0339779143   -0.1113040969   -2.4174677468
 C    2.1322977988    0.0767081281   -1.3145632888
 C    3.2376473293    0.5482665549   -1.3644034912
 H    0.7702081273    2.0059236309    0.0782225557
 H   -0.7320782028    1.8328730662   -0.8408772430
 H   -0.7626164470    1.7578398801    0.9307386515
 H    0.5518207216   -0.3828379692    0.8678646233
 H   -0.9570364060   -0.5421677954   -0.0338588779
 H    1.8919554444   -2.4154641013   -1.1864699866
 H    0.2316592567   -2.5352250045   -0.6032950515
 H    1.0298285442   -3.1037651182   -3.3148260037
 H   -0.6263258456   -2.8208756035   -2.7684018659
 H    1.3332608164   -0.7696065892   -3.9009615201
 H   -0.4101552521   -0.9101018228   -4.2387280668
 H    4.2105110366    0.9721244272   -1.4088260864