16

 C    0.0011983880    1.4683220922    0.0222505617
 N    0.0116277403    0.0107121790   -0.0048903409
 N   -0.0203106516   -0.5816110601   -1.1908322130
 C   -0.0105881353   -1.8873501795   -1.2097551000
 C    0.0328034467   -2.7156453656   -0.0171957414
 O    0.0425604468   -3.9421377917   -0.0146894927
 C    0.0642868923   -1.9048263666    1.2086535414
 C    0.1106416398   -2.5976847295    2.5315060852
 N    0.0531903531   -0.5983448868    1.1834583569
 H    0.9040276214    1.8373591480    0.5150991843
 H   -0.0344187449    1.8151411874   -1.0083541760
 H   -0.8739330035    1.8234838845    0.5719423762
 H   -0.0371375801   -2.3558954381   -2.1884554698
 H    0.9922001219   -3.2454340115    2.5836885240
 H    0.1301682819   -1.8747231914    3.3477974577
 H   -0.7556893169   -3.2592265504    2.6377151864