20

 C   -0.1446101753    1.4864472701    0.2023431127
 C   -0.1128820395   -0.0320658458    0.0032290102
 C    0.6234529446   -0.4837825570   -1.2690424380
 C    0.8887304817   -1.9735266903   -1.3637992684
 N   -0.3430098998   -2.7543079140   -1.6086698100
 C    0.5768923406   -2.4726212854   -2.7307931314
 C    0.0882846093   -1.3267008422   -3.5847913800
 C   -0.1250110684   -0.1750323144   -2.5859858922
 O   -0.7755783699    0.8126925628   -2.8098941223
 H    0.8701493690    1.8945559930    0.2798958205
 H   -0.6429387439    1.9778353179   -0.6349270655
 H   -0.6755014750    1.7439991246    1.1242661207
 H    0.3791020513   -0.5038557744    0.8635718551
 H   -1.1307875457   -0.4347464722   -0.0265227371
 H    1.5882244593    0.0452756341   -1.3322096339
 H    1.6804499715   -2.4159116607   -0.7675358864
 H   -0.2124052129   -3.7102254680   -1.2883313977
 H    1.1351635733   -3.2902975527   -3.1737934286
 H    0.8458533270   -1.0186273831   -4.3171947376
 H   -0.8381988072   -1.5309884125   -4.1271886401