23

 C   -0.0648845179    1.5152576532   -0.0286389846
 C   -0.0320337349    0.0070562431    0.0385302777
 C    1.2595961682   -0.7374228899   -0.2132248261
 C    0.6306941638   -0.7886200017    1.1638511443
 C    1.3587561599   -0.1766313263    2.3388558006
 C   -0.2481251222   -2.0091963457    1.4420789799
 O   -1.0377216969   -1.8237737865    2.6175352368
 C   -1.1188939341   -2.1754126576    0.1775337984
 C   -1.2933928149   -0.7457410959   -0.3810310230
 H    0.8590987636    1.9622389240    0.3494593483
 H   -0.1931446988    1.8579629572   -1.0624188332
 H   -0.8974417203    1.9243023713    0.5569526156
 H    1.2669548942   -1.6185832943   -0.8472870238
 H    2.1589384708   -0.1349595770   -0.3007866023
 H    1.8706420749    0.7487319217    2.0596273486
 H    0.6738765816    0.0430924210    3.1624076824
 H    2.1180856847   -0.8678387167    2.7235846749
 H    0.3419151266   -2.9074641721    1.6543768002
 H   -1.5668281605   -1.0280675833    2.4926970981
 H   -0.6142612156   -2.8158965530   -0.5517206228
 H   -2.0646826101   -2.6603299133    0.4299098676
 H   -2.1709776192   -0.2553663447    0.0625181670
 H   -1.4489851630   -0.7378091134   -1.4658126644