14

 C    0.0111132348    1.5104213488   -0.0262042583
 C   -0.0257205858    0.0197089175   -0.0237749025
 C   -1.0548873545   -0.8250061017   -0.1304361555
 C   -0.5552009128   -2.2371509554   -0.0714509217
 O    0.8622339173   -2.1158686665    0.0797506251
 C    1.2041928347   -0.7868819319    0.1111042530
 N    2.3812445427   -0.3360014554    0.2354635769
 H    0.6451093630    1.8752441529   -0.8408820232
 H   -0.9884014890    1.9378199534   -0.1349510471
 H    0.4590661320    1.8825791815    0.9008958523
 H   -2.1012698474   -0.5725003757   -0.2432428241
 H   -0.9591923959   -2.8024370002    0.7794185226
 H   -0.7704783121   -2.8093714065   -0.9841163854
 H    3.0556597631   -1.0986613809    0.3109254180