19

 O    0.0745781868    0.0135308436   -0.6369751796
 C    0.0308737197    1.1361561519   -0.1939519234
 O    1.1081501363    1.8022318147    0.2882425430
 C    2.3436300409    1.1123019375    0.2275728282
 C    3.3333051929    1.5449274383   -0.8114037597
 C    3.5344234380    1.9073639059    0.6483581979
 C   -1.1924598704    1.9689447848   -0.0886664300
 C   -2.2330382157    1.8060073174   -1.1844865185
 C   -2.5021321587    1.2439020358    0.1707848057
 H    2.2594126675    0.0627507287    0.4788397394
 H    3.9658420684    0.7887884179   -1.2622754643
 H    3.0259939352    2.3416996217   -1.4789404346
 H    3.3587203471    2.9392828217    0.9299451706
 H    4.3112482003    1.4069130546    1.2150419679
 H   -1.0531726874    2.9505409048    0.3449312983
 H   -2.7593340429    2.7002007055   -1.4974007942
 H   -1.9840916865    1.1084980847   -1.9754391754
 H   -2.4329030946    0.1690912575    0.2889472014
 H   -3.2190130569    1.7409054132    0.8138616672