16

 O    0.0572751157    1.4059613239    0.1683883676
 C    0.0006464546    0.0151288710    0.0319173123
 C   -1.4379319544   -0.4992565006    0.0277923097
 C   -1.4349332173   -2.0226323209   -0.1356275176
 C   -0.6314134704   -2.5048620812   -1.3317733173
 O   -0.8228468243   -3.5491355041   -1.9051268114
 N    0.3970894731   -1.6495624496   -1.7511630118
 C    0.7176970715   -0.4031263319   -1.2503198911
 O    1.5283800519    0.3222007786   -1.7877312140
 H    0.7800207504    1.6965282166   -0.4095500503
 H    0.5434598738   -0.4828670502    0.8589898927
 H   -1.9315846850   -0.2116188730    0.9595138324
 H   -1.9852516284   -0.0192370145   -0.7911289285
 H   -0.9939321835   -2.4970614652    0.7518273683
 H   -2.4403618739   -2.4346618356   -0.2404090820
 H    0.9051021562   -1.9495437732   -2.5758133691