19

 C   -0.7157920161    1.1380483909    0.1646343486
 C    0.1752782306   -0.0810749879    0.0552770041
 O    0.8862529704   -0.4538645874    0.9598126907
 C    0.1231955038   -0.8300112992   -1.2687544544
 C    1.0501587201   -0.2705132021   -2.3353457882
 C   -0.0558270096   -2.3351585202   -1.2941535100
 C   -1.0311874336   -2.7647418147   -0.2048086596
 O   -2.0097594819   -1.7682431539   -0.6365932816
 C   -1.1744089069   -1.4121149093   -1.7426649277
 H   -0.6259413961    1.7816984534   -0.7166033482
 H   -1.7540029638    0.7889828979    0.2061707692
 H   -0.4789845816    1.6998932209    1.0689972008
 H    2.0958747848   -0.3595011642   -2.0244394688
 H    0.9309446599   -0.8163173617   -3.2772309045
 H    0.8423980474    0.7860771290   -2.5349360465
 H    0.5918776295   -2.9890177726   -1.8627576572
 H   -1.4333633911   -3.7718324160   -0.3567149421
 H   -0.7261166655   -2.6271158541    0.8362237179
 H   -1.6490397304   -1.2210787689   -2.6994609226