22

 C    0.1058607182    1.4744801486   -0.5076231580
 C   -0.0173985833    0.0388193282   -0.0445162244
 C    1.1783395096   -0.8401900557    0.1008069372
 N    0.4159474915   -0.4228678429    1.2760382051
 C    1.0511604544    0.5102104059    2.2000000403
 C    1.7296815536   -0.2717677707    3.3227775940
 C    2.3653509420    0.6147751758    4.3822992274
 C    3.0463681923   -0.0998321731    5.5371650684
 O    2.3297352978    1.8231039717    4.3121854539
 H    1.0781771984    1.9115476968   -0.2694036490
 H   -0.0226061271    1.5246402055   -1.5940823398
 H   -0.6687538568    2.1034246827   -0.0550087358
 H   -0.9468840316   -0.4369240978   -0.3567546106
 H    1.1382877990   -1.8967966346   -0.1521022417
 H    2.1496665428   -0.3721667860   -0.0634717250
 H    1.7915875393    1.1715015067    1.7260541705
 H    0.2795973035    1.1595648921    2.6263200472
 H    1.0059897287   -0.9421999503    3.8043592821
 H    2.5049074289   -0.9361611912    2.9156717009
 H    3.8365010066   -0.7619429031    5.1655602063
 H    3.4722566659    0.6306600280    6.2259583793
 H    2.3277943464   -0.7331922466    6.0695139916