21

 C   -0.1682295466    1.3321289619    0.0824069167
 O    0.0134692868   -0.0755447118    0.0592493233
 C    0.6983713862   -0.5944188329    1.1547074954
 O   -0.0495450175   -0.3138670462    2.3187098364
 C    0.5330964227   -0.8611910902    3.4957393210
 C    0.6360542030   -2.3832177305    3.4041030890
 C    1.4346239578   -2.7759333835    2.1540315354
 C    0.8485473016   -2.1039679849    0.9101205198
 O   -0.4102904665   -2.6883308598    0.6371862939
 H    0.7997295490    1.8504440074    0.1426895211
 H   -0.6585394869    1.6009024767   -0.8554079644
 H   -0.7906605403    1.6416795144    0.9271152936
 H    1.7012904473   -0.1266627675    1.2442767282
 H    1.5329078772   -0.4211533631    3.6589355860
 H   -0.1094500489   -0.5460264688    4.3222228277
 H    1.1088361054   -2.7784118825    4.3098673469
 H   -0.3717430606   -2.8035472768    3.3380225271
 H    2.4823746399   -2.4659919382    2.2619639736
 H    1.4312142274   -3.8598416453    2.0052590446
 H    1.5312369596   -2.2310472888    0.0541020834
 H   -0.8982299966   -2.0422212694    0.1114086212