19

 C    0.5315832146    1.5582513769   -0.1317658703
 C    0.0488680875    0.1357509587   -0.0692492253
 C   -0.1737611861   -0.6017971112   -1.1562289344
 C   -0.6501920593   -2.0342357701   -1.1144301059
 C    0.3843261614   -2.9852076778   -0.5119740935
 O    0.7955215250   -3.9451473160   -1.1328293757
 C    0.8436450389   -2.7434310954    0.8766815159
 C    0.5833742788   -1.6886428749    1.6605834723
 C   -0.1882086797   -0.4361233412    1.3219195657
 H    1.4936259641    1.6721862444    0.3847447296
 H    0.6563892551    1.8968544677   -1.1633906306
 H   -0.1714025559    2.2378901177    0.3675534877
 H    0.0158607125   -0.1792592568   -2.1389713813
 H   -1.5635485859   -2.1102820915   -0.5045824849
 H   -0.8870001440   -2.4074003543   -2.1118669808
 H    1.4511485076   -3.5567283964    1.2650951371
 H    0.9753331618   -1.7217412489    2.6757948410
 H    0.0396946610    0.3240941805    2.0747483636
 H   -1.2647620673   -0.6455282416    1.4426337398