20

 O    0.1962726189    1.2889271931   -0.3902736046
 C    0.0539234913   -0.0530103728    0.0212799649
 C    0.3776338527   -0.3077644573    1.5111267919
 C   -0.5704963610   -1.4466470906    1.8715167062
 O   -1.7627509321   -1.1698165540    1.1395415154
 C   -1.3954348209   -0.6476845459   -0.1361648440
 C   -2.4029168248    0.3955758631   -0.5633461621
 C   -3.8128046366    0.3543192781   -0.1286332580
 N   -2.8895001797    1.3651721111    0.4415394104
 H   -0.5116774990    1.8085169007    0.0113400555
 H    0.7446082803   -0.6132826328   -0.6153426877
 H    1.4307006751   -0.5404570137    1.6826985534
 H    0.1301631140    0.5911507289    2.0867538925
 H   -0.1561642672   -2.4227518239    1.5724645360
 H   -0.8345533156   -1.4967136926    2.9306388480
 H   -1.3808693369   -1.4648599953   -0.8737186011
 H   -2.1692798561    0.8453536604   -1.5245524802
 H   -4.5871497536    0.7546564757   -0.7761650782
 H   -4.1181785758   -0.4616440897    0.5180311009
 H   -2.6126365430    1.0072972376    1.3554790709