16

 C   -0.0325036113    1.4524012239   -0.1061952321
 C   -0.1237972157   -0.0310211504   -0.0557234533
 C   -1.1849002000   -0.8909898210   -0.0352351951
 C   -2.6556234496   -0.5969185031   -0.0764768409
 O   -3.0057788813    0.3895747301   -1.0436937871
 C   -0.5455231519   -2.1637847703    0.0175697552
 O   -1.1942803550   -3.3401061734    0.0509525944
 N    0.7616901694   -2.0898479563    0.0289729349
 O    1.0335231398   -0.7160410941   -0.0233740447
 H    0.7268068400    1.7677116452   -0.8279553988
 H   -1.0009002687    1.8620760567   -0.3964473594
 H    0.2498609116    1.8625548312    0.8700392104
 H   -3.2019450869   -1.5360137626   -0.2412385761
 H   -3.0044622615   -0.1896214432    0.8787300148
 H   -2.7033834269    0.0707398480   -1.9009383333
 H   -0.5294074020   -4.0414424306    0.0715317612