13

 C    0.0750677321   -6.3229460733   -0.0659229910
 C    0.0653368508   -5.1134978620   -0.0444348689
 C    0.0549066031   -3.7613637600   -0.0197790269
 C    0.0445600470   -2.5428971110    0.0020036590
 C    0.0345771947   -1.1934194298    0.0270576501
 C    0.0307081778    0.0199060616    0.0596422849
 C   -0.0080101438    1.4522590400    0.0673327858
 C    0.5156134597    2.2353954641    1.2083464573
 O    1.2472059985    2.1496475113   -0.0049692785
 H    0.0837479005   -7.3846927111   -0.0857822056
 H   -0.7980128535    1.9005708482   -0.5344429569
 H    0.0677879599    3.2039622164    1.4263617699
 H    0.9448376932    1.7059616156    2.0564175707