18

 C   -0.0539754347    1.5303782459    0.0328317388
 C    0.1197139286    0.0351663694    0.0102318525
 N   -0.7767610849   -0.8483995249    0.7899379831
 C    0.6589438319   -0.7727563965    1.1347591847
 C    1.4477535798   -1.9783568065    0.5941253609
 O    0.9060579813   -3.2167741420    0.9928369396
 C    1.4374237667   -1.7889645206   -0.9332607380
 O    0.1317953421   -1.9558122434   -1.4985826658
 C    0.6060839101   -0.6273624181   -1.2786744285
 H    0.8404161450    2.0375971094   -0.3458961224
 H   -0.9008163374    1.8401083037   -0.5902458069
 H   -0.2328435173    1.8894325501    1.0513381921
 H   -1.3085038466   -0.2834031408    1.4493480112
 H    0.9466544045   -0.3291501750    2.0831681998
 H    2.4783299589   -1.9502492421    0.9635175352
 H   -0.0204510805   -3.1798632996    0.7166483383
 H    2.2595993132   -2.1595270911   -1.5411042526
 H    0.7492301794   -0.0219676378   -2.1706365020