23

 O   -0.4260091779    1.6673668211   -0.5897437839
 C   -0.1504178381    0.3348138199   -0.2045458233
 C   -1.4350430315   -0.4456484729    0.0294625546
 O   -2.1495817318   -0.4221886435   -1.1921319798
 C   -3.4591765441   -0.9863778911   -1.1318162553
 C   -4.4853557647   -0.0134932527   -0.4762242601
 C   -5.4249535689    0.4572781966   -1.6161325338
 C   -4.6481214520    0.1558870389   -2.9092103687
 C   -3.9456796263   -1.1686876652   -2.5776288142
 H   -1.0725732048    1.5976098093   -1.3021431775
 H    0.4538843852   -0.1872330935   -0.9636465496
 H    0.4334095592    0.3768337997    0.7208436828
 H   -1.2165498298   -1.4830843322    0.3332153967
 H   -2.0130687643    0.0321211605    0.8349251926
 H   -3.3990116597   -1.9437070462   -0.5955528562
 H   -5.0376903405   -0.4854821644    0.3409927245
 H   -3.9393844714    0.8323667999   -0.0483602080
 H   -6.3524046640   -0.1272132628   -1.6034579184
 H   -5.7090909231    1.5085107747   -1.5186371734
 H   -5.2892840116    0.0971577212   -3.7929166379
 H   -3.8992469803    0.9347182881   -3.0941690839
 H   -3.1156943108   -1.4218431787   -3.2410971228
 H   -4.6706366189   -1.9907731269   -2.6123475143