15

 O   -0.0404692845    0.0872982697   -0.5132585180
 C    0.1291292943    1.0471673853    0.1993730552
 C    1.2443172384    2.0093949095    0.0469172582
 C    2.1001814247    2.0078428329   -1.1719860607
 N    2.6961256621    1.4991143226    0.0565184192
 C    3.0148875114    2.6376268937    1.0116010389
 C    2.6599350131    4.0403437637    0.5995098166
 C    1.5841763130    3.1048705239    1.0764085951
 H   -0.5697429555    1.2772301555    1.0350160184
 H    1.8760016740    1.2076694104   -1.8706451280
 H    2.4357914169    2.9344750911   -1.6227702954
 H    3.7188706331    2.4101852731    1.8006619403
 H    2.9561030218    4.7756040861    1.3418756513
 H    2.7150358032    4.4143539204   -0.4162287551
 H    0.9659057540    3.2943783019    1.9442166142