21

 C    0.2630616604    1.5698972938   -0.2757437857
 C   -0.0147687214    0.0938875016    0.0467559682
 C    0.4944985011   -0.8309621919   -1.0747643152
 C    1.9441559774   -1.1637298490   -0.6999018668
 O    2.7731143008   -1.6308499401   -1.4371673873
 C    2.1498510899   -0.7980669974    0.7733143709
 C    0.7465271753   -0.4456035282    1.2947226194
 C    0.7326710612    0.4594976633    2.5161975444
 O    1.3328116069   -0.2594709789    3.5852048588
 H    1.3311099434    1.7649829295   -0.4251331173
 H   -0.2512200275    1.8573184678   -1.1983621585
 H   -0.0895867564    2.2349886028    0.5182179868
 H   -1.0934309649   -0.0256225628    0.1929844136
 H   -0.0589864050   -1.7796767072   -1.0811058762
 H    0.4309111658   -0.4145508099   -2.0832833817
 H    2.6442521561   -1.6052325384    1.3168904015
 H    2.8259319876    0.0665172760    0.8161251331
 H    0.2545334872   -1.3801912757    1.5950407892
 H    1.2861145191    1.3883666675    2.3076721530
 H   -0.3054053399    0.7415610076    2.7595494104
 H    1.3791693927    0.3199628794    4.3511788394