19

 O    0.1948816090    1.3900115809    0.0976018833
 C    0.0305091532   -0.0054775239   -0.0271311644
 C   -0.9241671150   -0.4633301283   -1.1236043702
 C   -1.3587018877   -0.4596449404    0.3220471588
 C   -1.6393308321   -1.7641357347    1.0394703591
 O   -0.8928635440   -2.8547363886    0.5379432218
 C    0.3818325205   -3.0304272019    1.1196696805
 C    1.4246497884   -2.0015853306    0.7778258540
 C    1.2654747695   -0.7649690410    0.3054468122
 H    0.7252407145    1.6909605805   -0.6486896490
 H   -1.3202416963    0.3052825251   -1.7786590672
 H   -0.7311625142   -1.4281570604   -1.5775824332
 H   -2.0143268010    0.3544441488    0.6188192478
 H   -1.4768482609   -1.6517304298    2.1234208965
 H   -2.6935868007   -2.0276370889    0.8903033803
 H    0.2878263523   -3.1026631057    2.2194407333
 H    0.7266563965   -4.0134329121    0.7761057019
 H    2.4428752145   -2.3431948733    0.9581922588
 H    2.1675330434   -0.1790290258    0.1353532359