13

 O    0.0809788955    1.3843652690   -0.2223599165
 C    0.0106928977    0.0176657310   -0.0618082240
 C   -0.4747634700   -0.8613823900   -1.2223502547
 C   -1.2665729481   -0.7852711156    0.0394839818
 O   -1.0721896096   -1.8933158071    0.9187421203
 C    0.1853015628   -1.8880429687    1.4442699521
 O    0.6048758301   -2.7232657885    2.1819925607
 C    0.9011219137   -0.6117590311    0.9363578243
 O    1.9149578785   -0.1438619953    1.3843106925
 H    0.9036254374    1.6645875526    0.2045535493
 H   -0.8306610415   -0.2745360348   -2.0623280299
 H    0.0315072897   -1.7884021575   -1.4699697991
 H   -2.2547854562   -0.3504068339    0.1074803933