18

 C   -0.4203638822    1.4575456847    0.3722246371
 C    0.1068856694    0.0904303796   -0.0063814372
 C   -0.9618668582   -0.8183808422   -0.6309539346
 O   -1.6507291747   -1.5977329938    0.3631719572
 C   -0.8444485502   -2.2261228777    1.2531467122
 N    0.3444186249   -1.9404021239    1.5827061441
 C    0.9043687564   -0.7238607070    1.0427330573
 C    1.9847971925   -0.8078511218   -0.0582916199
 O    1.2744611470    0.1631843982   -0.8653769895
 H    0.3449623373    2.0434401244    0.8881270099
 H   -0.7291017980    2.0073365234   -0.5236675051
 H   -1.2911503272    1.3589515081    1.0298731843
 H   -1.7373300965   -0.2570790627   -1.1563022634
 H   -0.4786471116   -1.5023464157   -1.3374935982
 H   -1.3632274832   -3.0685450736    1.7074576857
 H    1.2318211066   -0.1015044948    1.8808777527
 H    2.9934020094   -0.4680535454    0.1957751556
 H    2.0399784484   -1.7910168198   -0.5420240581