21

 C   -0.0552138746    1.4957919900    0.1045327266
 C    0.0280472783   -0.0104255726    0.0628546273
 C    0.8703231827   -0.7793750147   -0.9959551269
 C    0.8083456269   -1.9204241383    0.0290085335
 C   -0.6952627043   -2.1405979224    0.5000408145
 C   -0.2577186165   -1.7456656112    1.9355424223
 C    0.7647509982   -0.8774739395    1.1885502876
 C   -1.2916785175   -0.8124026966   -0.0211658423
 O   -2.2977561614   -0.2282687275    0.7881632962
 H    0.9368935360    1.9441633802    0.2226531233
 H   -0.4918499635    1.8906061999   -0.8206340278
 H   -0.6857775600    1.8271454333    0.9346034049
 H    0.4480657589   -0.9073077239   -1.9988897783
 H    1.8889594481   -0.3869644315   -1.0764842983
 H    1.4674636241   -2.7881252464    0.0248126291
 H   -1.2402578030   -3.0629732813    0.2916240136
 H   -0.9995131953   -1.2779041224    2.5852825981
 H    0.2384333183   -2.5718697509    2.4536829241
 H    1.6569644866   -0.4448897220    1.6417120636
 H   -1.6458205376   -0.8893228001   -1.0592523308
 H   -3.0533237045   -0.8243636319    0.8047831896