15

 O    0.6282395674    0.4837180586    0.9296167905
 C   -0.0230052332    0.2618829697   -0.3095050841
 C   -1.3707119161   -0.4077382710   -0.1692961720
 C   -2.0846113193   -0.6919008242    1.1871692600
 O   -3.3388542174   -0.2423699789    1.5434304271
 C   -1.8470494252   -1.8013517502    0.2433640455
 O   -2.9033066136   -1.7671674084   -0.7610445857
 C   -2.4086663538   -0.5467477638   -1.2430118905
 O   -2.7678577350    0.0377310961   -2.2107193706
 H    0.1944627842    1.2252845818    1.3642191372
 H   -0.1635449309    1.1957649173   -0.8720461496
 H    0.6556989220   -0.3663998813   -0.8961334980
 H   -1.3764174016   -0.6119593429    2.0069466758
 H   -3.9767069715   -0.6384274762    0.9346095836
 H   -1.3205668660   -2.7378910266    0.3708319009