23

 C   -0.1027700314    1.7137826984   -0.1496488624
 C    0.0233455302    0.1948909555    0.0137421388
 C   -1.3309450349   -0.5059267460    0.0461424103
 C   -2.0962720021   -0.6284572143   -1.2834959941
 O   -1.3227409070   -1.4709062769   -2.1495616884
 C   -2.1706796906   -2.0916590512   -1.1729170714
 C   -1.4116493722   -2.0899778322    0.1659576098
 C   -0.1353961891   -2.9209274064    0.2495331811
 C   -0.4155848914   -4.4265338316    0.3149270593
 H    0.8806405797    2.1931878273   -0.1728753353
 H   -0.6176610499    1.9721032952   -1.0814234204
 H   -0.6704232851    2.1575259542    0.6762865876
 H    0.6174711428   -0.2166813907   -0.8087206078
 H    0.5695063281   -0.0290318943    0.9386439597
 H   -1.9705829856   -0.0511990904    0.8114186474
 H   -2.7702242515    0.0749963722   -1.7595271536
 H   -2.9157721963   -2.7869015780   -1.5432419262
 H   -2.0881481214   -2.3577566680    0.9858419766
 H    0.4910366348   -2.6995856831   -0.6207600800
 H    0.4375729071   -2.6170936359    1.1345565732
 H   -0.9609817751   -4.7683838992   -0.5714853358
 H    0.5141441797   -5.0008769422    0.3714864451
 H   -1.0189045288   -4.6816673425    1.1936875667