20

 C   -0.0109522907    1.5099046596    0.1659574006
 C    0.0152258897    0.0106910581   -0.0619170000
 C    0.9402886524   -0.4873009182   -1.1816886832
 C    1.3559986078   -1.8797897058   -0.6874466324
 C    2.7367682766   -2.3798303740   -1.1389712597
 O    3.0257609083   -3.6603478675   -0.6391596967
 C    1.2716465368   -1.7166033004    0.8180186809
 N    1.8436532655   -2.4746222408    1.6581611856
 O    0.5190695256   -0.6361600261    1.1381001964
 H    0.9981085956    1.8873677162    0.3568794293
 H   -0.4099587748    2.0153849683   -0.7190850029
 H   -0.6440484777    1.7632834634    1.0204205678
 H   -1.0056109550   -0.3619132920   -0.2220449946
 H    0.4441502959   -0.4975862581   -2.1542717294
 H    1.8181282990    0.1667065636   -1.2546407996
 H    0.6118706909   -2.6309619063   -0.9829076160
 H    2.7622319786   -2.4430360273   -2.2329744357
 H    3.4941892431   -1.6353019201   -0.8365734033
 H    2.8875541069   -3.6035404914    0.3221660884
 H    1.6652189956   -2.1785874712    2.6178564645