21

 C   -0.1695994033    1.5560145667    0.0302730808
 C    0.0367942536    0.0606786610   -0.0247211541
 C    0.0124675091   -0.5729824569   -1.2023781843
 C    0.1277332518   -2.0362873641   -1.5407474917
 C   -0.1403325727   -3.0056765485   -0.3890275263
 O   -0.1798828988   -4.3106565478   -0.9571115539
 C    0.9102382933   -2.8934114552    0.6877564005
 C    1.0741772152   -1.8142801729    1.4462321785
 C    0.2360048625   -0.5604839066    1.3523534045
 H    0.7104713285    2.0635103453    0.4470341973
 H   -0.3700932566    1.9767800606   -0.9582859654
 H   -1.0129003524    1.8142055301    0.6849729490
 H   -0.1295356275    0.0562961608   -2.0802952857
 H   -0.5883807934   -2.2680401519   -2.3394300117
 H    1.1201235065   -2.2571236054   -1.9588890354
 H   -1.1264189424   -2.7518917833    0.0379974321
 H   -0.3747972976   -4.9339526174   -0.2502140214
 H    1.5703763409   -3.7515047773    0.7937574847
 H    1.8611461425   -1.8102960312    2.1959238150
 H    0.6846853348    0.2043288089    1.9963387065
 H   -0.7559112338   -0.7438819048    1.7997665210