20

 C   -0.2072769945    1.4256941067   -0.0280439749
 C   -0.3312666678   -0.0621374160   -0.3282353250
 O    0.1768449141   -0.5794696128   -1.3041157471
 N   -1.0467874285   -0.7788795073    0.5956927811
 C   -1.1450477713   -2.2073431544    0.5380248257
 C   -2.3269355806   -2.9365529298    1.1045707419
 C   -3.6266380111   -2.1497055627    0.8833484135
 C   -3.3431841911   -2.1315682999   -0.6528144063
 C   -2.0569891101   -2.9264633101   -0.4124012584
 H   -0.2083899821    1.9732291067   -0.9716412265
 H   -1.0068802035    1.8041545358    0.6149265566
 H    0.7515374979    1.6153573224    0.4659981728
 H   -1.3490039033   -0.3164731696    1.4379619209
 H   -0.1979305429   -2.7244482332    0.6800204884
 H   -2.1957039568   -3.7334295060    1.8275407205
 H   -4.5117271682   -2.7387791386    1.1317561398
 H   -3.7075100217   -1.1805314174    1.3868889671
 H   -4.0896656535   -2.6954283607   -1.2152317335
 H   -3.2132140344   -1.1524633468   -1.1217477714
 H   -1.6708919206   -3.7114570763   -1.0504698051