18

 C   -0.0257703276    1.5522648526    0.0420548054
 C   -0.0298650041    0.0481265562   -0.0116062893
 C    0.3915430242   -0.8188887200   -1.2561993311
 C   -0.3277148209   -1.9226233404   -0.4599463482
 O    0.5005199482   -2.0413984238    0.7401451372
 C    0.7341025970   -0.7098914193    1.0484972923
 N    1.4158929855   -0.2686542093    2.0102194017
 C   -1.3463389720   -0.8435834523   -0.0222529268
 O   -2.1151139268   -1.0160676991    1.1213321169
 H    0.9968262641    1.9404718774    0.0262292773
 H   -0.5745576166    1.9780966136   -0.8032934156
 H   -0.4941099079    1.8976041856    0.9683991631
 H   -0.1285605444   -0.5275471333   -2.1706228153
 H    1.4580522771   -0.9599346200   -1.4368480744
 H   -0.5749809637   -2.9154879358   -0.8279357149
 H    1.8153381570   -1.0335421236    2.5579209046
 H   -2.0165381617   -0.5393777112   -0.8287465625
 H   -1.5637308472   -1.4348404074    1.7941862497