15

 O   -0.2758622209    0.0997377581    0.2394565521
 C   -0.0701501468    1.2753900435    0.0656590280
 C    1.2757894273    1.8800306586   -0.0293628258
 C    1.4491635911    3.3769922308    0.2350370796
 C    1.5872861272    2.8761685178   -1.1542236842
 O    2.8795614553    2.6253741249   -1.6394000441
 C    3.4804407892    1.5829878920   -0.9637855465
 O    4.6003457786    1.2502122680   -1.1946845838
 C    2.5038450260    1.0093642780    0.0645300923
 H   -0.9085403568    2.0006843453   -0.0464575212
 H    0.5477527640    3.9315989124    0.4765042079
 H    2.3416958320    3.6938152113    0.7641082854
 H    0.8820002803    3.1274844672   -1.9365760514
 H    2.9839102142    1.0009224548    1.0464749889
 H    2.2623239592   -0.0270739228   -0.1891252673