16

 O    0.7168105799   -0.2534710038   -0.1570661385
 C    0.3817835884    0.9022864996   -0.1048033572
 C    1.3237693559    2.0733056163   -0.1660068204
 C    0.7838043933    3.3551098539   -0.8791491537
 C    1.0532540333    4.1593276019    0.4127284201
 O    1.0029833478    5.3156697561    0.7042697744
 C    1.4138627321    2.8894839379    1.1579174423
 C    0.9548874847    2.4707235912    2.5201674876
 N    2.3598022147    2.7711063028    2.2574703508
 H   -0.6885975808    1.1878228854    0.0287029579
 H    2.3012217797    1.7432973968   -0.5244875535
 H    1.3346169802    3.6845116917   -1.7622908431
 H   -0.2823666717    3.3085179618   -1.1273356998
 H    0.4395381664    3.1951528122    3.1439973976
 H    0.6462325273    1.4358520407    2.6466208087
 H    2.9031106788    1.9158680856    2.1576541769