24

 C   -1.7590085055    0.7594811551    1.1168386992
 O   -1.4032359981   -0.2140253162    0.1627935493
 C   -0.1093365215   -0.8259707065    0.2887921456
 C    1.0185111908    0.2146566642    0.1559916177
 C    0.0342490697   -1.5807457707    1.6167480537
 C   -0.0490288013   -1.7096898570   -0.9585249853
 N    0.9199012722   -2.8098439078   -1.0196179417
 C   -0.5162837285   -3.1081765032   -1.1737692372
 C   -1.1742310139   -4.0384700966   -0.1812592524
 H   -1.7674230192    0.3658889011    2.1430972932
 H   -1.1043367824    1.6421855011    1.0911517838
 H   -2.7737254810    1.0806400749    0.8660119243
 H    1.0556689370    0.8896192771    1.0155000884
 H    1.9826479406   -0.2987641309    0.0944249019
 H    0.8849791320    0.8144213102   -0.7496559367
 H   -0.8791632156   -2.1311102063    1.8509270625
 H    0.8673044703   -2.2843589348    1.5532056223
 H    0.2363788016   -0.8892937002    2.4398727754
 H   -0.1366366984   -1.0843606451   -1.8477421349
 H    1.4048948203   -2.8255198907   -1.9116599026
 H   -0.8562252508   -3.2818457544   -2.1958355851
 H   -0.6722031406   -4.0225997213    0.7851409760
 H   -2.2263685746   -3.7714840865   -0.0359692127
 H   -1.1389401531   -5.0670445156   -0.5571427348