18

 C    0.4059925439    1.1221387897   -0.3377029835
 O   -0.3279623481    0.1762587829    0.4211401342
 C    0.4542850983   -0.5479092413    1.3107038502
 C   -0.2055182459   -1.7436883125    2.0294952452
 C   -0.1782269438   -2.5338894243    0.6972700730
 C    1.2187923199   -1.8598969318    0.8557294889
 N    1.1717757099   -2.3212619336    2.3092978115
 C    2.3845190780   -1.9832748684    0.0325295472
 C    3.3609406149   -2.0634099655   -0.6661980356
 H    1.1553846641    0.6351844461   -0.9748582477
 H   -0.3108254489    1.6544728270   -0.9662369707
 H    0.9171168243    1.8464317098    0.3139773551
 H    1.0647517071    0.1110267871    1.9491433210
 H   -0.9835337014   -1.7260928570    2.7912853002
 H   -0.1716723581   -3.6189279298    0.7968884372
 H   -0.8064006443   -2.1634783280   -0.1100214071
 H    1.7104199299   -1.6645111327    2.8873675904
 H    4.2234143000   -2.1441235878   -1.2806169597