17

 C   -0.1456987738    1.4602428262   -0.0037062238
 C    0.1166329467   -0.0185668462    0.0358128974
 O   -0.6633370424   -0.7864208245    0.9505287475
 C    0.7764796517   -0.7661894324    1.1211453814
 C    1.4431927682   -1.9548701500    0.5118607412
 C    1.2198040450   -1.9871458674   -0.8017941065
 C    0.4279499797   -0.7722714975   -1.2805162834
 C   -0.7581710196   -1.1018563202   -2.0620418168
 C   -1.7340567723   -1.3646781824   -2.7120316419
 H    0.6951425037    1.9971125182   -0.4552596852
 H   -1.0405606771    1.6697473059   -0.5997102051
 H   -0.3089291277    1.8454175517    1.0055675597
 H    1.1253683259   -0.3058673788    2.0408920352
 H    1.9917772683   -2.6938266497    1.0824671544
 H    1.5171724726   -2.7714101644   -1.4871011009
 H    1.0807839436   -0.1352627694   -1.8969626550
 H   -2.6013299126   -1.6021219791   -3.2767566084