23

 C   -0.4344712040    1.4768467796    0.2655241939
 C   -0.2995030265   -0.0489029191    0.3435172612
 C    0.8410638554   -0.5267175123    1.2487346207
 O    2.0989804891   -0.0414713016    0.8105942943
 C    0.5413109569   -0.3751342409    2.7784746964
 C    0.1726683841   -1.8828669445    2.8240014404
 O   -1.2151168417   -2.1353849878    2.6588862124
 C    0.9080110134   -2.0683694517    1.4706770382
 C    0.3686919478   -3.0516801104    0.4439304983
 H    0.4459868221    1.9448915377   -0.1910352949
 H   -1.2928514822    1.7581362330   -0.3514933443
 H   -0.5793135541    1.9253496542    1.2547653899
 H   -1.2335861344   -0.4820163325    0.7133973222
 H   -0.1347598417   -0.4491989522   -0.6639259501
 H    2.0407341653    0.9150894436    0.7175199908
 H    1.4590864348   -0.1571123312    3.3304658770
 H   -0.2446971372    0.3227274687    3.0830280228
 H    0.5681121000   -2.4575312554    3.6714009700
 H   -1.6671961640   -1.8209254258    3.4481842046
 H    1.9576429488   -2.2918498560    1.6880162495
 H   -0.6977945837   -2.9032696197    0.2622769305
 H    0.9022478196   -2.9498885476   -0.5068970927
 H    0.5034607421   -4.0817038179    0.7909122091