17

 O   -0.5617735791    0.7738628911    0.8845581364
 C    0.0625648527    1.0093701026   -0.1167208614
 C    1.3393320781    1.8190582751   -0.1734759959
 C    1.2511942349    2.9567648615   -1.2033475988
 C    2.5658590484    3.7246636523   -1.3337845910
 C    2.5067684395    4.8406296502   -2.3644144386
 O    1.5221210123    5.0791589608   -3.0288512634
 C    3.7293916519    5.6155101271   -2.5069676665
 C    4.7511010111    6.2437917880   -2.6083850071
 H   -0.2792277233    0.6276540642   -1.1081414789
 H    1.5590152741    2.1915821073    0.8316719109
 H    2.1481921387    1.1306047760   -0.4618213365
 H    0.9696415777    2.5563120032   -2.1835891614
 H    0.4530917084    3.6526029944   -0.9242296550
 H    2.8695430336    4.1679302642   -0.3755659535
 H    3.3938522059    3.0576962072   -1.6129361432
 H    5.6444721951    6.8107819249   -2.7124093960