23

 C   -0.0279807002    1.2727020591    0.3331668988
 O   -0.0246527142   -0.1150497711    0.1064609469
 C   -1.3249316629   -0.6614094601    0.0397322557
 C   -1.2070269326   -2.1640959800   -0.1802221304
 C   -2.5613726379   -2.8430680758   -0.2637187548
 C   -2.6212474305   -4.3836427895   -0.2124381162
 C   -3.5750320922   -4.1684046664    0.9839612710
 C   -3.2391133784   -4.8085194950    2.3148001597
 O   -3.3163469124   -2.7417097870    0.9706828560
 H    1.0134886249    1.6017869143    0.3738888226
 H   -0.5410686482    1.8192590161   -0.4748183728
 H   -0.5200960498    1.5320327587    1.2842967466
 H   -1.8799761468   -0.4622603713    0.9702403890
 H   -1.8945828646   -0.1957819934   -0.7844785593
 H   -0.6528131784   -2.3519301620   -1.1085740913
 H   -0.6281851909   -2.6004299490    0.6415182872
 H   -3.1439495241   -2.4209322829   -1.0971427726
 H   -3.0325429960   -4.8901718825   -1.0866404365
 H   -1.6711868828   -4.8492018076    0.0632889552
 H   -4.6266444449   -4.3631969123    0.7271907480
 H   -2.1891796137   -4.6390991498    2.5725415237
 H   -3.8606240274   -4.3855592641    3.1105671221
 H   -3.4212594262   -5.8883220382    2.2766867913