12

 O    0.1040743985    1.3381560241    0.0071243104
 C   -0.0151288616    0.0185985450    0.0009433739
 C   -1.1256180417   -0.7633448275    0.0028897361
 N   -0.6257675048   -2.0842679312   -0.0071232407
 C    0.7283733234   -2.1101329090   -0.0139542111
 O    1.5328428021   -2.9904632220   -0.0240707833
 O    1.1083970200   -0.7221353653   -0.0093435114
 C   -2.5307193746   -0.4653086665    0.0120255650
 O   -3.3871668671   -1.3320424520    0.0120347205
 H    1.0432497429    1.5667042592    0.0031594166
 H   -1.2127743718   -2.9016526795   -0.0090965618
 H   -2.7795502452    0.6139370047    0.0191743258