19

 C   -0.0142468170    1.5448358495   -0.0133535810
 C    1.3712014475    2.1365991473   -0.0456425304
 C    2.4615578333    1.3817320740   -0.1332819484
 C    2.3292730412   -0.1269230198   -0.1837200612
 O    1.0815440902   -0.4984944975   -0.7636727507
 C   -0.0133743593   -0.0035480754    0.0031626467
 C   -0.0164506629   -0.6582497139    1.4066138547
 C    1.3677945745   -0.9385139273    1.9319632394
 C    2.4593554199   -0.7082365584    1.2095965830
 H   -0.5698319435    1.9300532128    0.8508449606
 H   -0.5666928811    1.8946529405   -0.8966082461
 H    1.4458348444    3.2206426928   -0.0164613845
 H    3.4597328073    1.8089046978   -0.1385692459
 H    3.0911478396   -0.5530331694   -0.8456901226
 H   -0.9030409164   -0.3476376543   -0.5320390122
 H   -0.5687566896   -0.0277188555    2.1146471956
 H   -0.5733306238   -1.6045392738    1.3608201918
 H    1.4403088905   -1.3628723579    2.9300809895
 H    3.4566948553   -0.8941963414    1.5963339618