25

 C    0.1090335896    1.2574452758   -0.0056206322
 C   -0.0829117254   -0.1937325971    0.4493376190
 C   -1.4932691825   -0.6997424124    0.2306658686
 C   -1.9176692874   -1.1561999198   -1.1557807871
 C   -1.7737511342   -2.1601932667   -0.0553549904
 O   -0.7304995980   -3.0776953678   -0.1861942532
 C   -0.5952917897   -4.0024747495    0.8934346411
 C    0.3691332486   -5.0784107339    0.4081627154
 C   -0.1200991396   -3.3387759667    2.1878980585
 H    1.1364236859    1.5944073905    0.1661390344
 H   -0.1080281683    1.3667482714   -1.0732876868
 H   -0.5587189929    1.9356822302    0.5374188442
 H    0.6138271732   -0.8501336721   -0.0826733505
 H    0.1732913877   -0.2780647076    1.5135545764
 H   -2.2549106557   -0.1831714051    0.8120909216
 H   -2.9088492994   -0.9173367444   -1.5251097842
 H   -1.1444172096   -1.1777368255   -1.9173923855
 H   -2.6851927218   -2.5905897050    0.3622190955
 H   -1.5815287175   -4.4621315653    1.0775387319
 H    1.3535158597   -4.6429210393    0.2088932968
 H    0.4843398645   -5.8624449342    1.1623749608
 H    0.0020717140   -5.5314505600   -0.5163241468
 H   -0.0371517195   -4.0842673987    2.9855535775
 H    0.8618249577   -2.8770758097    2.0436745059
 H   -0.8187756591   -2.5665754672    2.5207453293