19

 C   -0.1579584209    1.6600150396   -0.0632105199
 C   -0.0308829728    0.1392152474   -0.0562294602
 C    0.7822694881   -0.4870672287   -1.2313934802
 C    1.7635050653   -0.9389280777   -0.1363515672
 O    0.9908836861   -0.2918778725    0.8958517505
 C   -1.3168003450   -0.4996157751    0.2072218237
 C   -2.3868003013   -1.0158430386    0.4124993985
 C   -3.6511090209   -1.6952746935    0.6919557769
 O   -3.6359777438   -3.0802047244    0.3748371711
 H    0.8176982043    2.1127185173   -0.2606128711
 H   -0.8652345005    1.9822925516   -0.8335662297
 H   -0.5175357841    2.0115324585    0.9075743066
 H    0.2721861739   -1.2811392049   -1.7753996783
 H    1.1717651706    0.2497157027   -1.9357218185
 H    1.8236743176   -2.0229396820    0.0190792854
 H    2.7798912698   -0.5334291865   -0.1986746344
 H   -3.9257374127   -1.5275325361    1.7457688714
 H   -4.4530966620   -1.2598560204    0.0853402077
 H   -2.8761705017   -3.4679885468    0.8216245878