13

 N   -0.2508443377   -1.1408908791    0.0439260135
 C   -0.1096977770    0.0061853489    0.0464039999
 C    0.0165032702    1.4392833971    0.0453154447
 C    0.5255008550    2.2197707593    1.2295947336
 O    1.5057060089    1.4813108577    1.9525017204
 C    2.4118042292    1.5563773988    0.8176839057
 C    3.0160486195    0.2850378656    0.4211980443
 N    3.5535998406   -0.6825351574    0.0918050187
 C    1.3308815339    2.2096191752   -0.0456233770
 H   -0.7778162456    1.9498160348   -0.4933274093
 H   -0.0354969766    2.9813671133    1.7561211250
 H    3.2129871983    2.2691170877    1.0433150569
 H    1.5044454313    2.9588929482   -0.8043140264