13

 C   -0.0149960298    1.3484558301    0.0111583823
 O    0.0251397735   -0.0856093441   -0.0409586712
 C    0.6240658716   -0.6158857033   -1.0908232609
 N    0.7291005659   -1.9196777459   -1.2588157251
 N    1.3925163320   -1.9672470078   -2.4292830372
 C    1.7420423844   -3.2091240752   -3.0298583129
 O    2.3281019865   -3.3002564376   -4.0633270860
 N    1.6761027992   -0.7635140969   -2.9455806630
 N    1.1965908938    0.1042179675   -2.1109652782
 H    0.9960124511    1.7638423004    0.0295152995
 H   -0.5540480400    1.7524469310   -0.8497801177
 H   -0.5406820194    1.5880466641    0.9347986889
 H    1.3880423512   -4.0353348023   -2.3946593987