16

 O    0.0592619510    0.0327230445    0.1057214753
 C    0.0093746698    1.2264468994   -0.0373609675
 C   -1.2591458431    2.0669315516   -0.2532217910
 C   -0.7373474428    3.3659810552   -0.9178039270
 C   -1.4448012780    4.5723014129   -0.5138099899
 C   -2.0409173078    5.5547110227   -0.1628626964
 N    0.7374665962    3.4719079199   -0.6409792956
 C    1.0608577118    3.3747611675    0.7721161792
 C    1.1747984502    2.1649706173   -0.1046396602
 H   -1.9689773573    1.5261036450   -0.8802103027
 H   -1.7479949122    2.2521276977    0.7080832902
 H   -0.8119127262    3.2583600070   -2.0058076057
 H   -2.5653091181    6.4290684971    0.1350044376
 H    1.9742791371    3.8805367543    1.0688389452
 H    0.2597547195    3.4156144103    1.5056436839
 H    2.1423345099    1.7769207078   -0.4025124154