17

 C   -0.2034241552    1.3580717921   -0.7000676400
 C    0.0086042223   -0.1255192347   -0.5193899193
 N    0.9951985273   -0.7064050355   -1.0734522961
 N   -0.9617703697   -0.7058153706    0.3115441343
 C   -1.1494828325   -2.0540384725    0.5609586325
 C   -2.2785322096   -2.8027385968    0.7128320091
 C   -1.8304496691   -4.1219462040    1.0556264138
 C   -0.4767842636   -4.0785646262    1.0698620067
 O   -0.0420411163   -2.8106593661    0.7813265178
 H    0.5870778159    1.7511738749   -1.3370634980
 H   -1.1745024609    1.5656165539   -1.1652200695
 H   -0.1802963761    1.8772409241    0.2646931049
 H    1.0257291799   -1.6998665221   -0.8487779977
 H   -1.7515586500   -0.1265088939    0.5461315966
 H   -3.2942290952   -2.4647319099    0.5844580162
 H   -2.4452608714   -4.9864952787    1.2505582262
 H    0.2996526943   -4.8048088240    1.2378460024