18

 C    0.2873358243    1.4344520672    0.1500873990
 O    0.2358510861    0.0253392520    0.2868148310
 C   -1.0279874739   -0.5308209826    0.0166445310
 C   -1.6255020761   -0.4342741593   -1.4166945291
 C   -1.9528108830   -1.9503378608   -1.3413442910
 C   -0.9764931217   -2.0798662471   -0.1430815138
 C   -2.0104880941   -0.1656957472    1.1184574840
 O   -3.1994527928   -0.0345010830    0.9770142552
 H    1.3083237078    1.7395551530    0.3885623870
 H    0.0501545089    1.7521451330   -0.8746629978
 H   -0.4026961513    1.9459489440    0.8376306331
 H   -2.4629643188    0.2520945846   -1.5484653334
 H   -0.8392845686   -0.2148651457   -2.1431539655
 H   -2.9894179413   -2.1223022248   -1.0461582285
 H   -1.7293117912   -2.5533357546   -2.2227200702
 H    0.0345351339   -2.3610807632   -0.4473763511
 H   -1.2764840924   -2.6894540931    0.7129392430
 H   -1.5203555758   -0.0670427924    2.1151420471