14

 C   -0.0132443001    1.3989773273    0.0086911355
 O    0.0039070543   -0.0339680944   -0.0016857098
 C    0.6004301398   -0.6003519013   -1.0475849116
 N    1.1512881365    0.0843056511   -2.0302174120
 O    1.6558930495   -0.8645670783   -2.9083928590
 C    1.3917553924   -2.0925510710   -2.4247951431
 C    1.8316819784   -3.2713445770   -3.1855837824
 O    2.4251606324   -3.2313071773   -4.2341691856
 C    0.7213656779   -2.0042577492   -1.2417684176
 H    1.0059958970    1.7962913930    0.0096145392
 H   -0.5431455541    1.7841026277   -0.8674324029
 H   -0.5335475704    1.6806707364    0.9237976533
 H    1.5600637640   -4.2285733991   -2.6921796423
 H    0.3672833323   -2.7974270078   -0.6053040017