12

 N   -0.0237503287    1.2954832929    0.0107756736
 C   -0.0266320951    0.0338157220    0.0034937949
 O    1.1101554926   -0.7608626758   -0.0066088310
 C    0.7307757851   -2.0949702157   -0.0125298333
 O    1.5167126609   -2.9884831015   -0.0214129922
 C   -0.7724508897   -2.1232838702   -0.0053421482
 C   -1.1957571983   -0.8449034014    0.0040806235
 C   -1.5021213617   -3.3256591053   -0.0087070437
 C   -2.1093447902   -4.3648772045   -0.0117738889
 H    0.9304610960    1.6602714361    0.0082609962
 H   -2.2077128524   -0.4699092324    0.0111703187
 H   -2.6420922287   -5.2841740342   -0.0146450497