17

 O    0.0676124539   -0.0108988577   -0.0047760960
 C    0.0465133987    1.2000459311    0.0808768606
 N   -1.0694312287    1.9857968544    0.2185036855
 C   -0.8192501849    3.4121650583    0.0746634046
 C    0.6974755537    3.5238820717    0.3713868632
 C    1.2265767484    2.1351765885    0.0463663013
 C    2.5738936795    1.6046610393    0.4551755157
 C    2.2881072747    1.8451909213   -0.9978324322
 H   -1.9823181079    1.5764407912    0.0967565209
 H   -1.0541892731    3.7625974018   -0.9405054285
 H   -1.4222049547    3.9952489703    0.7773008020
 H    1.1674818192    4.3202705340   -0.2101556746
 H    0.8487094591    3.7507609059    1.4321805414
 H    3.2437995648    2.2851502254    0.9702018714
 H    2.5973211289    0.5756373361    0.7971998505
 H    2.1279483285    0.9789696946   -1.6300564633
 H    2.7518257398    2.6975694938   -1.4832906025