21

 C    0.1867530337    1.4114101274    0.2293959380
 C   -0.1515139952   -0.0690945037    0.0063385818
 C   -1.6630656074   -0.2920990896   -0.0889056231
 O   -2.2602592376    0.1718848275    1.1140337571
 C    0.5338093433   -0.6064516926   -1.2347499840
 C    1.9613351792   -1.0637675772   -1.1964720715
 C    0.8556425064   -2.0912619846   -1.3994501451
 C    0.5487609639   -3.0376062693   -0.3672581507
 C    0.2834723209   -3.8429695572    0.4871200710
 H    1.2642492135    1.5526585263    0.3581460638
 H   -0.1294643433    2.0181842479   -0.6280365096
 H   -0.3254774140    1.7903742473    1.1160607173
 H    0.1981396057   -0.6442216932    0.8724076470
 H   -2.0595499804    0.2529828845   -0.9633901783
 H   -1.8606578875   -1.3625399751   -0.2429640239
 H   -3.2043449662   -0.0017176404    1.0662427481
 H    0.2213971785   -0.1224410507   -2.1581846628
 H    2.6103051843   -0.8535242484   -2.0392015009
 H    2.4592588045   -1.0744486976   -0.2330526497
 H    0.7553284677   -2.4822068375   -2.4079469018
 H    0.0562101601   -4.5514893637    1.2443141773