19

 C   -0.1069211088    1.5841054559    0.1126005245
 C    0.0078021664    0.0555219197    0.0103314318
 C    0.7814921981   -0.4215994178   -1.2072896187
 C    1.8004138268   -1.2274870996   -0.8947074838
 C    2.7765704256   -1.8759588154   -1.8197986715
 O    2.3973697888   -1.6273291709   -3.1603725312
 C    1.8861931129   -1.3769610036    0.5932634632
 O    2.1478967088   -0.1253173527    1.2742725114
 C    0.7938150923   -0.5753649866    1.1623412894
 H    0.8877044213    2.0278360338    0.2044543182
 H   -0.5922341559    2.0007063500   -0.7753621059
 H   -0.6979176805    1.8763345925    0.9866899696
 H   -1.0052571152   -0.3728821798    0.0009882102
 H    0.5456583085   -0.0955521156   -2.2129421038
 H    3.7883262560   -1.4869220238   -1.6079090378
 H    2.8149987311   -2.9598395319   -1.6064281800
 H    3.0764629558   -1.9898339400   -3.7359249117
 H    2.3129504560   -2.2558044598    1.0697140699
 H    0.3056733423   -0.8118098445    2.1045964963