18

 C    0.1277168910    1.5543326370   -0.0180304557
 C    1.3727751231    0.6975113931   -0.0811679039
 C    0.0175526700    0.0569851742    0.0080795455
 C   -0.5420855267   -0.8409709870    1.1578509620
 N   -1.1499908114   -1.6452874008    0.0845682541
 C   -1.8938883446   -2.6912331224   -0.3839877705
 C   -1.8752218540   -2.5620883005   -1.7653669547
 C   -1.1023739705   -1.4122622804   -2.1326624893
 C   -0.6746031645   -0.8791162659   -0.9374283862
 H   -0.0713462366    2.0964734573    0.9008480210
 H   -0.1932000667    2.0666260852   -0.9184637982
 H    1.9024571519    0.6244485163   -1.0247306292
 H    2.0120249836    0.6627316173    0.7952058387
 H    0.2064175761   -1.3799171653    1.7471208479
 H   -1.2697660767   -0.3640533990    1.8219203629
 H   -2.3627792926   -3.4197526726    0.2565461371
 H   -2.3708964592   -3.2313979003   -2.4533072197
 H   -0.9105493623   -1.0596592761   -3.1334260116