19

 C    0.0928505022    1.5410765430    0.2275291066
 C    0.0005707985    0.0182908541    0.0777914312
 C    0.6041942791   -0.4714854052   -1.2438689032
 C    0.9455712460   -1.9349983408   -1.1832268949
 C    0.9910126788   -2.6002144073   -0.0333166321
 C    0.7327384064   -1.9328684030    1.2849453602
 O    0.6874899256   -0.5136356384    1.2104196338
 C   -1.4870954687   -0.3436623411    0.1898919902
 O   -2.2319749181   -0.5398425399   -0.7332888883
 H    1.1450366923    1.8270225270    0.3084585739
 H   -0.3521049795    2.0393131430   -0.6379073212
 H   -0.4212816124    1.8765602121    1.1332927279
 H   -0.1225789043   -0.2885713907   -2.0426807286
 H    1.4967236654    0.1210597927   -1.4838035752
 H    1.1480614520   -2.4408025174   -2.1230135194
 H    1.2070955793   -3.6645206801   -0.0007823360
 H   -0.1965783363   -2.3299418364    1.7316336739
 H    1.5360352949   -2.1612241804    1.9956909856
 H   -1.8386972412   -0.3700534911    1.2478439356