20

 C   -0.0818078988    1.5131591581    0.0277991536
 C    0.0723829677    0.0232864881   -0.0233054328
 C    0.5882884735   -0.9243056520   -1.0855466599
 C    1.3800893346   -1.7296559966   -0.0482939903
 C    0.6861762825   -0.8810337944    1.0733728375
 O   -0.2666003245   -1.5268674681    1.8955647256
 C   -1.0928031027   -2.4238846116    1.1669506639
 C   -1.6709621810   -1.7920751127   -0.1163325867
 N   -0.8341165208   -0.7980177940   -0.7966441240
 H    0.8678116572    2.0024313919    0.2710997694
 H   -0.4344777783    1.8922750078   -0.9351763664
 H   -0.8105498133    1.8040901295    0.7936573696
 H    0.9084099009   -0.7042326180   -2.0986224482
 H    1.2691339449   -2.8157447871   -0.0362512613
 H    2.4467508254   -1.4933012540   -0.0942366843
 H    1.3838010199   -0.3827386282    1.7492061903
 H   -0.5360771195   -3.3423896330    0.9353234139
 H   -1.9081841584   -2.7013423713    1.8412721876
 H   -1.9316337485   -2.5803721770   -0.8310872258
 H   -2.5992484309   -1.2645352973    0.1316465083