19

 C   -0.2288344811    1.4942018321   -0.0221547594
 N   -0.0253762724    0.0495776188   -0.0344645959
 C    0.1347473774   -0.6398920607    1.1528402834
 O    0.1203679007   -0.1393973183    2.2506357347
 C    0.0066702832   -0.6305231839   -1.2401216425
 N   -0.1361124620   -0.0444777785   -2.3530266712
 C   -0.1021341158   -0.8448522800   -3.5656934279
 C   -1.3216775414   -0.4898341818   -4.4224917406
 O   -1.3572553869    0.8901910632   -4.7148535728
 H    0.5492992543    1.9838934530   -0.6119883843
 H   -1.1989669721    1.7399846512   -0.4613981173
 H   -0.1882462177    1.8204827582    1.0155952447
 H    0.2811502785   -1.7224275979    0.9824896915
 H    0.1707734031   -1.7097812740   -1.1283648516
 H    0.8011594420   -0.5777734137   -4.1288494109
 H   -0.0750161058   -1.9290304128   -3.3661004014
 H   -1.2751867202   -1.0246010114   -5.3771768754
 H   -2.2359054457   -0.8173585367   -3.8992436066
 H   -1.1730336681    1.3354369730   -3.8779587064