16

 O    0.0215682931    1.4544821818    0.0397809051
 C    0.0420954727    0.0440141201    0.0030350513
 C    0.7269126748   -0.6189162784    1.1806579774
 C    0.0169533150   -1.6152084558    1.7041268227
 C   -1.3228084891   -1.7875727746    1.0223528985
 N   -2.4409316977   -1.5407491907    1.9607506344
 C   -2.8752046581   -0.3907692687    1.6635002630
 O   -2.3369164533    0.2929526282    0.6155816624
 C   -1.3695759822   -0.6079503456    0.0110451469
 H   -0.6883757432    1.7032321951    0.6444588928
 H    0.5572152049   -0.2147427784   -0.9309773257
 H    1.7072220085   -0.2939402816    1.5101611700
 H    0.3074775828   -2.2406601999    2.5398673906
 H   -1.4419803564   -2.7741353874    0.5645293899
 H   -3.6699266654    0.1407246207    2.1753992707
 H   -1.7367179464   -0.8539462848   -0.9870421900