17

 O   -0.1852380574    1.5200005851    0.2022645416
 C   -0.1768025996    0.1330162490    0.4889035627
 C   -0.9117515878   -0.5597209185   -0.6651365417
 C   -0.9703608489   -2.0057726026   -0.5046235719
 C   -1.0042811627   -3.1976907687   -0.3328869193
 C   -1.0667198336   -4.6540877098   -0.1689289815
 O   -1.8790965882   -5.0708772673    0.8948307463
 C   -1.5736254901   -5.2481705861   -1.4884729940
 O   -2.5664822067   -5.9282533193   -1.5236827354
 H    0.2475906978    1.9816946444    0.9260259783
 H    0.8466532417   -0.2642281335    0.5608884829
 H   -0.6889368304   -0.0935053934    1.4354491972
 H   -1.9231730264   -0.1419916955   -0.7350911842
 H   -0.4046532046   -0.3029178035   -1.6031638896
 H   -0.0415412975   -5.0384325561   -0.0235975762
 H   -2.6214878068   -5.5402227633    0.4805491245
 H   -0.9853590088   -4.9990927608   -2.3918422897