18

 O   -0.0213696559   -0.0669143321    0.0656422828
 C   -0.0479449514    1.1323616821    0.0407175728
 N   -1.1388358341    1.9565884797   -0.0551373992
 C   -0.8348735125    3.3632742252    0.0721961435
 C   -1.2248820997    3.9989895489    1.4294625032
 C    0.0084530610    3.7971828503    2.3277981209
 C    1.1821048602    4.0058772036    1.3560885626
 C    0.7318376336    3.3123133890    0.0657707281
 O    1.0723580657    1.9167421945    0.0973659554
 H   -2.0617486700    1.5662281211    0.0238958885
 H   -1.2407427328    3.9299129527   -0.7717215775
 H   -1.4108376031    5.0693983693    1.2821741067
 H   -2.1415123850    3.5619740333    1.8357022212
 H    0.0305111834    4.4801893284    3.1803285751
 H    0.0288153284    2.7767395196    2.7253164025
 H    1.3215995891    5.0751647374    1.1560467215
 H    2.1344680316    3.6033346701    1.7078077415
 H    1.1786807116    3.7407871268   -0.8345918797