20

 C    0.9304110917   -2.3461969419    0.4919627548
 C    0.2519162629   -0.9944754121    0.2372612973
 O    0.4847170247   -0.0757408679    1.2886327666
 C    0.6209813555   -0.3950319142   -1.1219665717
 C   -0.1593949272   -0.8587557754   -2.3104257520
 N   -0.3614833208    0.4916658263   -1.8017798051
 C    2.0429480488    0.0945094510   -1.2668772347
 C    2.4922239145    0.6182159225   -2.6122745765
 O    2.7952230657    0.0788263777   -0.3095658816
 H    0.6614913932   -3.0774174073   -0.2777059795
 H    2.0175472608   -2.2376911608    0.5035050399
 H    0.6112568363   -2.7320434486    1.4637629980
 H   -0.8360759912   -1.1513860827    0.2281397014
 H    1.4351590517    0.1035162580    1.2664516864
 H    0.3027177390   -0.9212058455   -3.2909067332
 H   -0.9156376470   -1.6171565221   -2.1203075213
 H   -1.2012300480    0.5486204006   -1.2294733699
 H    1.7219441980    1.2558171306   -3.0525051737
 H    3.4275476159    1.1648339482   -2.4893673701
 H    2.6642346554   -0.2209856064   -3.2965816950