21

 C   -0.1809918771    1.5398154164   -0.3585566762
 C    0.0281393474    0.0510213436   -0.1184121898
 C    1.1916090624   -0.7440289092   -0.8024352049
 C    2.1712997662   -0.0680392962    0.2011159550
 C    0.9304185594   -0.4844824014    1.0449288630
 C    1.0045162874   -1.8514464049    0.2896959941
 C   -0.1607913712   -2.8430240167    0.2698209236
 C    0.0973108804   -3.9674894530   -0.7102628826
 O   -0.6639223361   -4.3204878015   -1.5733996397
 H    0.7362422860    2.1313178702   -0.3141215326
 H   -0.6312529159    1.7030049501   -1.3440424711
 H   -0.8736204763    1.9492035770    0.3854165687
 H   -0.9429448443   -0.4450762516   -0.1850982721
 H    1.3461702115   -0.8971953446   -1.8723798068
 H    3.1002156990   -0.6065667223    0.4085401220
 H    2.3623730443    0.9972613373    0.0787580029
 H    0.7829319745   -0.3402031107    2.1175457624
 H    1.9313770764   -2.3993058081    0.4997619621
 H   -0.2392817319   -3.2987086164    1.2687269948
 H   -1.1277560506   -2.3986602145    0.0290055443
 H    1.0843559785   -4.4721521935   -0.5790348369