16

 O    0.1381307487    1.3734411226   -0.5353877208
 C    0.1070624572    0.0359992895   -0.1317728959
 C   -1.2742838432   -0.6900704603   -0.0733927222
 C   -1.8094660307   -1.4621014868   -1.3433828353
 C   -1.3065111927   -1.2105537697   -2.7774663688
 C    0.1081574384   -0.7456852268   -2.4516555127
 C    0.4141280938   -1.0659445772   -1.1785596120
 C   -0.6588157459   -1.9771836516   -0.5612562270
 H    0.9032718929    1.7994306308   -0.1393333646
 H    0.5949873745   -0.0926349922    0.8450615414
 H   -1.9551802952   -0.5841834718    0.7682282685
 H   -2.8084114236   -1.8652326309   -1.1833346348
 H   -1.4228509112   -2.1207409648   -3.3832307181
 H   -1.8238074672   -0.4032899097   -3.3097701604
 H    0.4993865461    0.1514472919   -2.9203039473
 H   -0.5220332518   -2.9174237229   -0.0450536900