17

 C   -0.1200897542    1.5251102277    0.0361397712
 C   -0.0348208908    0.0278705755   -0.0235396183
 C   -0.0377639245   -0.6568877061   -1.1780710887
 C    0.0890840910   -2.1142380710   -1.2310080559
 O    0.1521575495   -2.7328770613   -2.2759046935
 C    0.1592583913   -2.8637281477    0.0917034712
 N    0.3261799942   -4.1268186808    0.1586634489
 N   -0.0156757707   -2.1062454947    1.2241257276
 C    0.0757728261   -0.6695865020    1.3004208627
 H    0.7323527127    1.9456214831    0.5834758365
 H   -0.1379370500    1.9638381796   -0.9632211387
 H   -1.0236662234    1.8436331111    0.5703256009
 H   -0.1048231015   -0.1504356944   -2.1363919209
 H    0.3770592625   -4.4839333829   -0.7974274622
 H    0.0868886792   -2.6236764858    2.0849679016
 H    1.0251612862   -0.3471817729    1.7661937905
 H   -0.7152073477   -0.2858432974    1.9626001971