13

 O   -0.1414023033    1.3175641128   -0.0289352244
 N    0.0344565227   -0.0792165363    0.0022053594
 C   -1.0826220404   -0.6688183774   -0.0841039701
 C   -2.5494414731   -0.2902202294   -0.0058231356
 N   -2.9090426552   -1.7439557037    0.2194058999
 C   -2.4747078887   -2.4392820985   -0.9934116006
 C   -1.4296959076   -2.1052682760    0.0124109921
 H    0.7614156975    1.6375855776    0.0724367064
 H   -2.7784371374    0.3127925752    0.8762612233
 H   -3.0212528764    0.1562730857   -0.8862236742
 H   -2.7967590008   -3.4756311285   -1.0326015278
 H   -2.4954452854   -1.9155894840   -1.9469913317
 H   -0.9178797817   -2.8573333874    0.6012728932