15

 N   -0.1113111979   -1.1267831288   -0.0434853548
 C   -0.0466950902    0.0271796481   -0.0256915309
 C    0.0297327126    1.4705124346   -0.0295563477
 O    0.6248153106    2.0790520735    1.1331993484
 C    1.3347673977    2.1511988411   -0.0834058068
 C    2.7724148070    1.6121853713   -0.2397176407
 C    3.1178301557    2.9532779556   -0.9120393255
 N    2.2278872337    3.0644990485   -2.0875722552
 C    1.7229883801    3.4589657730   -0.7435431573
 H   -0.8536460981    1.9742967506   -0.4155752130
 H    3.2374003545    1.4860582126    0.7406199668
 H    2.9103638395    0.7163149417   -0.8476702115
 H    4.0535228490    3.4936063866   -0.8580514739
 H    2.4677653976    3.9283232835   -2.5744869606
 H    1.3373391381    4.4487312480   -0.5365177272