18

 C   -0.1596286792    1.5666821746   -0.1253361539
 C   -0.0708524736    0.0756690978   -0.0256347279
 C   -0.0676463117   -0.8086508605   -1.0523893667
 O    0.0284996150   -2.1017489046   -0.5772328733
 C    0.0809329469   -2.0146564651    0.7677759769
 N    0.1222852678   -3.2007319465    1.4752468198
 C    0.0275554083   -0.7115151599    1.1847762950
 C    0.0784857380   -0.2687517736    2.6126283278
 O    1.0558308230   -0.9943598256    3.3761407173
 H    0.6990354082    2.0564334208    0.3496716115
 H   -0.1874045306    1.8886948157   -1.1699256362
 H   -1.0595855811    1.9542596190    0.3663270473
 H   -0.1216468738   -0.7109246793   -2.1230126705
 H    0.5800656086   -3.9532010887    0.9780369178
 H    0.5100869791   -3.0551694361    2.4000131904
 H    0.2636556550    0.8136862809    2.6706646037
 H   -0.8650141321   -0.4579891449    3.1390460149
 H    1.8995626022   -0.8734818842    2.9260076462