15

 C   -0.0117823170    1.5105933738    0.0083146613
 C    0.0603583712   -0.0012284590    0.0016276144
 O    1.0995485422   -0.6161469910   -0.0087117511
 N   -1.1728745676   -0.6802715666    0.0088063652
 C   -2.4548428142   -0.1368750021    0.0210721879
 C   -3.3510124577   -1.1649381715    0.0242571828
 C   -2.6037677368   -2.3901816807    0.0135715704
 C   -1.2795771645   -2.0661870260    0.0042810476
 H    1.0068392145    1.8958381878    0.0016814849
 H   -0.5482696738    1.8825143312   -0.8697504404
 H   -0.5340140691    1.8753227035    0.8979251997
 H   -2.6063737627    0.9285701011    0.0264195268
 H   -4.4257779923   -1.0646247759    0.0332007444
 H   -3.0086854452   -3.3906745261    0.0129308450
 H   -0.3828607470   -2.6609588188   -0.0051669887