12

 C   -0.0126788982    1.4365466184    0.0699247880
 C   -0.0133280966   -0.0391413919   -0.0614607022
 N   -0.2052995414   -0.7415313454   -1.1519025848
 C   -0.0988700179   -2.0312955736   -0.6937914774
 C    0.1504233215   -2.0380993431    0.6439743593
 O    0.2143624054   -0.7587982439    1.0958614649
 N    0.2548137886   -3.2987215138    1.0909172071
 N    0.0904933827   -4.0991122361    0.1396153350
 O   -0.1651880663   -3.2494725729   -1.1556362361
 H    0.9513069867    1.7904406120    0.4491011164
 H   -0.2026875602    1.8790416515   -0.9074701378
 H   -0.7847088744    1.7623530186    0.7742109876