21

 C   -0.0830460313    1.5522068318    0.0343806253
 C   -0.1119330989    0.0878941582    0.4295445995
 C   -1.1344581505   -0.8341771645   -0.0779004666
 O    0.1977769612   -0.8577050900   -0.5946325062
 C    1.3050634234    2.1245306264   -0.0251403586
 C    1.9408733643    2.5567590945   -1.1155597265
 C    3.3062213312    3.1222368465   -0.8118106125
 C    3.5532896438    2.6645459938    0.6491041457
 C    2.1507872882    2.3367026465    1.2178151010
 H   -0.5750662269    1.6570616896   -0.9381691413
 H   -0.6850756803    2.1104335456    0.7673856706
 H    0.3407997883   -0.1477400579    1.3942933777
 H   -1.4267879366   -1.7033343720    0.5101542443
 H   -1.8948676249   -0.4640207495   -0.7650088428
 H    1.5195051424    2.5474555432   -2.1156037324
 H    4.0816321075    2.7634684316   -1.4982579120
 H    3.3019207197    4.2183300600   -0.9032443552
 H    4.1617869562    1.7549084683    0.6438946063
 H    4.0895183872    3.4081691342    1.2440958334
 H    1.7426128923    3.1671752796    1.8135163825
 H    2.1663100439    1.4668285741    1.8849471878