16

 O    0.0366232452    0.1073915908   -0.6975605427
 C    0.0159060376    1.1747165665   -0.1642650473
 C   -1.0612037823    2.0044898068    0.5453184229
 C   -0.0709910502    3.2107796965    0.5658029425
 N    0.3214073996    3.6754133862    1.9037787564
 C    1.3938809697    2.7985785672    2.3790140072
 C    2.0277872868    2.1130188722    1.1532023287
 O    3.0739452233    1.5254137981    1.1300289973
 C    1.0636364322    2.3104130513   -0.0250126616
 H   -1.9800312153    2.1380775443   -0.0317941756
 H   -1.3306725474    1.6309578398    1.5387750631
 H   -0.3972747411    4.0493192715   -0.0483190645
 H    0.6742397629    4.6225318604    1.8324597253
 H    2.1470296819    3.3373526149    2.9579369104
 H    1.0016123673    2.0035336960    3.0303551811
 H    1.6064197498    2.5657968976   -0.9360194034