20

 C   -0.0010250150    1.5230588527   -0.0685460039
 C   -0.0560071157   -0.0109227912   -0.0040191264
 C   -1.4359464813   -0.4835893578    0.2179506882
 C   -2.5609191721   -0.8868315385    0.3590094305
 N    0.5702688121   -0.5859731163   -1.1915387520
 C   -0.0834876781   -0.4726379086   -2.5182302805
 C    0.5082321079   -1.8632705707   -2.8693136447
 O    1.7123844484   -1.8371336842   -3.5975525673
 C    0.6621893939   -2.0563851704   -1.3381137053
 H    1.0350164396    1.8458905687   -0.1983093801
 H   -0.5923161863    1.8946105488   -0.9104869489
 H   -0.4048900324    1.9616634326    0.8471674489
 H    0.5507504165   -0.3394362151    0.8509461117
 H   -3.5529914776   -1.2385617079    0.5015771409
 H   -1.1822562609   -0.4869876836   -2.4686892256
 H    0.2476141470    0.3713456964   -3.1324008155
 H   -0.1499238091   -2.5600096586   -3.3888991267
 H    2.3057134099   -1.2231896726   -3.1495478022
 H    1.5998327620   -2.5002972805   -0.9854644566
 H   -0.1909335488   -2.5942337432   -0.8987107845