21

 C   -0.5791416265    1.5565814427    0.0664302913
 C   -0.0465392819    0.1235919341    0.0119175664
 C   -1.1989095859   -0.8615317480   -0.2535993023
 C    1.0850896520   -0.0662209162   -1.0295694743
 C    1.9574065501   -1.1985175609   -0.4418077554
 O    1.4634556992   -1.4629024824    0.8773097205
 C    0.6997295086   -0.3384815707    1.3006713820
 C    1.5550780162    0.6931196961    1.9031111797
 C    2.2746663153    1.5204959568    2.3970173758
 H    0.2191344930    2.2740390999    0.2708552761
 H   -1.0469910013    1.8251827039   -0.8866921247
 H   -1.3393507370    1.6659937139    0.8479756981
 H   -1.6563339540   -0.6631040367   -1.2284174741
 H   -0.8469797454   -1.8966383935   -0.2439407540
 H   -1.9810594980   -0.7629983691    0.5071757192
 H    0.6900981864   -0.3141149494   -2.0182207901
 H    1.6656753449    0.8553404287   -1.1258206974
 H    1.8860014413   -2.1339652865   -1.0052662438
 H    3.0145787170   -0.9082800010   -0.3959320108
 H   -0.0028551447   -0.7038897856    2.0580749801
 H    2.9084253509    2.2467630539    2.8431487377