21

 C    0.0031053733    1.5309212363    0.0081634139
 C    0.0445582436    0.0039087639    0.0057837818
 O   -1.2875319792   -0.5260778063    0.0564855325
 C    0.8004638520   -0.6030144209   -1.2066589954
 C    1.2733395291   -1.9779485111   -0.7415575766
 C    2.5554311968   -2.0325760121    0.0368198996
 O    3.3947743727   -0.9139112218   -0.0161972104
 C    1.2406316854   -1.9839089777    0.7825762021
 C    0.7472019637   -0.6132485426    1.2371790724
 H    1.0118893353    1.9551902731    0.0200233478
 H   -0.5060876705    1.9082645852   -0.8871989704
 H   -0.5426234992    1.8962414299    0.8833055094
 H   -1.7427777206   -0.2483650704   -0.7456051538
 H    0.1383010145   -0.6745611618   -2.0755622141
 H    1.6477170599    0.0297381153   -1.4875656731
 H    0.9882979668   -2.8536445376   -1.3126561073
 H    3.0835450941   -2.9863250523    0.0380231993
 H    3.8233797569   -0.8220097172    0.8413365805
 H    0.9309118237   -2.8637956160    1.3347397250
 H    1.5755815977    0.0286318014    1.5553364490
 H    0.0382896341   -0.6875390175    2.0644579180