18

 C   -0.1481172038    1.4443597758   -0.0847457899
 N   -0.0294284837    0.0031859833   -0.0063452869
 N    0.0501466498   -0.7578556880   -1.0906322091
 C    0.0702871906   -1.9976933963   -0.5976723086
 C   -0.0076701717   -1.9373349247    0.8040043261
 C    0.0254411926   -3.0316132705    1.8221945900
 C    1.4475710075   -3.3067658207    2.3444351207
 O    1.4870061215   -4.3762412596    3.2716767628
 N   -0.0723043816   -0.6455967377    1.1517918802
 H    0.4491054463    1.8943024209    0.7093500439
 H    0.2196336364    1.7567181590   -1.0612355825
 H   -1.1915828616    1.7533446093    0.0305014866
 H    0.1389203912   -2.8535372940   -1.2506392162
 H   -0.6169508800   -2.7563938671    2.6669785321
 H   -0.3739208958   -3.9572072547    1.3955680119
 H    2.0948302930   -3.6056111055    1.5133355336
 H    1.8656890526   -2.3811801046    2.7674510199
 H    1.0043207967   -4.1028767847    4.0583226453