14

 C   -0.1062697700    1.4237473858    0.0121945195
 C   -0.0179734871   -0.0250401275    0.0110880443
 C    0.0616771981   -1.2270251923    0.0117917362
 C    0.1424013749   -2.6392935268    0.0095117294
 N    1.1743190425   -3.3523331293    0.2450408364
 C    0.7331665502   -4.7334654878    0.1186342510
 C   -0.7474235109   -4.6613197187   -0.2337945618
 O   -1.5605477715   -5.5042870095   -0.4408031767
 O   -1.0425726632   -3.3025072816   -0.2835473509
 H    0.5868451042    1.8564993791   -0.7170515531
 H   -1.1181027485    1.7561039156   -0.2408217418
 H    0.1486435747    1.8283505879    0.9975102586
 H    1.2904977170   -5.2635579557   -0.6619070526
 H    0.8814742895   -5.2896907993    1.0510926015