17

 O   -0.1732289573    1.3892253907    0.1652077670
 C   -0.0281129481    0.0028119191    0.0214568007
 C    0.7567021171   -0.3110341857   -1.2371167066
 O    1.1746767699    0.5634402307   -1.9570581509
 C    0.6552992466   -0.6190335033    1.2479013004
 C    2.0246555111   -0.0052367596    1.6801089863
 C    1.4802832091    0.0352869162    3.1158087391
 O    1.9878241471    0.1442950896    4.1925957186
 C    0.0477078110   -0.2460682050    2.6370404580
 H    0.2544113838    1.7808861285   -0.6134424472
 H   -1.0177271803   -0.4767645216   -0.0965444875
 H    0.9298500760   -1.3837659519   -1.4582271753
 H    0.7191887269   -1.7037542324    1.1200519862
 H    2.9405438440   -0.5756022987    1.5110295020
 H    2.1476416075    1.0096122742    1.2868455082
 H   -0.5329394974    0.6806424599    2.5864560562
 H   -0.5196598471   -1.0031084806    3.1828581647