19

 N   -0.1716722032   -1.1210607582   -0.1993080289
 C   -0.0652921373    0.0103259887    0.0068681300
 C    0.0834689397    1.4398337103    0.2969018829
 N    1.2724553557    1.9852500743   -0.3464432367
 C    1.4215896296    3.4084002169   -0.1635765802
 C    1.9071679886    4.0887342722    1.1796015814
 C    3.3319452164    3.5476389926    0.8646608892
 C    2.7827566848    4.0758293346   -0.4977209631
 C    2.2674082655    5.3135784256    0.2936800157
 H   -0.7979575717    1.9631948511   -0.0947381229
 H    0.0575209086    1.5662022195    1.3938064270
 H    2.0949259899    1.4722296554   -0.0523079053
 H    0.5500309273    3.8997526860   -0.6125542203
 H    1.4052363809    4.1060678424    2.1483317885
 H    4.1654625798    4.1081769800    1.2955337260
 H    3.5088317436    2.4741683205    0.9694681911
 H    3.2892249939    4.0713193195   -1.4637095540
 H    1.4367705643    5.8710256394   -0.1483283995
 H    3.0351720738    5.9821229291    0.6886905792