17

 C   -0.0150174270    1.5791488485    0.0146272015
 C    0.0218919383    0.0497104639    0.0263969043
 N    0.6499711291   -0.4882086003    1.2236461223
 N    1.9859285876   -0.7012791001    1.2321014431
 N    2.3078429151   -1.1328109232    2.4167780830
 C    1.1842641665   -1.1971520021    3.1794029347
 C    0.1023475421   -0.7850753599    2.4328701499
 C   -1.3490456962   -0.6671139463    2.7549013044
 H    0.9984801050    1.9813907048    0.0875623344
 H   -0.4657326307    1.9351740985   -0.9165257656
 H   -0.6026304041    1.9714010693    0.8498413378
 H   -0.9864219003   -0.3682494461   -0.0466199030
 H    0.6033886983   -0.3264150139   -0.8180569981
 H    1.2089549112   -1.5365797202    4.2028944819
 H   -1.7065207273    0.3662757622    2.6838085663
 H   -1.9676727541   -1.2758924421    2.0854912944
 H   -1.5287595036   -1.0107414230    3.7757503888