12

 C   -0.0102277516   -1.2205857283    0.0764860055
 C    0.0165342683   -0.0221711950    0.0274450298
 C    0.0233944317    1.4335254221   -0.0334710622
 N    1.3695182231    2.0005762043    0.0052624225
 N    2.1249973099    2.0235887155    1.0955879266
 C    3.2235101283    2.6047943706    0.6316663062
 N    3.1358315579    2.9206944131   -0.6812061803
 N    1.9489110282    2.5279211820   -1.0676390716
 H   -0.0282069029   -2.2819697361    0.1202648059
 H   -0.4199248902    1.7914367366   -0.9663196716
 H   -0.5389590622    1.8597688786    0.8026612120
 H    4.0891171894    2.8062473765    1.2413136172