22

 C    1.0109200707    1.3374742732   -0.1719597827
 C    0.0306164124    0.1666443858   -0.0445215886
 C    0.1609339394   -0.8663099784   -1.1838453167
 C    1.3501859705   -1.7779274839   -0.7794365662
 C    1.4415949083   -1.6432149751    0.7415860179
 C    2.0202353256   -2.6682993748    1.6367694599
 N    2.7248371856   -1.3873464843    1.4237578291
 C    0.3108433305   -0.7076435366    1.2053207717
 O    0.6280680761   -0.0173484542    2.3859452003
 H    2.0473873845    0.9980313358   -0.2778308683
 H    0.7712269773    1.9490544970   -1.0476643409
 H    0.9623490737    1.9710502248    0.7172670316
 H   -0.9865994442    0.5695081489    0.0005600030
 H   -0.7554797448   -1.4635469654   -1.2467426783
 H    0.3068529046   -0.4013067230   -2.1626852581
 H    1.1996195733   -2.8134242827   -1.0978452008
 H    2.2808605379   -1.4348869506   -1.2458704039
 H    1.6221016713   -2.8003069948    2.6396327518
 H    2.4400014623   -3.5654534997    1.1887405013
 H    3.5059427120   -1.5040944340    0.7842716796
 H   -0.5861065873   -1.3121713160    1.4052089896
 H    1.5982251503   -0.0460184019    2.4423121787