17

 N    0.2409282098    1.4107872298    0.0040288493
 C    0.0642133054   -0.0117933954    0.0144581693
 C   -0.4997555710   -0.6961889877    1.2578100109
 C   -0.9898622593    0.1157892596    2.3336263006
 N   -1.4025499297    0.8042078854    3.1682191203
 C   -1.2711896197   -0.6906145412   -0.0512463587
 C   -2.6296899838   -0.0687952360   -0.3419328421
 O   -2.9826395087   -1.1991113232   -1.1715932078
 C   -1.7412952720   -1.8771362332   -0.8842131710
 H   -0.0429251645    1.8118913043   -0.8838119128
 H   -0.2901659729    1.8655969413    0.7393667366
 H    0.8899448901   -0.5552445159   -0.4424277717
 H   -0.0349411847   -1.6274578185    1.5654185804
 H   -3.3009009543    0.0425263836    0.5183982031
 H   -2.6096132481    0.8719866530   -0.9076476665
 H   -1.1607639367   -2.0853280273   -1.7925192035
 H   -1.9015578398   -2.8138165988   -0.3344215865