20

 O    0.4216513504    1.2752051420    0.2472486773
 C    0.1937041502   -0.1153355585    0.0663306696
 C   -1.2966161192   -0.4692840888    0.0733699920
 C   -1.5629426727   -1.9673172961   -0.0524644023
 C   -3.0500916921   -2.4622175827   -0.1040169683
 C   -2.7217886518   -3.3311274922   -1.3585598632
 C   -1.3767849175   -2.6369266107   -1.4054297762
 N   -0.4478791960   -2.5026060428   -2.2556078984
 O   -0.7120727939   -3.2526279221   -3.4187261966
 H    0.1004886537    1.7272769689   -0.5391753188
 H    0.6615067458   -0.4880947476   -0.8552994529
 H    0.6946656684   -0.6080359267    0.9078390754
 H   -1.7421736646   -0.0960552214    1.0037797094
 H   -1.7970342979    0.0556531472   -0.7523855101
 H   -1.0039914163   -2.5080984700    0.7230084914
 H   -3.4086120029   -2.9961981086    0.7773080898
 H   -3.7436534858   -1.6483755735   -0.3294185077
 H   -2.6416600390   -4.4029876526   -1.1509344431
 H   -3.3519477757   -3.2030634715   -2.2420327710
 H    0.0566207469   -3.0566647421   -3.9649582261