17

 O    0.1502790143    1.3836719502    0.3118374629
 C   -0.0039940785    0.0368201988   -0.1205029435
 C   -1.4178460982   -0.4503799676   -0.0613198296
 C   -2.1805319376   -0.8094050094    1.2006396760
 O   -3.4765479410   -0.2833997984    1.2085925862
 C   -3.7933019183   -0.3315179683   -0.1532716801
 C   -3.1441094576   -1.5136815554   -0.8492072425
 C   -2.5773938074   -0.1070895768   -1.0294208539
 C   -1.9961046615   -1.8575147262    0.1168386200
 H   -0.4204171271    1.9349102555   -0.2329911028
 H    0.4031149934   -0.1003930476   -1.1352643458
 H    0.6162483245   -0.5630416625    0.5547157660
 H   -1.7086099447   -0.8650352219    2.1721018283
 H   -4.7809846061    0.0330022279   -0.4002013437
 H   -3.6360032455   -2.1729722731   -1.5499087731
 H   -2.5405563132    0.5337239860   -1.9003345451
 H   -1.5008048154   -2.8098419613    0.2453001208