17

 O    0.5971905409   -0.2847943339   -1.1496076532
 C   -0.2032546190    0.0185569301   -0.0079188442
 C   -1.5322273300   -0.5965364703   -0.0891519496
 C   -2.5995386747   -1.1469425593   -0.1479801134
 C    0.5081795529   -0.4132264485    1.2762786564
 C    1.7603370151    0.3268293087    1.8225484005
 C    0.8844694137    1.5065063128    2.3094547902
 C    0.1959990900    0.1714641129    2.6828817480
 O    1.5162576458   -0.3371886260    3.1267483194
 H    0.5981618591   -1.2427923339   -1.2569740987
 H   -0.3169673138    1.1065578951   -0.0377830145
 H   -3.5507851729   -1.6158864075   -0.2084959390
 H    0.6256393387   -1.5002812729    1.3056937864
 H    2.7803871242    0.3277623346    1.4400430710
 H    1.2966463779    2.0529433587    3.1579355214
 H    0.4160108215    2.1664121503    1.5768720133
 H   -0.6595192194   -0.0152060009    3.3316536560