18

 C    0.0335159109    1.5207218522   -0.1933886315
 C    1.5326098872    1.4583266979    0.0525163385
 C    1.2890503647    0.1309522174    0.8104291931
 C    2.4928623659   -0.4371542834    0.0757613876
 N    2.3164739704    0.6266605691   -0.9766443175
 C    1.3962341139    0.0703837674   -1.9861663567
 C    0.1843834922   -0.6065546029   -1.2721201330
 N   -0.0373139256    0.0335147049    0.0380629737
 H   -0.4836625537    2.0562195671    0.6105202105
 H   -0.3570202404    1.8666049045   -1.1555934626
 H    2.1084806464    2.3151674005    0.4108147195
 H    1.1453992160    0.0143438829    1.8874376356
 H    3.4203862912   -0.2698753467    0.6345264404
 H    2.4832298119   -1.4683874863   -0.2909214083
 H    1.0746790963    0.8788872846   -2.6493099711
 H    1.9502296833   -0.6449515370   -2.6038460288
 H   -0.7335374812   -0.5144893451   -1.8629580341
 H    0.3536663903   -1.6758425871   -1.1146354953