20

 C   -0.2083707652    1.5648168686   -0.0276576156
 C   -0.0681170066    0.0420763820    0.0203804161
 C   -1.4091663503   -0.7100575272    0.0473380509
 C   -1.2187975646   -2.2286282549   -0.0524695819
 N   -2.1727346833   -0.3653414637    1.2447377221
 C   -3.4533643460    0.1024002806    1.2119864837
 O   -4.0861094763    0.3160121854    0.1930433250
 C   -4.0138577286    0.3368283549    2.5398242435
 C   -4.5044262673    0.5368048938    3.6192100265
 H    0.7728528582    2.0484546549   -0.0440135326
 H   -0.7545442274    1.8819964768   -0.9221641614
 H   -0.7542920110    1.9410425786    0.8426256436
 H    0.4950911394   -0.3071443107   -0.8532181083
 H    0.5241990027   -0.2543053782    0.8982054967
 H   -2.0302166337   -0.3709260592   -0.7866962884
 H   -2.1844857457   -2.7410190920   -0.0518806160
 H   -0.6900955294   -2.4900896816   -0.9742674699
 H   -0.6292267802   -2.6084113904    0.7904304418
 H   -1.7601744102   -0.5385524841    2.1489387256
 H   -4.9518581348    0.7186610363    4.5658502684