18

 O   -0.0831421986   -0.0143411827   -0.0000824793
 C    0.0219475714    1.1873531937    0.0154941696
 C    1.3160064684    1.9340780107   -0.0097190542
 C    1.4249643810    3.1546352843    0.9738846906
 C    1.9508936866    4.0035203227   -0.1883395481
 C    1.5505807188    2.9637307229   -1.1824026741
 N    2.9477270286    3.2985535182   -1.0071252656
 C    3.6705456390    2.1773541272   -0.3596943270
 C    2.6056046367    1.1156636715    0.0175518840
 H   -0.8831423123    1.8387772121    0.0414202396
 H    0.4397304062    3.5057725000    1.2952686091
 H    2.0587547210    3.0111579522    1.8550248447
 H    1.9278559440    5.0854371032   -0.2551259299
 H    1.0654689760    3.0054132829   -2.1501664925
 H    4.4056580161    1.7881131850   -1.0688689304
 H    4.2188811403    2.5521679360    0.5097365034
 H    2.7856835576    0.6613835373    0.9959408460
 H    2.5572959092    0.3080038229   -0.7184602258