16

 N   -0.0314853408    1.1515571389   -0.4269844410
 C    0.0023021839   -0.0347947751   -0.0257877790
 O    1.0141904965   -0.7812349639    0.5348712095
 C    0.1904822573   -1.9921324729    0.5296333325
 C   -1.0108295731   -1.1744688439   -0.0086420260
 C   -2.2748517878   -1.0215802419    0.8988968588
 N   -3.4414395380   -1.1786182110    0.0221222109
 C   -2.9845634986   -1.4230294095   -1.1396866646
 N   -1.6049210157   -1.5640617191   -1.2774684796
 H    0.8629025893    1.6261578032   -0.2937358522
 H    0.5910813607   -2.7389119439   -0.1599301388
 H    0.0906034517   -2.4034931146    1.5372941312
 H   -2.2874345864   -1.7905140176    1.6801160704
 H   -2.3053811830   -0.0461134211    1.3935241953
 H   -3.6110490287   -1.5753766077   -2.0136681316
 H   -1.1742288573   -1.2155758200   -2.1231458258