16

 O   -0.0045287705    1.4746357692   -0.0747830659
 C    1.3232739032    1.9014209557    0.0693641985
 C    2.4141650712    1.1698821649   -0.6854595107
 C    2.1652612805    0.8773852830    0.7921840543
 C    1.3435840276   -0.3988487190    0.7238145924
 C    0.0472540598    0.0605468672   -0.0350745643
 C    0.6421448250   -0.5968515978   -1.2674910532
 C    2.0294951983   -0.0915564365   -1.4235907242
 N    1.7822753916   -1.2231615078   -0.4908840260
 H    1.3968346910    2.9685366178    0.2410863879
 H    3.2858732952    1.7232760018   -1.0125550208
 H    2.8582265739    1.1016856498    1.5919055631
 H    1.2539362170   -0.9825472647    1.6362092873
 H   -0.9128707384   -0.3284103590    0.3021369371
 H    0.1018332044   -1.1268521094   -2.0447794172
 H    2.5711742501   -0.3556489452   -2.3246453981