23

 C    0.0467477442    1.6163850934   -0.0798460217
 C   -0.2618181370    0.1242965574   -0.2385121926
 C    0.6799714181   -0.5441429999   -1.2277654752
 O    2.0560012948   -0.5363580850   -0.7674816033
 C    2.1324670943   -1.9742007082   -0.7924913870
 C    0.6957856011   -2.0987886365   -1.3501699488
 C   -0.2923893909   -2.9255777082   -0.5741317622
 C   -1.5954764440   -3.3539395546   -1.2056171126
 C   -0.5157944948   -4.3731331460   -0.9444815431
 H    1.0817998357    1.7575313704    0.2440798946
 H   -0.0841090547    2.1502113617   -1.0278367859
 H   -0.6108994717    2.0819500451    0.6602395882
 H   -0.1805652799   -0.3738434908    0.7344146554
 H   -1.2931044776   -0.0197379141   -0.5856800068
 H    0.6051748731   -0.0335432714   -2.1994542212
 H    2.9390111412   -2.3330485514   -1.4435442357
 H    2.2769263124   -2.3967465031    0.2113542718
 H    0.6842441297   -2.4168119808   -2.3971558078
 H   -0.3344094806   -2.7067476920    0.4892909814
 H   -2.4855809403   -3.3747826738   -0.5868304414
 H   -1.7788077260   -3.0632011674   -2.2349973472
 H    0.0267654825   -4.7669886990   -1.7978023918
 H   -0.6666246399   -5.0909605057   -0.1460350970