20

 O    0.0927776501    1.1744248111   -0.3496283237
 C   -0.1530261033   -0.1910395597   -0.0604000832
 C    0.7244529568   -0.7673091949    1.0785437279
 C   -0.1692613597   -1.7913628063    1.8285195578
 C   -1.5594893957   -1.7171747508    1.1495733218
 C   -1.5825591988   -0.3541294665    0.4659102508
 O   -1.6744516496   -2.7061905850    0.1096481320
 C   -2.1108587653   -3.9260248061    0.4672650658
 N   -2.0813648658   -4.8812826857   -0.3586428616
 H    0.9469114644    1.2393715305   -0.7872797333
 H   -0.0372755994   -0.8035742631   -0.9654856584
 H    1.6499310049   -1.2134376314    0.7048024246
 H    1.0014277541    0.0631774872    1.7354692193
 H    0.2182331033   -2.8118802022    1.7807759939
 H   -0.2596545593   -1.5313403260    2.8873709388
 H   -2.3832637811   -1.8563205558    1.8590770060
 H   -1.7702719130    0.4303785005    1.2082530786
 H   -2.3468780478   -0.2895355414   -0.3104904741
 H   -2.4896576018   -3.9706592180    1.4989535901
 H   -2.4809728231   -5.7159646064    0.0654230770