16

 C    0.0269722333    1.3987663092    0.0355853991
 N    0.3353233266   -0.0192540831   -0.0133408839
 C    0.0103731967   -0.7708102421    1.1938271770
 C    0.0837440406   -0.6203780132   -1.2250924406
 C   -0.3166861326   -0.1787368210   -2.4526231264
 N   -0.2998634219   -1.2515080360   -3.3427947761
 C    0.0797180003   -2.2559689658   -2.6356166306
 O    0.3390611018   -1.9582058595   -1.3257970346
 H    0.4241988721    1.8170588032    0.9638767780
 H    0.5070268700    1.9077062551   -0.8046647464
 H   -1.0555143051    1.6049395649   -0.0045951906
 H   -1.0719508717   -0.7913533268    1.4017562180
 H    0.3649230568   -1.7967130330    1.0945257968
 H    0.5171815829   -0.3084116546    2.0452960377
 H   -0.6125988479    0.8098107449   -2.7584779306
 H    0.2083773380   -3.2862026323   -2.9247165967