19

 C   -0.0204764987    1.5408140454    0.0596282398
 C    0.0330536847    0.0157423532    0.1331232053
 O    0.6960691899   -0.4575314477    1.3000986733
 C   -1.3502691958   -0.5958526665    0.0234966096
 C   -2.3717348072   -0.5194843426    1.1773401275
 O   -2.7013774251   -1.9221264260    1.0181722582
 C   -1.7277627164   -2.0905668020   -0.0267329902
 C   -2.2813349586   -1.7734762964   -1.4230102142
 O   -1.9676627244   -0.3616967492   -1.2627729868
 H    0.9892832473    1.9583649311    0.0919174969
 H   -0.5096494223    1.8606592686   -0.8642628401
 H   -0.5904118926    1.9531610388    0.9024514908
 H    0.6244785654   -0.3630186594   -0.7088976746
 H    0.3892384027    0.0614886530    2.0509100553
 H   -1.9539792714   -0.3267083465    2.1741342891
 H   -3.2247118176    0.1422946116    0.9943795143
 H   -1.0703172969   -2.9467014758    0.1279631777
 H   -1.7212961501   -2.2089656209   -2.2599760512
 H   -3.3530487529   -1.9566184087   -1.5508546006