20

 C   -1.5345786970    0.0534577541   -0.5102039939
 C   -0.0995587437   -0.2827643134   -0.0616840000
 C    0.8037091843   -0.5758804163   -1.2349561194
 C    1.0709143274   -2.0056564759   -1.6402604973
 C    1.9985462583   -2.7221791592   -0.6767721442
 C    1.5120165215   -3.5949029473    0.4009394006
 O    2.0583261555   -4.1428272451   -0.7987548999
 N    1.3733084244    0.3158212352   -1.9541268546
 O    1.0755209976    1.6180018899   -1.5157670728
 H   -1.5341476613    0.9400079331   -1.1482423325
 H   -1.9818118904   -0.7729168028   -1.0721918870
 H   -2.1706328466    0.2520638043    0.3575178846
 H    0.3093578519    0.5635650489    0.4972138880
 H   -0.1129498672   -1.1488234465    0.6068910729
 H    0.1289345779   -2.5651495016   -1.6983922108
 H    1.5251390955   -2.0076789999   -2.6353731566
 H    2.9713444227   -2.2461567369   -0.5435493292
 H    2.1118821833   -3.7384217832    1.2985308810
 H    0.4400904800   -3.7408133742    0.5328222947
 H    1.5781492459    2.1573096870   -2.1350260839