15

 O    0.1510415817    1.4066280451    0.2436257780
 C    0.1655653706    0.0143373537    0.0980691152
 C   -1.2087487618   -0.6734285926    0.2671413551
 C   -2.4212751276    0.2259377831    0.4416168388
 C   -3.7237880677   -0.5128772720    0.1928535045
 O   -4.6296529204   -0.5644194155    0.9835198612
 O   -1.1036345157   -1.2030356674   -1.1095319564
 C    0.0703028455   -0.5340007184   -1.3381843895
 O    0.6915957849   -0.4546898476   -2.3474185953
 H    0.9036780693    1.7674103788   -0.2386082134
 H    0.9656643716   -0.4634155922    0.6794896102
 H   -1.2141688073   -1.5103312023    0.9691934042
 H   -2.4352806128    0.6402552169    1.4534503353
 H   -2.3468663455    1.0579072244   -0.2688356943
 H   -3.7901467948   -1.0116430140   -0.7976762634