17

 O   -0.0558959667    1.4826190796   -0.1814436588
 C    0.0316448230    0.0796001291   -0.1648850637
 C   -1.3429593654   -0.5721409059    0.0552519524
 C   -1.3765583573   -2.1105141146    0.0141607686
 N   -2.3427362670   -2.4638914016    1.0527870779
 C   -2.5849159010   -1.4782525830    1.9824204492
 N   -3.2199123895   -1.4829693470    3.0864615889
 C   -1.9158987292   -0.2311042780    1.4269183202
 O   -1.8194076387    0.8309793320    1.9901932230
 H   -0.4961987383    1.7386242034    0.6418279055
 H    0.4386094806   -0.2304592764   -1.1338963428
 H    0.7274411372   -0.2832582850    0.6112858671
 H   -2.0359211425   -0.1597756091   -0.6893149424
 H   -1.6941882056   -2.4952235722   -0.9592720187
 H   -0.3806883837   -2.5256994364    0.2293590589
 H   -2.5368320448   -3.4293929953    1.2654621854
 H   -3.5898130711   -2.4102542796    3.3082326192