14

 N   -0.0387834947    1.4751588987    0.0354805273
 C    0.0254285591    0.0246918606   -0.0184333781
 C   -1.4251895104   -0.5531457524   -0.0143242698
 C   -2.1564859365   -0.0899903376   -1.2042433812
 N   -2.6962124252    0.3081231419   -2.1444084906
 C   -1.4288908251   -2.0095045779    0.0727957932
 C   -1.3959514294   -3.2113454861    0.1720089298
 C   -1.3593021098   -4.5723976462    0.2834880197
 N   -1.3243199138   -5.7288917502    0.3813026505
 H    0.8654004040    1.8586181038    0.2860057925
 H   -0.2857583540    1.8591089960   -0.8715099656
 H    0.5582011414   -0.3979928988   -0.8831528195
 H    0.5170937680   -0.3446486431    0.8856615281
 H   -1.9307329037   -0.1337123588    0.8653885836