16

 O    0.3098124922    1.3605364258   -0.2509948253
 C    0.0987790806    0.0067478841   -0.1082091931
 C    0.0760738708   -0.6126893693    1.3188052041
 N   -1.2229920476    0.1646932843    1.5265463289
 C   -1.3820669862   -0.5168974778    0.1790556647
 C   -2.5723633403   -0.4327975444   -0.7019668964
 O   -2.8865203947   -1.3451188851   -1.4329384627
 C   -0.7421051241   -1.8030383215    0.7614256091
 O   -0.0969794915   -2.7150439079   -0.0766566481
 H   -0.1740134647    1.7791276801    0.4770903844
 H    0.6448133272   -0.5369346736   -0.8739985684
 H    0.8618800335   -0.6129220017    2.0746096599
 H   -1.8052066022   -0.3035528764    2.2284872954
 H   -3.1455716886    0.5185422925   -0.6747781336
 H   -1.3753726530   -2.2922740841    1.5160990319
 H   -0.7567370814   -3.0506230851   -0.6951202607