20

 O   -0.1936661564    1.4540833824    0.0124335701
 C   -0.0195654750    0.0467249115    0.0024138034
 C   -1.4049816030   -0.5868013717    0.0124035625
 C   -1.3521405892   -2.1071643967    0.0030245473
 O   -2.6796610379   -2.5999294041    0.0131098008
 C   -2.7526961683   -4.0022690026    0.0058088508
 C   -4.2424081290   -4.3677128654    0.0182939090
 C   -4.4540553007   -5.8115327204    0.0120543209
 N   -4.6018107013   -6.9573886938    0.0070134648
 H    0.6754339627    1.8654426964    0.0061813060
 H    0.5361186393   -0.2807068452   -0.8919578194
 H    0.5536862566   -0.2911595157    0.8816844425
 H   -1.9482714405   -0.2476124372    0.9005557304
 H   -1.9656741204   -0.2373680333   -0.8608356432
 H   -0.8202232936   -2.4743230611   -0.8912047399
 H   -0.8029190578   -2.4846633138    0.8823620886
 H   -2.2680025005   -4.4242420905   -0.8890478954
 H   -2.2506195981   -4.4344039056    0.8861154594
 H   -4.7140021519   -3.9344283720    0.9063848344
 H   -4.7312636251   -3.9242800812   -0.8553410031