21

 C   -2.7170191644   -4.3152944503   -1.4926204173
 O   -1.4942113834   -3.6657920029   -1.1229639538
 C   -1.0960098343   -2.6737730860   -1.9496677650
 O   -1.7206120428   -2.3336097383   -2.9241670371
 C    0.2369910295   -2.1014376706   -1.5116919291
 C    1.3865953918   -2.6993199296   -2.3254994247
 C    1.4378565756   -2.2638130978   -3.7776742327
 C    2.6918254873   -2.9262643753   -1.6012185379
 C    1.8195686684   -4.1031041782   -1.9721110736
 H   -3.5427848188   -3.5996427623   -1.5129154155
 H   -2.6273577424   -4.7728283877   -2.4811890258
 H   -2.8905917857   -5.0774276082   -0.7327819232
 H    0.2008162517   -1.0174507634   -1.6609366440
 H    0.3819536365   -2.3050122699   -0.4483814814
 H    1.5926548146   -1.1809802566   -3.8551839292
 H    2.2604244298   -2.7574327485   -4.3042101174
 H    0.5047582280   -2.5000789954   -4.2973521535
 H    3.6104353053   -2.7755212387   -2.1586306461
 H    2.7582995744   -2.6486372832   -0.5544257840
 H    1.2877135852   -4.6156598320   -1.1779759402
 H    2.1502957736   -4.7520215651   -2.7760705986