19

 C   -0.1562959671    1.5857421558   -0.0637347386
 C    0.0412675950    0.0754495653   -0.0500845172
 C    0.7346141672   -0.5991259042   -1.2391986410
 C    2.1724063947   -0.2007484766   -1.3373368655
 C    1.7937958498   -1.2359516355   -0.2987690002
 C    2.3231383018   -2.5558550502   -0.2810646176
 C    2.7577742176   -3.6782528835   -0.2447876316
 C    1.1473678521   -0.5330936287    0.8991929225
 O    2.0293994539    0.3544211034    1.5495542536
 H    0.7840368972    2.1181808407   -0.2261450650
 H   -0.8542976456    1.8787866194   -0.8550842988
 H   -0.5734175657    1.9344859189    0.8881612118
 H   -0.9131759607   -0.4192379677    0.1567404300
 H    0.2269645229   -1.0958830018   -2.0569182078
 H    2.7100852895   -0.6042740610   -2.1880399683
 H    2.5150548777    0.7736586243   -1.0056949839
 H    3.1482320661   -4.6647752879   -0.2159513049
 H    0.7212606381   -1.2568324370    1.6036608627
 H    1.5788025556    0.7224735963    2.3163372897