21

 C   -0.1404602653    1.6445560284   -0.0174642368
 C   -0.0497412079    0.1211052781    0.0281091797
 C   -1.4420860462   -0.4901410187   -0.1596080523
 O   -2.0053492697   -0.1630843878   -1.4287548096
 C    1.1201452034   -0.6321461142   -0.6914085043
 C    2.1337670815   -0.1076281010    0.3480232223
 C    0.8634170896   -0.6062661003    1.0883749551
 C    0.6386014494   -0.8315337004    2.5519986010
 O    0.8906650058   -1.7987562027    0.1880169225
 H    0.8243896414    2.1494615115   -0.0826647277
 H   -0.7388954399    1.9372189337   -0.8846411628
 H   -0.6549524034    2.0201097094    0.8751044055
 H   -1.4012957430   -1.5721417334   -0.0091910458
 H   -2.1290667756   -0.0637352313    0.5806716165
 H   -1.5401138114   -0.6823245163   -2.0918790124
 H    1.2703891335   -0.8340562085   -1.7537270539
 H    3.0037735800   -0.7518835541    0.4811958201
 H    2.3895380922    0.9513619643    0.3736373197
 H    0.6464344601    0.1239926099    3.0861722800
 H   -0.3258831313   -1.3173953972    2.7285066783
 H    1.4272025067   -1.4659895195    2.9677456351