21

 C    0.0069958379    1.5250054010   -0.0765208597
 C   -0.0185513670    0.0117498039    0.0515652545
 C   -1.3179238506   -0.6879397434    0.5194012787
 C   -0.4536153004   -1.6927655750    1.3267612244
 C    0.7262722672   -0.6848960739    1.2419359193
 C    2.1309046065   -1.1831766187    0.9393802072
 O    2.2005395676   -1.7612146504   -0.3581480762
 C    1.7259862093   -0.8582923982   -1.3199060935
 O    0.3528042445   -0.6042624358   -1.1929298148
 H    1.0130339652    1.8934638411   -0.3048735966
 H   -0.6596564371    1.8441158829   -0.8840194587
 H   -0.3211570764    2.0001936671    0.8532386567
 H   -1.9106885170   -0.0377533184    1.1691290532
 H   -1.9493436511   -1.0780366497   -0.2809966942
 H   -0.7993202767   -1.9702672430    2.3245474526
 H   -0.2414698674   -2.5977847422    0.7539815271
 H    0.7430301117   -0.0260462693    2.1160917330
 H    2.8537179855   -0.3519045614    1.0094659503
 H    2.4414312539   -1.9600038641    1.6453177266
 H    2.3078857784    0.0814844739   -1.2638428283
 H    1.8664174959   -1.3237640464   -2.2976586017