18

 C    0.1464340269    1.3559262103   -0.4494026562
 C    0.0112605944   -0.0206384610    0.2107889415
 O    0.4322339536    0.0173265523    1.5721192169
 C   -1.3772848628   -0.5903325910    0.0910483624
 C   -2.0645293827   -1.2091834323    1.0834615581
 O   -3.3029851828   -1.6077581160    0.6292724869
 C   -3.3824428034   -1.2363314174   -0.6680422063
 N   -4.6013305916   -1.4866141930   -1.2822786108
 C   -2.2394578588   -0.6084010575   -1.0659582199
 H    1.1641118662    1.7317038714   -0.3142006035
 H   -0.0678610634    1.3072697838   -1.5214751082
 H   -0.5543733994    2.0692272527   -0.0007072354
 H    0.7245253930   -0.7041253273   -0.2688768189
 H   -0.1891536632    0.5869638033    2.0407875505
 H   -1.8326000111   -1.4660320558    2.1011740563
 H   -5.0509914490   -2.3211256113   -0.9272127312
 H   -4.5324285160   -1.5181619135   -2.2898636631
 H   -2.0351305400   -0.2095824775   -2.0464970490