15

 N   -0.0472110671    1.3639184012   -0.1310706367
 C   -0.0204244076    0.0023637451   -0.0233868501
 N   -1.1725496482   -0.6603825803   -0.0010546118
 C   -1.1032459629   -2.0007957196    0.0590506306
 N   -2.3054117511   -2.6684961903    0.1359817855
 H   -3.1030975075   -2.1585479699   -0.2074825063
 H   -2.2633238876   -3.6439913865   -0.1117670785
 N    0.0052487428   -2.7436094499    0.0922304086
 C    1.1560478156   -2.0532233138    0.0785683521
 C    1.2156680200   -0.6800867010    0.0246536455
 O    2.3604351735    0.0810609884    0.0117610413
 H    0.7913558666    1.8625620080    0.1162016515
 H   -0.9273657727    1.8061597088    0.0788661625
 H    2.0756663564   -2.6392637370    0.1120656857
 H    3.1249713098   -0.4987606535    0.0895428402