15

 C   -0.0144293625    1.5274057117   -0.2333079793
 C   -0.0010759097    0.0502270935    0.0513104701
 O    1.2468503670   -0.6381242257   -0.0182048405
 C    0.6028562516   -0.5802866735    1.2516200480
 C    1.2742117254    0.1671784285    2.3302063824
 N    1.1033188545   -0.0159390043    3.6086180449
 C    1.9440420223    0.9295146881    4.1386337361
 N    2.5994245967    1.6468417030    3.2686756626
 O    2.1525019506    1.1353272520    2.0420553022
 H    0.8192212019    2.0388420809    0.2488311215
 H    0.0541245483    1.6941562188   -1.3130886575
 H   -0.9547447026    1.9678112189    0.1143055923
 H   -0.8280319115   -0.5128837575   -0.3865323888
 H    0.1786647390   -1.5148691716    1.6138569982
 H    2.0738761089    1.0826788171    5.2001294579