17

 C   -0.0545406609    1.5387787748   -0.0138662771
 C    0.0911157719    0.0513155812    0.0012646054
 N   -0.8076409498   -0.8576231210    0.7685585706
 C    0.6604576791   -0.9106610408    0.9932542574
 C    1.2242917091   -1.8165623664   -0.1123399436
 C    0.6199359570   -0.8224133687   -1.1292893152
 C    0.1706708967   -0.9692393101   -2.5093194852
 O    1.3931019430   -0.2770235287   -2.1822008939
 H    0.8140087190    2.0009813285   -0.4923548935
 H   -0.9465650217    1.8456204497   -0.5727062800
 H   -0.1422809585    1.9365110627    1.0027595136
 H   -1.2044431071   -0.2971818221    1.5243054387
 H    1.0814746507   -0.7229419872    1.9732782812
 H    2.3155438314   -1.8051321090   -0.1688670875
 H    0.8513125113   -2.8432211617   -0.1252464052
 H    0.3028401231   -1.9198651701   -3.0236366857
 H   -0.6321146841   -0.3409918210   -2.8924000699