17

 N   -0.4943948118    1.1119631777    0.1080158212
 C   -0.6362797582   -0.0939996428    0.4457256901
 O   -0.4929209296   -1.0681911573   -0.4814483392
 C   -0.7707019901   -2.3999762188   -0.0794697125
 C   -2.2304649071   -2.7779717396   -0.2878173989
 C   -2.5477457609   -4.2551607284    0.0731420581
 N   -3.4794581505   -4.1808397423    1.2115044647
 C   -3.6760510462   -2.9475768298    1.4150177102
 O   -3.0611366172   -2.0219997241    0.6360567294
 H   -0.6089832087    1.7147865200    0.9200031032
 H   -0.8606083518   -0.4760162408    1.4492278202
 H   -0.1422156531   -3.0445711019   -0.7021091536
 H   -0.4930424769   -2.5631170770    0.9711458332
 H   -2.5384159054   -2.4996875227   -1.2989198677
 H   -3.0131842964   -4.7983848829   -0.7546080227
 H   -1.6493849247   -4.8133299741    0.3631186313
 H   -4.3182200914   -2.5291807352    2.1819693728