25

 C   -0.0474215353    1.5494591067   -0.4477045571
 C   -0.0119076078    0.1131213108    0.0810070067
 C   -1.3811195683   -0.5728229152    0.0495204527
 C   -1.3501149386   -2.0162143126    0.5727230978
 C   -2.7162792591   -2.6584259100    0.5378749759
 O   -3.2475882133   -3.0192473471   -0.7466408358
 C   -3.0177415933   -4.0670947008    0.2139016098
 C   -1.9396970658   -5.0635691775   -0.1550664928
 C   -4.2832883023   -4.6865517239    0.7716593268
 H    0.9439345265    2.0123404293   -0.4161362799
 H   -0.3966783514    1.5798151441   -1.4857214007
 H   -0.7251973684    2.1734230206    0.1456682078
 H    0.7016440849   -0.4770899570   -0.5095083794
 H    0.3725854065    0.1096731949    1.1099307316
 H   -2.0966179016    0.0145931361    0.6419581314
 H   -1.7686060476   -0.5802411740   -0.9769898717
 H   -0.6380813391   -2.6007929583   -0.0178711345
 H   -0.9870646040   -2.0263829751    1.6100166145
 H   -3.4483217353   -2.1492482262    1.1724946228
 H   -1.0834241282   -4.5814530920   -0.6280221534
 H   -1.5921585973   -5.6057586990    0.7312555182
 H   -2.3398414626   -5.8014717513   -0.8592685092
 H   -4.7181609832   -5.3848250467    0.0478797202
 H   -4.0727929006   -5.2455875732    1.6900842160
 H   -5.0280208648   -3.9183693826    0.9936399925