23

 C   -0.0090810120    1.5546688522    0.0657779110
 C    0.0311302948    0.0224711096   -0.0097083269
 C    0.6951990894   -0.4759775690   -1.3037556681
 C    0.8535851531   -1.9992024197   -1.2951354919
 C    1.7918796890   -2.4750294887   -0.1744533100
 C    1.5671747880   -1.7634117666    1.1567938364
 C    1.7697606971   -2.5996964278    2.4000994343
 O    2.1544660996   -0.4468385050    1.2334488665
 C    0.7247595467   -0.5529781753    1.2107262318
 H    1.0064023769    1.9623349754    0.1000938912
 H   -0.5165124445    1.9771988356   -0.8075279897
 H   -0.5392510481    1.8974447900    0.9607935506
 H   -1.0031602944   -0.3540064137    0.0114196201
 H    0.0930249179   -0.1590841212   -2.1625983792
 H    1.6779542212   -0.0009392632   -1.4083746293
 H   -0.1354889766   -2.4574384969   -1.1589941524
 H    1.2272016465   -2.3534545353   -2.2619427666
 H    1.6795047048   -3.5553672466   -0.0304248510
 H    2.8377186465   -2.3077206475   -0.4608494022
 H    2.7706038554   -3.0465794937    2.4018836875
 H    1.6687342209   -1.9871651220    3.2996320575
 H    1.0403805880   -3.4158842705    2.4461233672
 H    0.2514626497   -0.3083843099    2.1655179832