14

 C   -0.0025240383    1.4934453135   -0.0083273599
 C   -0.0024327530    0.0403169383    0.0472201177
 C   -0.0071691183   -1.1612681661    0.0925296763
 C   -0.0042873125   -2.6143911995    0.1484901793
 N   -1.3453645915   -3.1918907319   -0.0103455575
 N   -2.1745063067   -3.4251531894    0.9942261088
 N   -3.2479057799   -3.8996385428    0.4409094848
 N   -3.0677187537   -3.9507619825   -0.8945462157
 N   -1.8814080903   -3.5083120775   -1.1780714709
 H    0.6168976494    1.8578543757   -0.8343480157
 H   -1.0182351353    1.8742847470   -0.1579469506
 H    0.3834536643    1.9249126038    0.9209979117
 H    0.6069816268   -3.0474689684   -0.6480027368
 H    0.3700212488   -2.9802926200    1.1084988485