20

 C   -0.0224148582    1.5153693277   -0.0489695151
 C    1.3970454303    2.1040599251    0.0152056577
 C    2.0940653720    1.7808258479    1.3513296336
 C    1.9000385436    0.3335681833    1.7074462317
 C    0.9421699111   -0.4493677858    1.1007339320
 C   -0.0056578013   -0.0249112980    0.0251194255
 N    1.0203045295   -1.7073913367    1.6485397503
 C    2.0141133565   -1.7386204669    2.5988449552
 C    2.5773401059   -0.4861905928    2.6587405085
 H   -0.6117735213    1.9079798194    0.7895182896
 H   -0.5261973946    1.8352371011   -0.9673798901
 H    1.9914496584    1.6926195428   -0.8113275283
 H    1.3593600420    3.1887553795   -0.1342773567
 H    3.1606101440    2.0283304150    1.2845972666
 H    1.6862898366    2.4290621182    2.1411537001
 H   -1.0196177734   -0.4033877645    0.2118795703
 H    0.2975257493   -0.4367955583   -0.9496536587
 H    0.4392289811   -2.4865784175    1.3934304124
 H    2.2306591384   -2.6421430388    3.1459171272
 H    3.3857155201   -0.1884339604    3.3100486180