23

 C   -0.1124401936    1.5292126531    0.0592349233
 C   -0.0867554983    0.0146033793    0.1164715622
 C   -1.2538059011   -0.6510237495   -0.5843657901
 O    1.1951279876   -0.5859329547   -0.1469407841
 C    0.6563951151   -0.6887610588    1.1827369472
 C    1.4249581491    0.0273430228    2.2995294792
 C    1.9546787114   -1.1122381340    3.1857825697
 C    0.8140886426   -2.1436017647    3.1479658448
 C    0.3258375082   -2.1049255308    1.6848667778
 H    0.7568779235    1.9675952973    0.5511538202
 H   -0.1195928362    1.8660288142   -0.9833522729
 H   -1.0169884764    1.9193407703    0.5393203371
 H   -1.3147526360   -0.3060643237   -1.6226090916
 H   -1.1461234225   -1.7366715877   -0.5958235554
 H   -2.2008426203   -0.3972556363   -0.0947232421
 H    2.2099288851    0.6676134690    1.8925904179
 H    0.7402984331    0.6613398028    2.8778964652
 H    2.8593481346   -1.5409644340    2.7380150593
 H    2.2107430290   -0.7877570563    4.1980118437
 H    1.1236960696   -3.1435849348    3.4633082492
 H    0.0091887574   -1.8265288248    3.8223370875
 H   -0.7343237664   -2.3542060119    1.5914943146
 H    0.8818405247   -2.8189421471    1.0679795171