8

 N    0.0100907197   -1.1375395251   -0.0333392076
 C    0.0130461205    0.0170767338    0.0122034627
 C   -0.0157395589    1.4636486592    0.0611017856
 C    0.5235950315    2.1850501482    1.2303475744
 O    1.2431932456    2.1308643898    0.0050186601
 H   -0.8111378687    1.9196432626   -0.5247623768
 H    0.0943939324    3.1518747589    1.4858890383
 H    0.9500694278    1.6147856126    2.0523049032