21

 C   -0.0217778067    1.4845659830   -0.0859328366
 C   -0.0048238337   -0.0228743844   -0.0478640890
 C    0.5460619630   -0.9442549003   -1.1548740235
 C    0.0525887074   -1.9245441740   -0.0751419337
 C    0.0977114429   -3.4289910294   -0.0960896569
 C    0.5288089152   -0.9785087955    1.0921191355
 C   -0.8515490327   -1.0832226659    1.7743499100
 O   -1.3048260249   -0.1039192970    2.6743522995
 C   -1.1901579279   -1.0186214220    0.2700429228
 H    0.9957274838    1.8800451621   -0.1827800677
 H   -0.5993051557    1.8428403049   -0.9457005488
 H   -0.4607286218    1.9390088310    0.8096460630
 H    0.0041253576   -0.9462760763   -2.1082231833
 H    1.6277214840   -0.9083963364   -1.3317841317
 H    1.1293983185   -3.7873834788   -0.1854226431
 H   -0.3280745903   -3.8615116397    0.8152858974
 H   -0.4660053978   -3.8246092512   -0.9484467764
 H    1.5279872641   -0.9601940644    1.5338269061
 H   -1.0614088344   -2.0412204364    2.2599373261
 H   -1.1431734404    0.7637651884    2.2929505121
 H   -2.1610269002   -1.0462789777   -0.2304063816