19

 C   -0.0408092318    1.3891464331    0.0856412191
 C    0.0461184351   -0.1360968373    0.0858394265
 O   -1.2065933341   -0.7978865011    0.0722368688
 C   -1.9189909164   -0.7843276562    1.2788643959
 C   -2.9733090032    0.3251009456    1.5209438296
 O   -3.9947326813   -0.6651921049    1.7552614661
 C   -3.1328745018   -1.7269989362    1.2958120686
 C    0.8044971698   -0.6671758628   -1.1281623350
 O    1.7394166756   -0.1077889488   -1.6358820224
 H    0.9585631877    1.8033285507   -0.0680712001
 H   -0.6857813059    1.7302479960   -0.7289478865
 H   -0.4370474330    1.7666553165    1.0319578471
 H    0.6249303320   -0.4670075910    0.9692723308
 H   -1.2389566353   -0.9252084442    2.1298106006
 H   -2.8329374454    0.9855023466    2.3841331710
 H   -3.1725611734    0.9242470830    0.6227900049
 H   -3.3987437313   -2.0779776817    0.2901159743
 H   -3.1098693338   -2.5741557131    1.9891624661
 H    0.4184117864   -1.6430668441   -1.4945890153