16

 O   -0.0620043726    1.5166155067    0.0060531233
 C    0.0125496363    0.1150215357    0.0279509049
 C   -0.0301932904   -0.6381133278    1.4006923466
 C   -1.5041062987   -0.1548710251    1.5305469547
 C   -1.3529020793   -0.6133495786    0.0484365904
 C   -0.5893957837   -1.8677261774    0.6045266623
 C    0.2789423755   -2.6460648463   -0.2565491991
 C    0.9841528494   -3.3271260658   -0.9542080796
 H    0.8316689089    1.8653741277    0.0744410809
 H    0.7428224042   -0.2633331697   -0.6946330804
 H    0.7379011457   -0.6723418755    2.1747230738
 H   -2.1608430807   -0.7580488470    2.1628043910
 H   -1.6469038823    0.9120520444    1.6876663611
 H   -2.1105795984   -0.6164733054   -0.7354479749
 H   -1.2221143305   -2.5231824136    1.2093411697
 H    1.6074807567   -3.9231468324   -1.5736295548