20

 N    0.5853530807   -0.5159219453    0.2116754569
 C   -0.3712610025    0.0096254271   -0.5972417904
 O   -0.1637116787    0.8245100737   -1.4741870774
 C   -1.7926147819   -0.4801752471   -0.2901723501
 O   -1.8548426738   -1.5958980230    0.5807877043
 C   -2.0942351141   -2.8346750148   -0.0525118738
 C   -0.9493273914   -3.5827049387   -0.7940486207
 C   -1.4924814716   -4.8950040005   -0.1628657616
 C   -2.2226739569   -4.0330138587    0.9049481086
 H    1.5284206509   -0.1728557083    0.1404114909
 H    0.3164116911   -1.1252212469    0.9653488354
 H   -2.3182279310    0.3531380406    0.1919911226
 H   -2.2925025682   -0.6732787814   -1.2462405072
 H   -2.9782011825   -2.7489268641   -0.7012506856
 H   -0.9025611678   -3.5063645679   -1.8825456736
 H    0.0230993350   -3.3082655121   -0.3772473904
 H   -2.1950664504   -5.4077592274   -0.8249507072
 H   -0.7599338414   -5.6208619753    0.1937039722
 H   -1.5942366365   -3.8726248806    1.7859053815
 H   -3.2229955689   -4.3264423693    1.2295690755