19

 C    0.0271582577    1.5148430213   -0.0413613269
 C    0.0433604310    0.0084788115   -0.0365079927
 C    0.4465756821   -0.7721626626   -1.2776360436
 O    0.3211569473   -2.1362377700   -0.8320628752
 C   -0.1047078689   -2.0049002420    0.5045114362
 C   -0.3084474901   -3.3196781384    1.1950291343
 C    0.6084759089   -0.7908687803    1.1873597560
 O   -0.5908390445   -0.5036344159    1.9801621081
 C   -1.1068975260   -0.8110528950    0.6427792822
 H    1.0198418018    1.9231875268   -0.2609425456
 H   -0.6659266293    1.9033225860   -0.7957483546
 H   -0.2883184288    1.8806860083    0.9394388315
 H   -0.2184845096   -0.5956623658   -2.1324585896
 H    1.4789457147   -0.5756835960   -1.5935375174
 H    0.6221067246   -3.8948609145    1.2118076437
 H   -0.6363257333   -3.1377043504    2.2209476124
 H   -1.0657101152   -3.9147650274    0.6759215414
 H    1.5801179263   -0.7169078713    1.6785835225
 H   -2.1852772287   -0.7611959246    0.4831831673