23

 C   -0.0534382870    1.5612425008    0.1280824407
 C    1.4983862921    1.6461060057    0.0346039874
 C    1.5646243245    0.0965036326    0.2214156041
 C    0.0182402028    0.0114397283    0.0307821327
 O   -0.5172289404   -0.5536379052   -1.1478991371
 C    0.2251206133   -0.5726886568   -2.3525105732
 C    0.6349083096    0.7716896650   -2.9872620482
 C    1.9883759634    1.3662722351   -2.5482561970
 C    2.0542305271    2.2283288608   -1.2729356426
 H   -0.4472321691    1.9048004024    1.0887807038
 H   -0.6216652059    2.0471503243   -0.6686270724
 H    1.9452053418    2.1997941985    0.8652819308
 H    2.1874164518   -0.4659776133   -0.4761393271
 H    1.8553135033   -0.1974492899    1.2330109144
 H   -0.5009949376   -0.5127120235    0.8381303010
 H    1.1216550656   -1.2050085360   -2.2500644399
 H   -0.4439146008   -1.0913741267   -3.0469900649
 H    0.7102698146    0.5713198831   -4.0637232434
 H   -0.1804825537    1.4959783962   -2.8757092782
 H    2.7106534779    0.5426097679   -2.4684042949
 H    2.3629754440    1.9945316302   -3.3654545920
 H    1.5375303466    3.1805696380   -1.4577594406
 H    3.1103295263    2.4885705127   -1.1239644836