17

 O    0.1215182510    0.0748861512    0.1541486652
 C    1.0376182580    0.6398456188   -0.3843230104
 C    1.5464869940    2.0171503803    0.0039340344
 C    1.5535517218    2.9677706517   -1.1851092629
 C    0.1778235771    3.3471548417   -1.7203528268
 C    0.2084207018    4.1763942230   -2.9907836433
 O   -0.4267702740    5.1871700836   -3.1474173857
 C    2.7085617459    3.8520526909   -1.4000986969
 O    2.5443773702    2.6599317686   -2.1781963635
 H    1.5899869251    0.1742077522   -1.2299378487
 H    0.9300048818    2.4061588644    0.8193919741
 H    2.5767374188    1.8998508944    0.3623185574
 H   -0.3756432269    2.4244189924   -1.9514556568
 H   -0.3945042747    3.8870161432   -0.9599524197
 H    0.8592948493    3.7678723057   -3.7914630280
 H    2.5811580952    4.7856491570   -1.9465446521
 H    3.5380041957    3.8389410809   -0.6952634363