17

 C   -0.0280736338    1.4400622801    0.0238872329
 N   -0.0125212972   -0.0056892681   -0.0473673135
 C    0.5648325400   -0.6520690190    0.9018020707
 N    1.1844278017   -0.0473344246    2.0117810959
 N    1.8012962584   -0.6604300023    3.0319140744
 C    1.8415461983   -1.9534227136    3.0066164512
 C    1.2550904410   -2.7482739579    1.9492485879
 N    1.4161990951   -4.1219036355    2.0105268456
 C    0.6312502652   -2.0930820932    0.9327545448
 H    0.9822341406    1.8879805826    0.0233031195
 H   -0.5516621119    1.8394020041   -0.8490029872
 H   -0.5524778454    1.8276770942    0.9162516609
 H    1.1875746521    0.9563028081    2.0848503357
 H    2.3545988488   -2.4300488168    3.8363236501
 H    1.5071621798   -4.5147400218    2.9354356177
 H    0.8036923190   -4.6630086911    1.4186509442
 H    0.1628976083   -2.6121756551    0.1048536792