13

 O   -0.0249271992    1.3221452273    0.0094321569
 N    1.2993427819    1.8145822006   -0.0003980797
 C    2.0940192958    0.7838254670   -0.0137451274
 C    1.3616294426   -0.4498799296   -0.0135661597
 C    0.0301034926   -0.0210592507    0.0014604085
 C   -1.0137888184   -0.9387465266    0.0063022915
 C   -0.6146428305   -2.2676008606   -0.0048455599
 C    0.7531088431   -2.6102100104   -0.0197380191
 N    1.7499347891   -1.7304358542   -0.0243417415
 H    3.1635176555    0.9380483562   -0.0230743645
 H   -2.0541809816   -0.6376696745    0.0178599850
 H   -1.3553287738   -3.0593076902   -0.0021875343
 H    1.0383864228   -3.6587529044   -0.0282561458