18

 C   -0.0233742364    1.4899263681   -0.0294155455
 C    0.0579762865   -0.0089035849   -0.0236675659
 C    0.6046624206   -0.9548291902   -1.1129251998
 C    0.0072206077   -1.8412900739   -0.0116146008
 C    0.6594659795   -0.9480225500    1.0967374896
 C   -0.3337431193   -0.9118874224    2.2279133791
 O   -0.1492951708   -0.8926589505    3.4167007911
 C   -1.6573453939   -0.8938986300    1.4452509945
 N   -1.1993574734   -0.9047175812    0.0423136591
 H    0.9784336196    1.9275549432   -0.0825863782
 H   -0.5963961100    1.8325376257   -0.8965926453
 H   -0.5084388486    1.8701548529    0.8757171429
 H    0.0638709223   -0.9454324078   -2.0615710327
 H    1.6876144010   -0.9855592795   -1.2413946587
 H   -0.1182574657   -2.9251031184    0.0102164119
 H    1.7235151413   -0.9756057889    1.3276206090
 H   -2.2715786458   -1.7735359000    1.6637379780
 H   -2.2523767646   -0.0019404020    1.6647824817