21

 C    0.3578686163   -1.2452058188    0.0452528360
 C    0.1810515284   -0.0550059435    0.0159576562
 C   -0.0432182656    1.3661895025   -0.0411444622
 C   -1.1310785311    1.8133556886   -1.0184662339
 C   -2.5048507282    1.2594745812   -0.7015206194
 C   -3.4443173933    1.9948240962    0.2210296657
 C   -3.7379701067    1.9218518453   -1.2582564543
 C    0.1565079736    2.1566308598    1.2442988610
 C    1.1714277852    2.2651525889    0.1434975360
 H    0.5181802544   -2.2941414580    0.0765084571
 H   -1.1692732972    2.9099865416   -1.0201820900
 H   -0.8362933280    1.5093137247   -2.0312548715
 H   -2.5349615079    0.1754078133   -0.6392977437
 H   -4.0613126330    1.4173352706    0.9004933689
 H   -3.1218164711    2.9500629767    0.6226762691
 H   -3.6076265971    2.8265419378   -1.8440988348
 H   -4.5561021558    1.2940020829   -1.5936959334
 H   -0.5118725384    2.9931206925    1.4149692118
 H    0.4244041965    1.6034983744    2.1363757138
 H    2.1325017209    1.7847223768    0.2819980909
 H    1.2005211783    3.1756272165   -0.4458159332