18

 C    0.0324178463    1.4716523895    0.0697484056
 C   -0.0284363233   -0.0326755302   -0.0386078871
 C    0.6136803526   -0.6677635737   -1.2871818219
 O    0.1255660838   -2.0241937634   -1.2648128812
 C   -0.6903278812   -2.1194111887   -0.0885258170
 C    0.2355009612   -2.0085101437    1.1290257596
 O    0.6284307538   -0.6221842198    1.1054419619
 C   -1.3903353447   -0.7549303474   -0.0404240448
 H    1.0712995123    1.8156625078    0.0735025570
 H   -0.4840842946    1.9406768443   -0.7727975328
 H   -0.4370346296    1.8045885399    0.9993004556
 H    0.3085786219   -0.1810303174   -2.2229119974
 H    1.7068959910   -0.6556078313   -1.2135476289
 H   -1.2949855889   -3.0236556600   -0.1503059032
 H   -0.2679911028   -2.2372680449    2.0778133235
 H    1.1128952401   -2.6554362362    1.0214672935
 H   -1.9616824761   -0.5693070082    0.8714507107
 H   -1.9986780017   -0.5620616265   -0.9260467631