18

 C   -0.0536733143    1.7073788882    0.0140196776
 C    0.0288251287    0.1929744785    0.0187304287
 C    1.1571518124   -0.5795603232   -0.7649177489
 C    2.4233651923   -0.0558988104   -0.0764495664
 C    2.1008948332   -0.0695894634    1.2198885351
 C    0.6622140343   -0.6003278849    1.2243677444
 C    0.8422172170   -1.7953431668    0.2003649615
 C   -0.3465069995   -2.5788593180   -0.1035595233
 N   -1.2795945767   -3.2197795624   -0.3424086638
 H    0.9054557060    2.1706981490    0.2573847805
 H   -0.3695838330    2.0701214715   -0.9700480808
 H   -0.7954571336    2.0522433332    0.7424416270
 H   -0.9505711973   -0.2295195103   -0.2293703693
 H    1.1452322023   -0.6989621461   -1.8471089464
 H    3.3400958371    0.2387307857   -0.5658911209
 H    2.6800394423    0.2107369442    2.0875078915
 H    0.1452018552   -0.7409130735    2.1722447585
 H    1.6825041135   -2.4619212613    0.4024789850