18

 C    0.1213690028    1.3065846522   -0.3155763808
 N   -0.0252664110   -0.0848525005    0.1031471468
 C    0.5366783520   -0.3261861565    1.4293871196
 C   -1.3656795912   -0.5800606450   -0.0411899826
 C   -1.7869497188   -1.0491760284   -1.4222493951
 C   -1.5301574097   -2.0586770328   -0.3434754782
 C   -2.3825453771    0.0481297094    0.7891224266
 N   -3.1395594322    0.5911583140    1.4762625913
 H    1.1827709008    1.5714321227   -0.3105467378
 H   -0.2582559458    1.4263401177   -1.3340267945
 H   -0.4137551573    2.0150328247    0.3391737393
 H    0.0349884582    0.2510634046    2.2243988569
 H    0.4577762206   -1.3888743854    1.6746708825
 H    1.5956709995   -0.0518683003    1.4242079205
 H   -2.8091697362   -0.8646080066   -1.7296417632
 H   -1.0360638454   -0.9346395545   -2.1945857444
 H   -0.6065798982   -2.6228116138   -0.3903667109
 H   -2.3741392411   -2.5748001317    0.0978860738