20

 C    0.0325989876    1.4974625967    0.0083596815
 O    1.2208455517    0.7063965099    0.0725643136
 C   -0.0533730806    0.0336918386    0.0169684780
 C   -0.3894886694   -0.7361265587    1.2745076047
 C    0.4243241809   -2.0388464392    1.2771061493
 C    0.2820033320   -2.8189670898   -0.0181033204
 C   -1.0455890314   -3.0320714719   -0.6541071257
 N   -0.0639285643   -2.1485369926   -1.2803255233
 C   -0.3382255003   -0.7025179362   -1.2837147126
 H   -0.2105465876    2.0576294302    0.9111013286
 H   -0.1148927184    2.0433299599   -0.9238293100
 H   -0.1444087707   -0.1345562921    2.1543147732
 H   -1.4660218708   -0.9428154338    1.3108470836
 H    1.4801994636   -1.7772319987    1.4122089030
 H    0.1442244284   -2.6750757756    2.1245973140
 H    1.0310998215   -3.5993641966   -0.1454233946
 H   -1.2619831776   -3.9509509690   -1.1941266222
 H   -1.9156038596   -2.5817665971   -0.1779989783
 H   -1.3884407487   -0.5507637514   -1.5646394642
 H    0.2772534337   -0.2418226828   -2.0640570482