16

 O    0.0615909664    0.0385316288    0.1575804874
 C    0.0099086187    1.2277747415    0.0667649380
 C   -1.1543951321    2.2519157975    0.0180988596
 C   -0.1067289163    3.3552107462    0.1880048569
 N   -0.1384987663    4.7582829503   -0.1667615970
 C    0.8559503777    5.0793116922    0.9064615117
 C    0.6390956110    3.6601700777    1.5046536606
 O    1.6903626704    2.7064857335    1.2437042187
 C    1.0873124545    2.3560492749   -0.0218726662
 H   -1.6084592675    2.2570486761   -0.9816281454
 H   -1.9496184875    2.1512558799    0.7606325605
 H    0.1270029076    4.9969343442   -1.1172446775
 H    1.8890118495    5.2195618679    0.5693853920
 H    0.5540611643    5.9284625767    1.5269516513
 H    0.2262270066    3.5771978149    2.5108386889
 H    1.7926364129    2.3247978177   -0.8573929297