17

 O    0.0909597080    0.0085041062    0.0068604158
 C    0.0236595126    1.2058990178    0.0095687363
 C   -1.1824651432    2.1340964360    0.0195412012
 C   -0.8086406408    3.2657999938    1.0280052210
 C    0.7098676432    3.0703406926    1.2670965292
 C    1.1320496730    2.2750877971    0.0042378125
 C    0.6929324870    3.0753069220   -1.2496695662
 C   -0.8222207605    3.2697763990   -0.9893931026
 O   -0.9999670134    4.2889900003    0.0225607261
 H   -2.1843265195    1.7173852509    0.0254721834
 H   -1.4117213226    3.4365045328    1.9211318722
 H    1.2079257674    4.0381726517    1.3651530171
 H    0.8972412748    2.4837580508    2.1737548988
 H    2.1497996312    1.8896788792   -0.0033653039
 H    1.1896489025    4.0435327849   -1.3505998546
 H    0.8680676265    2.4923157541   -2.1610792398
 H   -1.4372614264    3.4439851107   -1.8736426566