23

 C   -0.5397345972    1.7561445689   -0.5759206459
 C   -0.2430282934    0.2607887941   -0.4453640672
 C   -1.4934353532   -0.6072080003   -0.2714159334
 C   -1.1528756683   -2.0984205242   -0.1853152951
 C   -2.3769342763   -3.0067653015   -0.0521426316
 O   -2.1702961771   -0.2139609660    0.9327942950
 C   -3.4769419661    0.2767069925    0.7790229948
 C   -4.0119129251    0.6304920014    2.1570866081
 O   -5.1101603541    1.0797614418    2.3505273655
 H    0.3835891580    2.3313583656   -0.6921774981
 H   -1.1711308893    1.9648885830   -1.4472153717
 H   -1.0548129309    2.1288367950    0.3139234311
 H    0.2998599225   -0.0924563296   -1.3306781751
 H    0.4145881940    0.0874726711    0.4155553801
 H   -2.1660003889   -0.4422439372   -1.1275288810
 H   -0.5784290682   -2.3717956192   -1.0789345729
 H   -0.4863574926   -2.2467101905    0.6734309337
 H   -3.0479405730   -2.9037244909   -0.9126804054
 H   -2.0811797205   -4.0581334610    0.0115966620
 H   -2.9435642724   -2.7644423036    0.8513095365
 H   -3.5180624815    1.1805757613    0.1498640875
 H   -4.1555899421   -0.4632592720    0.3245946496
 H   -3.2890906843    0.4344666313    2.9796299036