8

 C   -0.0117109712    1.4997377589   -0.0121326782
 C   -0.0291973962   -0.0033874528    0.0715121771
 O   -0.0916402827   -0.6459292706    1.0873224079
 C    0.0383110395   -0.6969025834   -1.2374855698
 N    0.0913628619   -1.2298265039   -2.2622806787
 H    0.9009313161    1.8337067040   -0.5181492776
 H   -0.8566393307    1.8486439962   -0.6161813481
 H   -0.0641653967    1.9213154217    0.9920381774