17

 O   -0.0093678966   -0.0681413619    0.0025075943
 C    0.0433974773    1.1361245540   -0.0787145585
 C    1.3039198255    1.9160543705   -0.0515716187
 C    2.7510310909    1.3941550306    0.0132436293
 C    2.9084113080    2.9316997554    0.0072734313
 C    1.7630358964    3.0497000798   -1.0558630277
 C    0.9796922045    4.3080231852   -0.7121859749
 O    0.9627053344    4.2297668909    0.7254999816
 C    1.6958688594    3.0561417489    0.9727459328
 H   -0.8847300864    1.7457901977   -0.1694337260
 H    3.0413182182    0.8687098586    0.9260544697
 H    3.1082528394    0.8656947170   -0.8725622084
 H    3.8272918243    3.5180753802    0.0338909462
 H    1.9488706864    2.7973136476   -2.0997279613
 H    1.4835554557    5.2275301086   -1.0336485403
 H   -0.0466601627    4.3157217852   -1.0969615082
 H    1.7705394952    2.8510488718    2.0397207686