18

 C   -0.1413430589    1.5134208702    0.3369219323
 N    0.0197377064    0.0726009888    0.1858573889
 C    1.3145092742   -0.4405673744   -0.2133785097
 C    0.7999941426   -0.6922422727    1.1781829674
 C    1.4970618783   -0.0029512194    2.3540571968
 C    0.5402722350    0.3639882381    3.4746731879
 O    0.5459491670    1.4251402890    4.0436480427
 C    0.2525806243   -1.9906733065    1.5027252386
 C   -0.1675763542   -3.0775972431    1.7993724382
 H    0.7674349961    2.0487192502    0.6478503842
 H   -0.4586903940    1.9198933048   -0.6282160058
 H   -0.9297249629    1.7173300062    1.0670479322
 H    1.3107502497   -1.2436942991   -0.9450488565
 H    2.1464304772    0.2592461641   -0.2983432749
 H    2.2285447385   -0.7106755879    2.7677023876
 H    2.0402914422    0.8936650139    2.0514172677
 H   -0.1800845886   -0.4372746951    3.7486475214
 H   -0.5539184828   -4.0350620771    2.0483207109