20

 C   -0.2282129307    1.2858077385    0.3918006409
 O   -0.4777595492   -0.0050349684    0.9065875359
 C   -1.3403087541   -0.7659189966    0.1182163158
 C   -0.8742795943   -1.3489311560   -1.2467692519
 C   -1.6287699851   -2.6542716203   -0.8623782499
 C   -1.5790743692   -2.2161386977    0.6188123225
 O   -0.4211162260   -2.7989387366    1.2040411517
 C   -0.1417427231   -2.4455102157    2.4774771090
 N    0.8822469734   -2.9181014479    3.0439210522
 H    0.4418377817    1.7891391213    1.0920110874
 H    0.2544303937    1.2451135183   -0.5949929960
 H   -1.1568450948    1.8705995634    0.3008061770
 H   -2.3124751917   -0.2586302791   -0.0016234121
 H   -1.1741875019   -0.8292796360   -2.1584164681
 H    0.2068577454   -1.5043318641   -1.2468115227
 H   -2.6519552343   -2.6803264722   -1.2437051104
 H   -1.1362594660   -3.6032088786   -1.0746998031
 H   -2.4541881206   -2.3943809128    1.2530679384
 H   -0.8750947864   -1.7581324545    2.9145990362
 H    0.9385525532   -2.5669185150    3.9976743072