16

 O   -0.4178563959    1.1854445618    0.2033592220
 C    0.0159381678   -0.1218726577   -0.0546346079
 C    0.9218680412   -0.1484698461   -1.2925819351
 O    1.2056446671    0.8659641012   -1.8747798786
 C    0.7547464887   -0.7331175599    1.0543449804
 C    1.3843150627   -1.2336718835    1.9533385156
 C    2.1180440542   -1.8446934878    3.0237854885
 C    1.7257655922   -1.5655817346    4.4396919304
 N    1.4795991120   -2.8889658683    3.8643315822
 H    0.0719353588    1.7459696273   -0.4204755057
 H   -0.8535884466   -0.7611311617   -0.2906880677
 H    1.2998930713   -1.1421450928   -1.5981903988
 H    3.1655776119   -2.0463979724    2.8160286956
 H    2.5009215331   -1.5308303528    5.1996341389
 H    0.8884045653   -0.8935112666    4.6003951020
 H    0.5007579261   -2.9696269360    3.5986681983