19

 C   -0.2870374259    1.5146643547    0.0485216631
 N    0.0627364517    0.0950863666    0.0137186567
 C    0.1032602700   -0.6143539278    1.2140068885
 N   -0.1543285558   -0.0616078581    2.3302328733
 C    0.3604071062   -0.5960396796   -1.1640422642
 O    0.6476232008   -1.7812309949   -1.1527688172
 C    0.3133025336    0.1748026050   -2.4398208711
 C    1.3055859783   -0.2469758230   -3.5146463468
 C   -0.1336292245   -0.5973852968   -3.6733121514
 H    0.5279817245    2.1330300906   -0.3378946653
 H   -1.1953494147    1.7130632830   -0.5273052521
 H   -0.4644792011    1.7723804201    1.0916668015
 H    0.3752870674   -1.6556299037    1.0474918705
 H   -0.0709585796   -0.7431925612    3.0815060627
 H    0.0539141082    1.2225372060   -2.4010697879
 H    1.7275912943    0.5407751841   -4.1278185731
 H    1.9833830188   -1.0451334316   -3.2372570820
 H   -0.4153736871   -1.6291766679   -3.5017050557
 H   -0.7311383449   -0.0579307157   -4.3989760293