16

 C   -0.4431350940    1.4097261055    0.2054904405
 C    0.0385350145   -0.0034351520   -0.0794129802
 C    1.0096424349   -0.1981500882   -1.2891799742
 C    2.0451335601   -0.6901025015   -0.2847706093
 N    3.2230242845   -1.1188190518   -0.3752542973
 N    1.1419604915   -0.4850110289    0.7888181578
 C    1.2497341741   -0.7493384295    2.1234840877
 O    2.2507479326   -1.1850972152    2.6502266933
 H    0.3952288454    2.1130953240    0.2122325204
 H   -1.1537838251    1.7245614740   -0.5653441216
 H   -0.9513092270    1.4712870067    1.1730188824
 H   -0.8008763873   -0.7065428724   -0.0878456156
 H    0.7027380982   -0.9422640175   -2.0256426457
 H    1.2846937972    0.7265697849   -1.8010104399
 H    3.5852402095   -1.3632931939    0.5481424679
 H    0.3181334008   -0.5210911742    2.6779172139