22

 C   -0.3189078812    1.1251739684    0.2531872632
 C   -0.4797186131   -0.3398354233   -0.1725474762
 C    0.4509373476   -0.7329993211   -1.3035332578
 N    1.8486685946   -1.1608699848   -1.1124965679
 C    2.4366152556   -1.2413902055    0.2167407386
 C    0.8688828374   -2.1422759980   -1.5127012434
 C    0.3917394042   -3.4045210370   -0.7860725036
 O    0.4328159233   -4.1459903887   -2.0224661042
 C    0.9406669881   -3.0116739202   -2.7635854735
 H    0.6860916221    1.3204233249    0.6400588376
 H   -0.4827468438    1.7993689365   -0.5942796427
 H   -1.0375226251    1.3894810824    1.0348708189
 H   -0.3390092328   -0.9974595190    0.6917090244
 H   -1.5099613554   -0.5089797787   -0.5124334018
 H    0.3333927400   -0.1096718820   -2.1920948944
 H    1.7550618187   -1.5791832852    1.0113760456
 H    3.2804327865   -1.9382346018    0.1838358791
 H    2.8266154163   -0.2580448627    0.4967876308
 H    1.0831350293   -3.8136873817   -0.0365036100
 H   -0.6185109348   -3.3733357044   -0.3580028152
 H    0.2799248540   -2.7340624150   -3.5945130442
 H    1.9557466586   -3.1818350830   -3.1447158835