15

 C    0.0066296265    1.4507643334    0.0099792835
 C    0.0102689802    0.0002279673    0.0022682014
 C    0.0117174991   -1.2070773219   -0.0041326892
 C    0.0174258825   -2.6431376355   -0.0117901985
 O   -0.9840217908   -3.3319972143   -0.0054680186
 C    1.4136702341   -3.3099819977   -0.0292240446
 O    2.4205928578   -2.6528366444   -0.0358857804
 C    1.3752670349   -4.8270940372   -0.0367058872
 O    2.6892810729   -5.3179355301   -0.0524063193
 H    1.0251405608    1.8512588638    0.0012299263
 H   -0.5237065661    1.8397551218   -0.8660635220
 H   -0.5048102265    1.8303794199    0.9012409669
 H    0.7982448214   -5.1481329327    0.8461587742
 H    0.7806305739   -5.1390326959   -0.9110954382
 H    2.6453143391   -6.2783989065   -0.0574970545