23

 C   -0.2191805761    1.4967860703   -0.4082986974
 C   -0.2289445911   -0.0197405014   -0.1929774637
 C   -1.5935070364   -0.5768978606    0.2714702505
 C   -2.0056729336   -0.0393851244    1.6379534126
 O   -2.6318765416   -0.2310705627   -0.6543431554
 C   -2.6248321828   -1.1512266585   -1.7465297478
 C   -1.9170045073   -2.4327557458   -1.2539631002
 C   -1.6159946099   -2.1239720969    0.2273357207
 O   -0.3972544812   -2.6543974116    0.7163330135
 H    0.7202546040    1.8128996672   -0.8720330401
 H   -1.0429863689    1.7988493499   -1.0611240710
 H   -0.3186101776    2.0465770767    0.5324912053
 H    0.0517752534   -0.5144685750   -1.1301684247
 H    0.5322337102   -0.3141294815    0.5357739336
 H   -2.0441509860    1.0521520129    1.6451970092
 H   -2.9991639921   -0.4128653509    1.9018389904
 H   -1.2919260792   -0.3691060596    2.3989807850
 H   -3.6671035893   -1.3232528336   -2.0330900508
 H   -2.1080185460   -0.7186100278   -2.6142831361
 H   -2.5372318841   -3.3245919042   -1.3753416962
 H   -0.9749989639   -2.6063547513   -1.7814335879
 H   -2.4557660028   -2.4623789239    0.8519261198
 H   -0.4791540675   -3.6115999970    0.7569717806