19

 C    0.0541750108    1.5009218214    0.1829275552
 C    0.0308204683    0.0478211471    0.0941349482
 C    0.0210217109   -1.1556188806    0.0207245822
 C    0.0152570682   -2.5866003492   -0.0778665995
 C   -0.4785566893   -3.4362288194    1.0831523205
 C   -1.2958783967   -3.3630288955   -0.1783510718
 C   -2.6276521182   -2.6410932419   -0.2082765592
 C   -3.7337815191   -3.4702002813    0.4090535160
 O   -4.7963005866   -3.6987440856   -0.1091235182
 H    1.0623397444    1.8900362929    0.0019976217
 H   -0.6140550219    1.9598425057   -0.5543177011
 H   -0.2585632993    1.8459867900    1.1747622632
 H    0.8381715076   -3.0066581620   -0.6492134784
 H    0.0596167297   -4.3503604955    1.3064289215
 H   -0.8387849699   -2.9002127728    1.9542593834
 H   -1.2473137001   -4.2369227838   -0.8220848044
 H   -2.5415032321   -1.7112618910    0.3710854710
 H   -2.9202628012   -2.3700667125   -1.2269938089
 H   -3.4895915255   -3.8741301659    1.4192195487