22

 C    0.3159508269    1.7121615565   -0.4927754632
 N    0.0657852569    0.3014556987   -0.2294954984
 C    1.2015462292   -0.5506409879    0.0778140200
 C    0.1933638290   -0.2268531476    1.1339168360
 C    0.5884198599    0.6325408449    2.2886937898
 O   -0.4693483540    1.2258578124    3.0627859150
 C    0.3920669650    0.2752003875    3.7101387914
 C   -0.2666126392   -1.0197495756    4.1373424489
 C    1.3244856428    0.8786057839    4.7411368833
 H    1.2111289339    2.1224969710   -0.0005988420
 H    0.4402538588    1.8444440047   -1.5722364484
 H   -0.5507741568    2.2978921587   -0.1725652765
 H    1.2169912820   -1.5315393347   -0.3904792238
 H    2.1810826604   -0.0800378681    0.1734012992
 H   -0.5672318319   -0.9679705490    1.3621418886
 H    1.4094273961    1.3204435334    2.0823409366
 H   -1.0105556681   -1.3559158432    3.4143848484
 H    0.4797942445   -1.8105628571    4.2686657515
 H   -0.7738565498   -0.8783607673    5.0979981302
 H    0.7809244154    1.0848961766    5.6697655980
 H    2.1429221604    0.1902985170    4.9785119060
 H    1.7507840084    1.8176998550    4.3801407194