21

 C   -0.0347621962    1.5212029474    0.0316611342
 C   -0.0003104392    0.0247623863   -0.0354275811
 C   -0.0028036339   -0.7060160588   -1.1576316249
 C    0.0345319058   -2.1812336894   -1.0265006719
 C   -0.6826079897   -2.8113985779    0.1701675482
 C   -1.1443601294   -1.8031684885    1.2080354977
 C    0.0416874674   -0.7959778227    1.2375249122
 C    1.2724068820   -1.7457743275    1.1652766342
 C    0.8226082193   -2.7756583880    0.1435464802
 H    0.8434611469    1.9189397248    0.5576060812
 H   -0.0621448643    1.9680841689   -0.9663387523
 H   -0.9127922767    1.8771935728    0.5870391415
 H   -0.0309105889   -0.2567778935   -2.1461950704
 H    0.0321430471   -2.7619874378   -1.9417182757
 H   -1.2430125527   -3.7256451533    0.0133098106
 H   -2.0917565871   -1.3162492304    0.9555201347
 H   -1.2581448709   -2.2920875332    2.1825830171
 H    0.0425941347   -0.1681497017    2.1312577220
 H    2.1861114299   -1.2146621458    0.8798312882
 H    1.4436384720   -2.2279204314    2.1347842459
 H    1.4198756838   -3.6624115802   -0.0337806119