13

 C   -0.2137420278   -1.0362292259   -0.6663812422
 C   -0.0512437624    0.0391203342   -0.1577694034
 C    0.1417773168    1.3437519381    0.4621809913
 C    1.4256309270    2.0047067245    0.0576220988
 C    2.4522519709    1.6566293818   -0.7617247029
 C    3.3332735226    2.7672094963   -0.6676604323
 N    2.8808482898    3.6987308856    0.1335822430
 O    1.6582908191    3.2124835743    0.5997595746
 H   -0.3633578807   -1.9880961098   -1.1130294468
 H   -0.6956949061    2.0076276355    0.2087478991
 H    0.1206253169    1.2466104450    1.5560114694
 H    2.5574533191    0.7531601568   -1.3366064789
 H    4.2843824247    2.9186527537   -1.1586563198