23

 C    0.4042029550    0.0516622662    1.8199335444
 C   -0.0941582196    0.3748081373    0.4085553662
 C   -1.3250638945   -0.4613644395   -0.0594440294
 C   -1.8606594616    0.1300521166   -1.3426610150
 C   -1.5762888995   -0.2115630567   -2.5977975949
 C   -0.6740745268   -1.3383038367   -3.0349762274
 C   -1.0697449158   -2.7132342813   -2.4753492028
 C   -0.9645507156   -2.8643405428   -0.9810181508
 C   -1.0524225454   -1.9463299244   -0.0168727059
 H    1.2109739332    0.7323824188    2.1095913697
 H   -0.3986674051    0.1566618295    2.5589390807
 H    0.7927059058   -0.9683628451    1.8911106220
 H   -0.3713271936    1.4349008141    0.3577164444
 H    0.7157964452    0.2332405890   -0.3163273767
 H   -2.0981325848   -0.2915122881    0.7070202324
 H   -2.5150405151    0.9873195448   -1.1907057525
 H   -2.0331132841    0.3727845173   -3.3938470262
 H   -0.6698346240   -1.3934302741   -4.1287184070
 H    0.3619378789   -1.1278290373   -2.7373733454
 H   -2.0942781851   -2.9522398101   -2.7958551030
 H   -0.4337413046   -3.4777001486   -2.9402878286
 H   -0.7970407238   -3.8895584728   -0.6526229742
 H   -0.9327389290   -2.3168314461    1.0000258201