16

 C   -0.3150442675    1.5512474079    0.2134107863
 C   -0.1123207505    0.0638338528    0.0888339924
 N   -0.0990098524   -0.4385031210   -1.1510672565
 C    0.0787169298   -1.7558815399   -1.3014871253
 C    0.0822370373   -2.2438507279   -2.7101847392
 O    0.2296532164   -3.3998962135   -3.0277600273
 C    0.2521466250   -2.6442222044   -0.2393828004
 C    0.2384455352   -2.1239091208    1.0468182714
 C    0.0541499526   -0.7545719203    1.2128053402
 H    0.4743299350    2.0884620552   -0.3215962379
 H   -1.2658859642    1.8446388450   -0.2423894483
 H   -0.3128701768    1.8748389138    1.2568314391
 H   -0.0656629478   -1.4327749120   -3.4530409964
 H    0.3903140991   -3.6982333952   -0.4471587974
 H    0.3686374781   -2.7694429516    1.9091860146
 H    0.0384107607   -0.3163853580    2.2048977248