18

 C   -0.1542880384    1.5427449035    0.0261171939
 C   -0.0083189940    0.0153653119    0.0124999988
 C   -1.3104825274   -0.5805650490    0.3018157345
 N   -2.3574634237   -1.0202445459    0.5197935262
 C    0.8061072690   -0.6146204432   -1.1946862794
 C    2.1007382452   -0.2192717093   -0.4163775222
 C    1.2111374936   -0.6197070016    0.7823311956
 O    1.0230512235   -2.0218460298    0.5957149189
 C    0.7405377478   -2.1013806488   -0.8285173840
 H    0.7852696948    2.0540682725   -0.1847239706
 H   -0.8868286411    1.8577528046   -0.7227057991
 H   -0.5133451865    1.8800540243    1.0027676808
 H    0.6106294299   -0.3257868324   -2.2261564980
 H    2.9842408254   -0.8397901463   -0.5756544156
 H    2.3610561022    0.8346113842   -0.4751590901
 H    1.4287486214   -0.4026475063    1.8264859701
 H   -0.2409002447   -2.5581694849   -0.9839866742
 H    1.5075528334   -2.6993945134   -1.3319318056