16

 O    0.0333065309   -0.0882923800   -0.1714396041
 C    0.0374206202    1.1151284560   -0.0078483734
 N   -1.1670500469    1.8026150469    0.0663845231
 C   -1.4942972581    3.1606448315    0.1430314109
 N   -0.8548880912    4.2050960913   -0.1641241446
 C    0.4627956178    4.1937499934   -0.7669785973
 C    1.5281033532    3.3038906641   -0.1457209700
 N    1.3622857994    2.8928157131    1.2403480610
 C    1.3169503162    1.8637041866    0.1747310254
 H   -1.9496551816    1.1626197609    0.1099925795
 H   -2.5150458740    3.2850706913    0.5109453422
 H    0.3724387228    3.9255882987   -1.8313885599
 H    0.8346181398    5.2247155528   -0.7449578555
 H    2.5347084634    3.5463327817   -0.4872980388
 H    2.2522805965    2.8445593584    1.7278224584
 H    2.1637927515    1.1934760432    0.0654237132