20

 C   -0.0063038903    1.3692090362    0.0616136260
 O   -0.0673564334   -0.0253549266    0.2494602657
 C   -1.3398671406   -0.6063952216   -0.0036300096
 C   -1.5953118797   -0.8025133123   -1.4985043477
 C   -1.3636845495   -1.9317248514    0.7571936372
 N   -0.2869225587   -2.8915458455    0.3741721524
 C    0.3107667934   -2.8947031372    1.7402315413
 C   -0.7556026677   -1.8789780513    2.1771111800
 O   -1.0360860594   -1.3206533455    3.1932115171
 H    0.9925577774    1.6896576034    0.3677220039
 H   -0.1573635314    1.6612752546   -0.9878541956
 H   -0.7511129178    1.8951516774    0.6786693407
 H   -2.1248262642    0.0327250791    0.4348670756
 H   -0.8445140154   -1.4828187022   -1.9089599845
 H   -2.5906332011   -1.2266386603   -1.6684711778
 H   -1.5433592406    0.1464096435   -2.0393441010
 H   -2.3815632654   -2.3440326528    0.7394454853
 H   -0.6507477695   -3.7983749069    0.1086654512
 H    0.2645243615   -3.8443700122    2.2879187440
 H    1.3395443124   -2.5196048184    1.7662317459