16

 C    0.2719567662    1.5085870582    0.0124203612
 C    0.1255871104    0.0076750544    0.0571029122
 O    0.6709515316   -0.5856309920   -1.1112958494
 C    1.1038210333   -1.8703227764   -0.7352351468
 C    2.4579749921   -1.9414869668   -0.0361622532
 O    3.3337893015   -0.8714945615   -0.0268160714
 C    1.1800601990   -1.8680034388    0.7717387083
 O    0.8692468724   -0.5413577499    1.1507815928
 H    1.3215312665    1.7766321708   -0.1322051571
 H   -0.3113064090    1.9111481384   -0.8192745830
 H   -0.0920695525    1.9480988326    0.9441827320
 H   -0.9294051408   -0.2979577080    0.1660448927
 H    0.7151419379   -2.6903769933   -1.3298687535
 H    2.9663792797   -2.9012286747   -0.0802688728
 H    2.9129995257   -0.1845548509    0.5082475015
 H    0.8186774860   -2.6441413119    1.4378854466