21

 C   -0.1055805667    1.5215584239    0.0030325966
 C    0.0245185996    0.0254024676    0.0417932537
 C   -0.8225587645   -0.8467039306    0.9317892938
 C    0.6722612764   -0.8957782164    1.0850153833
 C    1.2717458863   -1.7756348791   -0.0168476861
 C    0.6546222052   -0.8118730121   -1.0883330104
 C   -0.2598521008   -1.3878437369   -2.1792558881
 C    0.5276935247   -2.1905301718   -3.1879254632
 O    0.3816186926   -3.3657960035   -3.4064512018
 H    0.8315810813    1.9972987613   -0.3095100770
 H   -0.8877359863    1.8390092703   -0.6980747727
 H   -0.3701212561    1.9205608712    0.9878031361
 H   -1.3541038152   -0.3097559132    1.7116369163
 H   -1.3641021797   -1.7085352187    0.5478658125
 H    1.1627732875   -0.6270838533    2.0132136380
 H    2.3634698649   -1.7839620133   -0.0382416203
 H    0.9163478845   -2.8115259344   -0.0405543871
 H    1.4545465811   -0.2325348851   -1.5642266476
 H   -1.0402542603   -2.0276012422   -1.7588976579
 H   -0.7408868807   -0.5557326737   -2.7139056764
 H    1.3045783060   -1.6018262301   -3.7328706616