19

 C    0.2992435628    1.5966324783    0.4468312600
 C    1.5403737572    1.5939176760   -0.5023827450
 C    1.4508799733    0.0725097189   -0.4649860637
 O    1.9719811969   -0.8890993648   -1.3551043733
 C    2.4120699985   -0.9173862941    0.0211468291
 C    1.9297164612   -2.0621224093    0.8907826554
 C    0.5134188074   -1.9108509238    1.3953962051
 C   -0.3336933964   -0.9431340144    1.0426119975
 C    0.0153913372    0.1041956806    0.0366256168
 H    0.5861351374    1.6762549201    1.4976388110
 H   -0.4864193807    2.3219108071    0.2313179415
 H    1.2942591228    1.9879743553   -1.4931275637
 H    2.4611606480    2.0640364981   -0.1500903466
 H    3.4553616445   -0.6266674652    0.1411079778
 H    2.0364456040   -3.0087024182    0.3420950823
 H    2.6037042473   -2.1499463271    1.7539468035
 H    0.1912537137   -2.6664789110    2.1083260822
 H   -1.3326398272   -0.9197436453    1.4723665721
 H   -0.6934394778    0.0914706788   -0.8013215218