15

 O    0.4549513409    0.2967184262   -0.9392238878
 C    0.2089345177    1.3217170823   -0.3438105789
 C    1.2641592000    1.9551956035    0.4823670129
 N    2.0911616200    2.4528793757    1.1194502327
 C   -1.0629238517    2.0847285390   -0.3400060131
 C   -1.8503745334    2.3840117292   -1.5837915211
 C   -1.8284926802    1.2546786215   -2.6089631836
 C   -2.3918630847    0.3612803069   -1.4755467562
 N   -2.4319911975    1.5252126035   -0.5063089286
 H   -1.0743670632    2.8841207143    0.3952279905
 H   -2.1807541018    3.4045224698   -1.7534988189
 H   -2.5343503305    1.4212262367   -3.4241391579
 H   -0.8553412020    0.9834357552   -3.0210225584
 H   -3.4210536009    0.0398872189   -1.6426633042
 H   -1.7866715527   -0.4814766827   -1.1473025675