20

 C   -0.2881764080    1.5178441023    0.4073101466
 C   -0.1904535126    0.0151234126    0.3815771413
 O    0.9557527545   -0.5528551772   -0.2712912130
 C    0.8054205066   -0.7737008176    1.1290753141
 C    1.8429907818   -0.1986083753    2.0939044798
 C    1.7027131159   -1.0771004563    3.3241348342
 C    0.3326827611   -1.2990258283    3.8541387738
 N    0.9590072458   -2.3184170822    2.9992486783
 C    0.5575795525   -2.2171555147    1.5890709429
 H    0.6781934213    1.9765571067    0.6281605521
 H   -0.6253620769    1.8916372424   -0.5650866383
 H   -1.0140598028    1.8443991524    1.1604353627
 H   -1.1244836811   -0.4954108732    0.1333676316
 H    2.8415346500   -0.3072877611    1.6557189277
 H    1.6909582679    0.8624215782    2.3090459709
 H    2.5605562771   -1.1908700894    3.9801821930
 H    0.1916547659   -1.6007619104    4.8878135668
 H   -0.4793521098   -0.7008443382    3.4442461015
 H   -0.4810497458   -2.5358751173    1.4572688949
 H    1.1923704566   -2.8896223235    1.0004064792