17

 C   -0.0700603425    1.4047187152    0.0070545254
 C    1.2330501618    0.6975260292    0.0280883016
 N   -0.0260185510   -0.0821240110    0.1070383923
 C   -0.0811231844   -0.6633046775   -1.1962220345
 N    0.8987495174   -0.4975723202   -1.9914652496
 C    1.8856728325    0.3432673542   -1.3035114912
 C    2.5290932884    1.4593935867   -2.1632159739
 O    3.8475313440    0.9073782854   -1.9886231360
 C    3.3270390822   -0.2233880267   -1.2660588738
 H   -0.4270293231    1.9049482250    0.9014857044
 H   -0.4162131176    1.8267347011   -0.9328893628
 H    1.8389966044    0.7207334793    0.9280822167
 H   -0.9615168746   -1.2454891759   -1.4522054466
 H    2.2049200745    1.4467588281   -3.2099918857
 H    2.4464907490    2.4761250156   -1.7596675346
 H    3.7743668298   -0.3206319909   -0.2684135865
 H    3.4420673090   -1.1634622877   -1.8171389452