19

 C   -0.0543034926    1.5327235489    0.0303726248
 C    1.4368405527    1.8361495372   -0.0603250268
 C    2.1876623963    0.8199672586    0.3788653477
 C    1.2808895361   -0.2578999297    0.9069244394
 O    1.6613654611   -1.6157811099    0.7810916159
 C    0.5873641662   -2.4018490620    1.2943225996
 C   -0.7594520133   -2.0868143661    0.6188190701
 O   -1.0856938769   -0.6975237903    0.6551505285
 C    0.0068242216    0.0046939983    0.1041993535
 H   -0.4940024494    1.9505058878    0.9471098882
 H   -0.6343353627    1.9139483081   -0.8148064991
 H    1.8167197604    2.7865987596   -0.4168874549
 H    3.2682800016    0.7928450879    0.4442167054
 H    1.0658534365   -0.0592061384    1.9758967282
 H    0.8488071508   -3.4503791905    1.1244005639
 H    0.4950357909   -2.2354774298    2.3802147395
 H   -0.7279202914   -2.4288501076   -0.4283299504
 H   -1.5650725397   -2.6178128311    1.1343463354
 H    0.2058969618   -0.3743587711   -0.9131660888