16

 C    0.0743395188    1.3975889842    0.0562860239
 N   -0.0802930387   -0.0390391428    0.0729695326
 C   -1.2839346307   -0.6513997707   -0.0884306850
 O   -2.3446044324   -0.0663050154   -0.2613869108
 C   -1.2035863801   -2.1307159117   -0.0360804749
 C   -2.2527750999   -3.0044576675   -0.1674276897
 N   -1.6975675309   -4.2531467014   -0.0511141809
 C   -0.3544957325   -4.0901565301    0.1431613008
 N   -0.0238724160   -2.8226255033    0.1574074102
 H    0.7378792947    1.7211694617   -0.7543605621
 H   -0.9149448913    1.8301635534   -0.1007745946
 H    0.4797008610    1.7693350472    1.0047628659
 H    0.7169729224   -0.6425675879    0.2072136078
 H   -3.3037077616   -2.8386110569   -0.3274692397
 H   -2.1911905373   -5.1289462943   -0.1001952579
 H    0.3168908545   -4.9268367343    0.2653961444