16

 O   -0.5627509206    1.3912714604   -0.7317064055
 C    0.0120797829    0.2705670759   -0.0730802417
 C   -1.0262335955   -0.7820534089    0.3781502495
 C   -1.0995649760   -1.7651622545   -0.8110880238
 O   -2.1091644637   -1.2686246640   -1.7008855764
 C    0.2890756652   -1.6422488222   -1.4277868115
 C    0.8902758104   -0.5266805413   -1.0203707561
 C   -1.4255819288   -3.1467168143   -0.4118668968
 N   -1.6752147474   -4.2388803022   -0.1279514838
 H   -1.1040557665    1.0414890351   -1.4510785961
 H    0.5626337808    0.6870913167    0.7745269404
 H   -0.6716274706   -1.3098602210    1.2664923535
 H   -2.0025098900   -0.3437491737    0.5896462848
 H   -2.0809399217   -1.7831238943   -2.5165761068
 H    0.6589199235   -2.3602264049   -2.1505924335
 H    1.8449925080   -0.1568802767   -1.3756216361