14

 C    0.2369000633    1.4311486426    0.0949913783
 O    0.2724071223   -0.0029447599    0.1097277065
 C    0.3517211412   -0.5886779349   -1.0959126668
 O    0.4045736859    0.0136746336   -2.1438028328
 C    0.3719862397   -2.0745675339   -0.9811903487
 C   -0.4849249751   -2.8224543013   -1.9532467185
 N    0.9648375399   -2.8174050643   -2.1036864084
 H    1.1362498469    1.8323253321   -0.3783793091
 H   -0.6385368016    1.7883509215   -0.4529708168
 H    0.1848683308    1.7364525551    1.1398016102
 H    0.5514734258   -2.4766700064    0.0091615232
 H   -0.9196516003   -3.7675902943   -1.6419877213
 H   -1.0818410407   -2.2288534233   -2.6393127893
 H    1.2156838120   -2.1330874067   -2.8173889565