16

 C   -0.1967701619    1.5470310986   -0.0736084973
 C    0.0605692844    0.0395522612    0.0189616685
 N    0.7899750095   -0.4122864967   -1.1549589895
 C    1.8985511433   -1.0266401331   -1.0219933336
 C    2.6066008983   -1.4567359453   -2.2304530207
 N    3.7180546713   -2.0899863923   -2.2702276728
 O    4.2874587525   -2.3820669591   -1.0030082295
 C    3.6367307743   -1.9762821123    0.1024953480
 N    2.5340734332   -1.3480126250    0.1931639952
 H    0.7445176214    2.1044260197   -0.0426041623
 H   -0.7074164031    1.7955682918   -1.0080608788
 H   -0.8175139324    1.8785509777    0.7643720277
 H    0.5701435270   -0.2085560655    0.9567579719
 H   -0.9045465884   -0.4846515439    0.0141867916
 H    2.1691420097   -1.2318305650   -3.1992747711
 H    4.2040198609   -2.2684621109    0.9846829126