17

 C   -0.0075723373    1.5131939109   -0.0322040207
 C   -0.0335168142    0.0091401489    0.0571036230
 C   -1.2899238356   -0.7410784156   -0.3949402740
 C   -1.2047640249   -2.1386351340    0.2536675491
 C   -0.2270670262   -1.9757106731    1.4326640198
 O   -0.1854901135   -2.6739980108    2.4146043457
 C    0.6082022091   -0.7587877012    1.1784197560
 N    1.2332161641   -0.6769441240   -0.1659402915
 H    0.9550099777    1.9013125376    0.3084652264
 H   -0.1543951870    1.8385814490   -1.0685332018
 H   -0.8035339773    1.9557005353    0.5757414988
 H   -2.1758868480   -0.2081941942   -0.0332792358
 H   -1.3617595929   -0.7739027808   -1.4877532584
 H   -2.1616487803   -2.5068157137    0.6280511529
 H   -0.8274732582   -2.9051020631   -0.4331766418
 H    1.1675496012   -0.3153300349    1.9944785381
 H    1.1165943033   -1.5487205664   -0.6790031558