17

 N   -0.2070186568    1.4279394885    0.1091484888
 C   -0.0989111795    0.0299304081   -0.0838845106
 C   -0.2713528725   -0.9304552328    1.1014402947
 C   -1.1959530114   -1.0450064561   -0.0681922090
 C   -2.6826514028   -0.8732130109   -0.0528293942
 O   -3.3795645647   -2.0480483869    0.3451559642
 N   -0.5220816994   -1.7282294128   -1.1874429623
 C    0.5326674935   -0.7772048342   -1.2154895300
 O    1.5042411198   -0.6904393824   -1.9101677010
 H    0.6155686632    1.8003099222    0.5723311929
 H   -0.3078912165    1.9163963846   -0.7743551065
 H    0.4683859155   -1.7007758174    1.2980816365
 H   -0.6737216285   -0.4417900855    1.9843451420
 H   -2.9410720996   -0.1003405183    0.6771337418
 H   -3.0171773004   -0.5292579156   -1.0419932329
 H   -3.3079445759   -2.6849342284   -0.3730086212
 H   -0.3124457939   -2.7213552123   -1.1627932830