18

 C    0.0218799907    1.5041524227    0.0066069555
 N    0.0437762352    0.0362114133   -0.0013191770
 C   -1.1106229041   -0.7504715700    0.5951361065
 C   -0.1396500966   -1.9632985557    0.5761488681
 C    0.6392217100   -0.7523999775    1.1575467542
 C    2.0258340436   -0.6481009704    1.5294003991
 N    3.1237994854   -0.5270540846    1.8738934995
 C   -0.6420246267   -0.4836603816    2.0675855577
 N   -0.9043775195    0.7347399616    2.7738067837
 H    0.9613022491    1.8932579248    0.4152641605
 H   -0.0444950130    1.8482731859   -1.0308594130
 H   -0.8192716255    1.9522906048    0.5493766466
 H   -2.1157737626   -0.6907073552    0.1785488704
 H   -0.3440182649   -2.7930166061    1.2526209529
 H    0.1879358815   -2.2684421954   -0.4148193836
 H   -0.8677763521   -1.3144612375    2.7432117186
 H   -0.6359930009    0.6422107754    3.7463455853
 H   -0.4221729995    1.5390084156    2.3994263151