17

 C   -0.0877118870    1.4985774931    0.0415824847
 C   -0.0177841687    0.0014573614    0.0331272000
 C    0.0073965263   -0.7969788150   -1.0886092974
 N   -0.0195219104   -0.5417913991   -2.4785228847
 N    0.0735645215   -2.1162913010   -0.6668110174
 C    0.0911319067   -2.1811809843    0.6836154571
 C    0.0356174646   -0.8809940300    1.1681176445
 C    0.0343289709   -0.5276541202    2.5791508790
 O    0.0813987116   -1.3213066271    3.4984383371
 H    0.7769652248    1.9481845018    0.5426706381
 H   -0.1137076948    1.8868990213   -0.9813095113
 H   -0.9828500877    1.8659673220    0.5560952838
 H    0.7711851548    0.0162389613   -2.7822905302
 H   -0.8639948418   -0.0579260705   -2.7641832941
 H    0.1027722271   -2.8910122082   -1.3090736345
 H    0.1404898464   -3.1130270924    1.2222426354
 H   -0.0144273443    0.5661919470    2.7835907797