19

 C   -0.4604642991    1.3746772264   -0.0912912828
 C    0.0950355616   -0.0406782965   -0.0879182023
 C    1.5161726185   -0.2974602124   -0.6309744294
 O    1.8978168256   -1.0141560859    0.5668244284
 C    0.6543654296   -0.6742834715    1.2325485722
 C    0.9285636961    0.2467294051    2.4227086090
 N    1.7474714105   -0.4738889378    3.3880546714
 C   -0.0675383424   -1.8838141527    1.6578072339
 N   -0.6915387469   -2.8161343040    1.9346519897
 H    0.2483174909    2.1011584644    0.3156263233
 H   -0.6928365626    1.6789727394   -1.1171652620
 H   -1.3877495983    1.4394429531    0.4866772077
 H   -0.6283859133   -0.7205963766   -0.5420217638
 H    1.5969774400   -0.9270091706   -1.5225688699
 H    2.1235110286    0.6059956209   -0.7706926358
 H    1.3869804071    1.1693777609    2.0318984291
 H   -0.0228754703    0.5228174677    2.8918796026
 H    2.6415391363   -0.6995081004    2.9628475046
 H    1.9341591782    0.1040302805    4.1997414940