21

 C   -0.0509472711    1.4563241372   -0.0736457153
 C    0.0003098703   -0.0452841772    0.0088543024
 C    0.5061862354   -1.0388407801   -1.0824011871
 C    0.0602769027   -1.9310650049    0.1167593865
 C    0.7886521882   -0.9105892426    1.0430377865
 C   -1.1981000853   -1.0227150091    0.2268452807
 C    0.1200995385   -3.4159835556    0.1933634592
 C   -0.8924412395   -4.2110302450    0.9018090731
 O   -0.8910855525   -4.1363509490   -0.5237825583
 H    0.9481457749    1.8766372027   -0.2336757952
 H   -0.6886615929    1.7833566574   -0.9023025817
 H   -0.4525404222    1.8889609323    0.8494045880
 H   -0.0924769707   -1.1174164238   -1.9942118817
 H    1.5775628636   -1.0171250611   -1.3050701449
 H    1.8806666138   -0.8786451855    0.9770402584
 H    0.4494853791   -0.8656540344    2.0826482238
 H   -1.6888628382   -0.9781075573    1.2042694918
 H   -1.9256637275   -1.0998683386   -0.5853001457
 H    1.1191920184   -3.8457582344    0.0933381410
 H   -0.6210262744   -5.1788862786    1.3217761592
 H   -1.7218612104   -3.7059574424    1.3942571992