17

 C    0.0140349325   -1.2688291379    0.0145568679
 C    0.0413434066   -0.0700489468   -0.0546420387
 C    0.0829923506    1.3861758846   -0.1263901703
 C    1.4773106854    1.9489110257   -0.0167513973
 O    2.4350132802    1.6922737010   -1.0880301722
 C    3.1612244888    2.5154307505   -0.1286262643
 C    1.9443726959    3.4268053996    0.2181573116
 C    2.1229193834    3.1991542292    1.7348732945
 C    2.5374218411    1.8401422892    1.1301851242
 H   -0.0097287400   -2.3290565698    0.0656370435
 H   -0.3542351091    1.7311214743   -1.0719599475
 H   -0.5259885902    1.8200374626    0.6775584829
 H    4.1955528929    2.7809295379   -0.3421073764
 H    1.6128816823    4.3088409931   -0.3302430981
 H    2.9130054282    3.7759877852    2.2228435275
 H    1.2154077484    3.2100255516    2.3449894987
 H    2.8728509830    0.9230839501    1.6128487241