16

 O    0.0542392173   -0.0396926500   -0.4901696310
 C    0.0642329237    1.0536605972   -0.0062319419
 O   -1.0998180090    1.4641671087    0.6321236404
 C   -1.3536436074    2.6652856907    1.2654929339
 N   -0.6594236197    3.6957857933    1.4512257849
 C    0.7012914969    3.8311871698    0.9772601848
 C    0.8703217455    3.4344749159   -0.5169270371
 C    1.2382590125    1.9929300171   -0.0503591150
 C    1.5975943400    2.6116277365    1.3349649599
 H   -2.3726347350    2.6137523559    1.6423522033
 H    1.0688580137    4.8153840733    1.2702307168
 H    0.0072000468    3.5693264978   -1.1712593070
 H    1.7427727998    3.9177053718   -0.9617866711
 H    2.0289115734    1.4754643871   -0.5908560005
 H    2.6542356019    2.8864208626    1.3590009155
 H    1.3465068295    2.0540563523    2.2390585242