21

 C   -1.1588422872    1.3840729478    0.1453553582
 C   -1.1202480479    0.0176075315   -0.5519214255
 C    0.2037536732   -0.2274267328   -1.2465601353
 O    1.3725804204   -0.3700636599   -0.4162132415
 C    0.9513924179   -1.5103237568   -1.1609172438
 C    0.4910093166   -2.7280588569   -0.4019134952
 C    0.4224900853    0.5944330153   -2.5068684541
 C    1.8415720961    1.0099802916   -2.8357880130
 O   -0.5233350818    0.9113826633   -3.1940885709
 H   -0.3561130927    1.4638884988    0.8846107003
 H   -1.0441974074    2.1988621214   -0.5760457930
 H   -2.1128270527    1.5281259781    0.6603468866
 H   -1.3116882280   -0.7725985844    0.1772536684
 H   -1.9033758349   -0.0360835664   -1.3138919391
 H    1.6076346452   -1.7446512202   -2.0027582080
 H   -0.1134761603   -2.4665526605    0.4674541045
 H   -0.0922624289   -3.3852694502   -1.0553900418
 H    1.3612627751   -3.2923807194   -0.0506092473
 H    2.5333035380    0.1633416734   -2.8210986026
 H    1.8551375942    1.4927427641   -3.8133801014
 H    2.1984821000    1.7072340721   -2.0700133054