18

 O    0.1269744795    1.4390290541    0.1590195767
 C    0.0463931978    0.0235359200    0.1438630932
 C   -1.3624975396   -0.4801791497   -0.2010477729
 C   -1.4356175155   -1.9729658570   -0.2716171770
 C   -0.8667236514   -2.9235686941   -1.3466591584
 C   -2.0022368566   -3.9432562419   -0.9822798301
 C   -2.4916438436   -2.9436477316    0.0733540210
 O   -1.3953985759   -2.7063640823    0.9672301962
 H   -0.4105975941    1.7559456616    0.8918310214
 H    0.7588055450   -0.3052310249   -0.6203959970
 H    0.3686163185   -0.4138211518    1.1001325905
 H   -2.0705227617   -0.1297395255    0.5606478415
 H   -1.6675883173   -0.0444007699   -1.1596438300
 H   -0.9644602106   -2.5338522732   -2.3630364602
 H    0.1619868414   -3.2502965188   -1.1782419386
 H   -2.7108965339   -4.0911661351   -1.8005788535
 H   -1.6893364482   -4.9133393847   -0.5894306061
 H   -3.4902621339   -2.7961350553    0.4706136433