18

 O   -0.0069600951    1.3978720201   -0.0963879377
 C    0.0456930760   -0.0159256655   -0.0042382139
 C    0.6496286458   -0.5500111638    1.3116299731
 C    0.0588483273   -1.9652748501    1.4686577517
 C   -1.3836794385   -1.8234166527    0.9333022414
 C   -1.3907998782   -0.5761608654   -0.0051184527
 N   -1.7720256843   -1.4829956509   -1.0931490738
 C   -1.7540023077   -2.6339605158   -0.3386249362
 O   -1.9392612963   -3.7902829408   -0.6065218809
 H    0.8920063872    1.7365066853   -0.0405452481
 H    0.5902798444   -0.4420330343   -0.8613280252
 H    1.7446795582   -0.5330991323    1.3206937170
 H    0.2993243515    0.0994369400    2.1236201580
 H    0.6194088271   -2.6891371107    0.8674592440
 H    0.0911690250   -2.3183743537    2.5015910468
 H   -2.1497050559   -1.8465927558    1.7090819183
 H   -2.1146914369    0.2173792920    0.1967812298
 H   -1.8918750695   -1.3359043156   -2.0848630416