15

 N    0.0394872015    1.3732819299    0.1325877721
 C    0.0128438864    0.0150294963    0.0415791445
 N   -1.1282090478   -0.6516344261    0.0231078836
 H   -2.0181393483   -0.1766788513    0.0611702023
 C   -1.2490613336   -2.1437148652   -0.0089893872
 O   -2.3987368567   -2.5493425865   -0.0136273899
 C   -0.0086542305   -2.7854233663   -0.0295036587
 C    1.2379992746   -2.1129524843   -0.0167398581
 N    2.4660169677   -2.5037087121   -0.0286508420
 N    1.1444415081   -0.6731569540    0.0150535408
 H    0.8966170983    1.8471630245   -0.1036795724
 H   -0.8013094121    1.8757534313   -0.1011176836
 H   -0.0112911971   -3.8661932579   -0.0553105459
 H    2.5069045941   -3.5202151523   -0.0516721180
 H    2.0456851652   -0.2172003960    0.0428861625