17

 C    0.0400455673    1.6707683458    0.0634089359
 C    0.0255707497    0.1616772391    0.0378358168
 C    1.2666067304   -0.6689859582   -0.2353253330
 O    2.5060757377   -0.0026106272   -0.0980414043
 C    2.8174791222   -0.0512281114    1.2882105506
 O    1.5744507672   -0.0284992669    1.9776007480
 C    0.6542210666   -0.6861423945    1.1290644093
 C    3.6092426334   -1.2441939453    1.6286560431
 C    4.2678845192   -2.2080405718    1.9122004162
 H    0.9703924561    2.0516582488    0.4863718720
 H   -0.0620812572    2.0747624731   -0.9487573329
 H   -0.7883755820    2.0543083322    0.6673541004
 H   -0.8791214144   -0.2825211892   -0.3738799978
 H    1.2731807956   -1.5057579026   -0.9244280659
 H    3.3642642336    0.8611635807    1.5450120665
 H    0.1517905998   -1.5371384002    1.5745468489
 H    4.8500553649   -3.0606203225    2.1628800763