14

 N   -0.0668510163    1.2619397855    0.5232537748
 C   -0.0216267266    0.0653142961    0.1502428737
 C   -1.1883565307   -0.8064597637   -0.2451701274
 C   -0.6101564596   -2.2340430462   -0.1676712942
 C   -1.1081352607   -3.1790521253   -1.1500042805
 C   -1.5388450359   -3.9422963121   -1.9701950833
 C    0.9103740519   -1.9937832473   -0.2555027741
 O    1.7828242603   -2.7682527364   -0.4759954000
 O    1.1558107298   -0.6645463042    0.0201636572
 H    0.8668815540    1.6280319234    0.7152866488
 H   -2.0483277797   -0.6340806587    0.4008530469
 H   -1.4832767802   -0.5699754586   -1.2718920936
 H   -0.7724035296   -2.6396024357    0.8413318425
 H   -1.9081973367   -4.6260781268   -2.6943559307