19

 C    0.0508577307    1.5926060992    0.0237505946
 C    0.0841673250    0.0722909155    0.0120523163
 C    0.7561280355   -0.6884330106   -1.1353985087
 C    2.2623736803   -0.8021145184   -0.7216565933
 C    3.4186327376   -0.8770297079   -1.6576588039
 O    2.3982012159   -0.1054436712    0.5202506444
 C    1.1174252099   -0.6602158181    0.9184540772
 C    1.2502601788   -1.7790505548   -0.2124055793
 O    1.0431357718   -3.1292145573   -0.2902366538
 H    1.0610378713    1.9976566291   -0.0715984803
 H   -0.5558199462    1.9768488949   -0.8034914130
 H   -0.3834881430    1.9699624840    0.9565558622
 H   -0.9084274445   -0.3553313205    0.1918577515
 H    0.4503483262   -0.7806426550   -2.1705682990
 H    3.6801133191    0.1151404040   -2.0406844753
 H    4.3004966486   -1.2937660028   -1.1599293190
 H    3.1699350632   -1.5159414858   -2.5101198852
 H    1.0029930688   -0.7614280752    1.9963963198
 H    1.7556034310   -3.5765521592    0.1817988247