18

 C   -0.0071474143    1.3958013566    0.1106842699
 N   -0.0254817234   -0.0415569497   -0.0072238595
 C   -0.0696445401   -0.7889741307   -1.1339191756
 C   -0.0258917283   -2.1141840782   -0.7527298163
 C   -0.0929158800   -3.3203155649   -1.6300117288
 O    0.0232587034   -2.9001578131   -2.9823874179
 C    0.0528212108   -2.0584373781    0.6614692252
 N    0.0430284809   -3.1436658836    1.5450165192
 N    0.0613860974   -0.8066254209    1.1111869623
 H    0.9544921689    1.7455609400    0.5010860461
 H   -0.1719101370    1.8327407105   -0.8759623870
 H   -0.7990214261    1.7285156370    0.7877036269
 H   -0.1288777035   -0.3463330009   -2.1146765382
 H    0.7144238882   -4.0290093077   -1.3690693217
 H   -1.0409255405   -3.8602623072   -1.4649012049
 H   -0.1409379970   -3.6618348036   -3.5452540728
 H    0.6711632807   -3.8864304776    1.2631333901
 H    0.2697891997   -2.8429918581    2.4854217131