20

 C    0.2759162897    0.9122289225   -0.5385286215
 O   -0.2684085650    0.2811077194    0.6206885542
 C   -1.3377360869   -0.5229783788    0.3812408886
 C   -1.4049106145   -1.8672285475    0.0977991932
 C   -0.2412359836   -2.7963395859   -0.0599261655
 C   -2.8008647740   -2.1921785563    0.0002320900
 C   -3.3726959470   -3.5450947034   -0.2953019216
 C   -3.5110261593   -1.0376816615    0.2290185131
 N   -2.6140005477   -0.0163939739    0.4498292152
 H    1.1260735900    1.5090311907   -0.2006777347
 H    0.6162888094    0.1697537199   -1.2698808957
 H   -0.4610052440    1.5691568387   -1.0184226451
 H   -0.3296386366   -3.6706516647    0.5962634167
 H   -0.1474335799   -3.1786461710   -1.0844656838
 H    0.6932593552   -2.2877200467    0.1939231401
 H   -3.0487359928   -4.2943864663    0.4377518716
 H   -4.4665012175   -3.5215996794   -0.2800641975
 H   -3.0650223412   -3.9160036018   -1.2811414251
 H   -4.5746845355   -0.8617616610    0.2548393583
 H   -2.8348761288    0.9233422870    0.7281770995