18

 C    0.1462816719    1.3534398651    0.0359330748
 C   -0.1320904221   -0.1450961182    0.0876420503
 O    0.6055147342   -0.7921203246    1.1255440508
 C   -1.6269867186   -0.4515967398    0.2379791950
 N   -1.8389306670   -1.8788086629    0.3441563953
 C   -2.8294557299   -2.5397303538   -0.2868066283
 O   -3.6973114994   -2.0551093941   -0.9939838960
 C   -2.7944063428   -4.0513360682   -0.0410614138
 O   -1.9750963093   -4.5993094899    0.6500040791
 H    1.2205303320    1.5348053859   -0.0503640049
 H   -0.3551893283    1.8187429918   -0.8183405278
 H   -0.2150477284    1.8500316937    0.9452779192
 H    0.2250977594   -0.6196329815   -0.8335992332
 H    0.4576265190   -0.3028454368    1.9433621211
 H   -2.0141143760    0.0631203366    1.1314287467
 H   -2.1999989696   -0.0905568395   -0.6202085646
 H   -1.1730832962   -2.4215460929    0.8783508696
 H   -3.6089984689   -4.5860939409   -0.5687668431