17

 C    0.0925020094    1.6365627049    0.0489471941
 C   -0.1116996715    0.1242066176    0.0376158188
 C   -1.5681878810   -0.2923353819   -0.0032196374
 N   -2.5115361010    0.5521998154   -0.0249488449
 N   -1.7132427950   -1.7033796552   -0.0124898123
 C   -2.8916431984   -2.4156332616   -0.0467872590
 O   -4.0019537856   -1.9207454669   -0.0745608552
 C   -2.6793283080   -3.8560418425   -0.0467899219
 C   -2.5310347508   -5.0490880898   -0.0475266415
 H    1.1596603597    1.8744513457    0.0785758125
 H   -0.3458109485    2.0940109897   -0.8405538348
 H   -0.3931040729    2.0872239383    0.9170934032
 H    0.3988496211   -0.3251058424   -0.8263221999
 H    0.3517025813   -0.3318420128    0.9243106423
 H   -3.4190328788    0.0872698549   -0.0508903318
 H   -0.8666312490   -2.2525004250    0.0079635470
 H   -2.4157601311   -6.1060102880   -0.0485761691