15

 N   -0.5089594927   -2.9916042639   -0.1878697433
 C   -1.5754277070   -2.3120885859   -0.0443635549
 N   -1.5635483982   -0.9543250251   -0.2947000027
 C   -2.6366485406   -0.0935004869   -0.1823723727
 N   -3.8157696088   -0.5836783923    0.2026515076
 C   -4.8206522326    0.2902320517    0.2954613387
 C   -4.6645557504    1.6397220628    0.0104572781
 N   -3.4800373067    2.1333409251   -0.3765505241
 C   -2.4767183298    1.2777332233   -0.4723030167
 H   -0.6835420397   -3.9694445256    0.0342744730
 H   -2.5565455562   -2.6725668919    0.2675104868
 H   -0.6729673725   -0.5772166785   -0.5867844764
 H   -5.7825713670   -0.1074116399    0.6091580089
 H   -5.4933386679    2.3355429962    0.0915521013
 H   -1.5098827599    1.6678657510   -0.7858687934