18

 O    0.1872672477    0.0995269764    0.3162096546
 C    0.1070612674    1.2618814222   -0.1057774339
 O    0.9304072686    2.0647757556   -0.5769704750
 C   -1.3298582127    1.8887885761    0.0503962115
 C   -1.6996737087    3.1084988261   -0.7570114428
 C   -1.3806139065    3.2483665671    0.6961054451
 N   -2.5517169390    3.2547693815    1.6375746440
 H   -2.1944501538    3.1366076950    2.5868224625
 H   -3.0866565945    4.1254487246    1.6214038418
 C   -3.4303466253    2.0532587914    1.2688931168
 C   -2.4563404373    1.0553801753    0.6321591625
 H   -0.9001433897    3.4472635866   -1.4077684133
 H   -2.7145753493    3.2755304887   -1.1095777772
 H   -0.5110398563    3.7686767399    1.0760083032
 H   -3.9426009508    1.7174134295    2.1726508284
 H   -4.1727341638    2.4274198217    0.5629775780
 H   -2.9761216942    0.4532550446   -0.1177247357
 H   -2.0120631819    0.3668559878    1.3555099094