18

 C   -0.0849486942    1.4079210262    0.1753040063
 C    0.3445553180   -0.0605176447    0.0915950019
 C    0.7423403496   -0.4929697978   -1.3154741156
 C    0.4645246863   -1.9024096313   -1.7466966532
 N   -0.3244377779   -0.8057545321   -2.3061074300
 C    1.8951152993    0.1684130253   -1.8672364317
 C    2.8868435749    0.7256655189   -2.2774590904
 C    4.0485382556    1.3757004403   -2.8208304756
 O    4.8524742534    2.0054452531   -2.1704868682
 H    0.7284205921    2.0702603178   -0.1347851792
 H   -0.9456708586    1.6094601936   -0.4708489835
 H   -0.3635130851    1.6707254118    1.1996485233
 H    1.1900074390   -0.2392418927    0.7658610585
 H   -0.4698555554   -0.7134847544    0.4295274700
 H    1.1350366401   -2.3883940359   -2.4482136796
 H    0.0180932316   -2.5588344559   -1.0038520189
 H   -1.2257225970   -0.7480062104   -1.8353066290
 H    4.1596381981    1.2553546482   -3.9178503852