25

 C   -0.1813488641    1.8201559026   -0.1377159448
 C    0.1169717787    0.3175874284   -0.0975656431
 C    1.1243583773   -0.0948003112   -1.2021009178
 C    1.7843803107   -1.4020189304   -0.7066128679
 C    1.6346093295   -1.3905141163    0.8440464222
 C    0.8948566571   -0.0765710017    1.1847634826
 C   -1.1419110883   -0.5490027871   -0.2120390017
 C   -2.4669117810   -0.1985662582    0.4175035372
 C   -2.3224059767   -0.2097109391   -1.0873042346
 H    0.7510323243    2.3877384764   -0.0522839302
 H   -0.6597498425    2.1206330133   -1.0754403928
 H   -0.8293950794    2.1340537159    0.6868994011
 H    0.6460117809   -0.2027109218   -2.1803714478
 H    1.8828399140    0.6914637057   -1.2996801177
 H    1.2850749549   -2.2768698974   -1.1342111662
 H    2.8305388148   -1.4638916530   -1.0188854721
 H    1.0605793065   -2.2591725158    1.1808564638
 H    2.6014728474   -1.4472873115    1.3517246418
 H    1.6224020358    0.7119302906    1.4127812956
 H    0.2388882287   -0.1698784353    2.0556698155
 H   -0.9149303619   -1.6117361243   -0.1824051179
 H   -3.0370393020   -0.9915355945    0.8895092663
 H   -2.5768878859    0.7661921004    0.8996734031
 H   -2.3372785648    0.7477056848   -1.5957052743
 H   -2.7934081242   -1.0103338206   -1.6474777402