14

 N   -0.1181806525   -1.2246897636   -0.0643820364
 C   -0.0684608096   -0.0698599565   -0.0447152226
 C   -0.0097893672    1.3817986510   -0.0012091954
 C    0.1073303747    2.1308117086    1.3721389243
 C    1.5592764815    1.6079995394    1.5143730371
 C    1.3797327457    2.1236808873    0.0575993705
 N    0.6967028860    3.3361090830    0.6630337705
 C    2.3544444560    2.2217328923   -1.0008932512
 N    3.1259900566    2.2911945660   -1.8582597310
 H   -0.7187586767    1.8237049917   -0.7057401680
 H   -0.6628974511    2.2250259366    2.1341578441
 H    2.2137133626    2.2220523924    2.1298795502
 H    1.7043194126    0.5369945443    1.6452845259
 H    0.0205600013    3.7199934576   -0.0057187880