19

 C   -0.0417691586    1.5469066000   -0.1998359295
 C    1.4202656248    2.0643269519   -0.0123269419
 N    2.2051372976    0.8453395510   -0.2518231610
 C    3.2012466859    0.3221218559    0.7374894881
 C    2.1761738566    0.0744684429    1.8974089617
 N    2.4602789318   -1.3881547555    2.0473684908
 C    2.6372720084   -1.1445607330    0.5815714427
 C    1.4323035503   -0.1614591442    0.5147108136
 C   -0.0286005418    0.0225202526    0.1957929739
 H   -0.7477459322    2.1219795985    0.4039927824
 H   -0.3441057233    1.6537416222   -1.2442611794
 H    1.6762536345    2.8547772769   -0.7229928638
 H    1.5503979695    2.4688913667    1.0042663614
 H    4.2446031769    0.6417511979    0.7867482406
 H    1.9061813874    0.7034612885    2.7463926165
 H    3.3735529161   -1.5217067085    2.4902135646
 H    2.9293040473   -1.9090588886   -0.1383317341
 H   -0.6761761371   -0.2026418196    1.0456893860
 H   -0.3431408040   -0.6020203856   -0.6443128024