19

 C   -1.0627029408    1.3378532594    0.3298694585
 O   -1.4352195517   -0.0188166659    0.2502361639
 C   -0.4435276842   -0.8056202181   -0.3832105536
 C   -0.8689200311   -2.1969401375   -0.4390854354
 C   -1.1866954092   -3.3585692642   -0.5148833459
 C   -1.6282541195   -4.7183409629   -0.5146401332
 C   -0.8911678059   -5.7639739215    0.3273543807
 C   -2.2196478641   -5.2508691335    0.7891914354
 O   -2.2912084726   -4.4222004562    1.9004833632
 H   -1.8771766551    1.8672416039    0.8288911869
 H   -0.1377726460    1.4757757118    0.9124725673
 H   -0.9082984870    1.7797776063   -0.6674817649
 H   -0.2521902055   -0.4348368414   -1.4056761906
 H    0.5136767744   -0.7260320380    0.1617604624
 H   -2.0869365745   -5.0689753803   -1.4339940545
 H   -0.8218751104   -6.7665017299   -0.0801626509
 H   -0.0226104707   -5.4195378544    0.8757521847
 H   -3.0817505509   -5.9065305940    0.6905760295
 H   -2.1887080850   -3.5080773737    1.6030661666