16

 C    0.0015771403    1.5344158429    0.0196554123
 O    1.3566938986    2.0089380833    0.0078742776
 C    2.2598291353    0.9238252551    0.0266010047
 C    2.0027010130    0.0603795854    1.2638789313
 O    0.6654365633   -0.4547897114    1.1946893452
 C    0.0263992776    0.0054750204    0.0058825683
 C    0.8354613836   -0.4660040071   -1.2030811996
 O    2.1380153294    0.1346140172   -1.1377734827
 H   -0.5035895554    1.8978173142    0.9228604259
 H   -0.5211569976    1.9309054218   -0.8605134562
 H    3.2650313412    1.3481706723    0.0178969230
 H    2.7140212090   -0.7741108965    1.2967626084
 H    2.1154597606    0.6617635026    2.1744036187
 H   -0.9827305895   -0.4130163049    0.0023364190
 H    0.9369942758   -1.5580382690   -1.1894995963
 H    0.3538970449   -0.1682533862   -2.1436089697