17

 O   -0.5816600502    0.7859648355   -0.6467416325
 C    0.1545106351    1.0422214473    0.2703366258
 C    1.3554099012    1.9636774202    0.1690081657
 C    1.4302152835    2.6880323142   -1.1828267270
 O    2.5176665653    3.5958799603   -1.1950125842
 C    2.3220850475    4.7052786482   -0.3383089832
 C    1.8549285244    4.3253686894    1.0571505405
 O    0.4542611029    4.0446844120    1.2084442549
 C    1.3771086332    2.9597421606    1.3158166063
 H   -0.0044319141    0.5939053060    1.2785851904
 H    2.2465268417    1.3268146693    0.2901995369
 H    1.6050980282    1.9740910435   -1.9891905756
 H    0.4793513502    3.2007962151   -1.3799284872
 H    3.2895747178    5.2127605138   -0.2766422420
 H    1.5927407073    5.4093824054   -0.7712631200
 H    2.2775054889    4.9022352815    1.8792323961
 H    1.4724048772    2.5414175778    2.3186756952