18

 C    0.2546586792    1.5236737144   -0.3340088694
 C    0.0929964809    0.0513020155   -0.0646979548
 O    1.3027381890   -0.7199532706    0.0821909056
 C    0.4589260547   -0.5763633814    1.2066081195
 C    0.9023338693    0.0742082992    2.5353084668
 C    0.1103668896   -1.0206388056    3.2280330702
 C   -0.1970092216   -1.7633303829    1.9384489066
 N   -0.1921955111   -1.1556296905    4.4487829151
 O   -0.9750925081   -2.3081726693    4.6466054857
 H    1.0133471104    1.9612470154    0.3198543596
 H    0.5593650631    1.6927068024   -1.3719431686
 H   -0.6932429094    2.0487461268   -0.1729432406
 H   -0.6682201034   -0.4526366455   -0.6639804317
 H    1.9834502819    0.0088343821    2.6973575834
 H    0.5789454778    1.1023192090    2.7206994574
 H   -1.2539638589   -1.9593941352    1.7376931098
 H    0.3602639114   -2.6999350758    1.8288922827
 H   -1.1364384150   -2.2830160481    5.5959339823