17

 O   -0.6448763455    1.3879071046   -0.4610045391
 C   -0.0391791279    0.1557752106   -0.0553637823
 C   -1.1817743148   -0.8567321396    0.1991470463
 C   -1.4196756460   -1.5508192152   -1.1651549899
 N   -0.1014351804   -1.4374386703   -1.7803534769
 C    0.5899828886   -1.9628740134   -2.8228751437
 N    1.7964811576   -1.4325044526   -2.9119561609
 C    1.8822827918   -0.5208528847   -1.8837821641
 C    0.7096414909   -0.5088883208   -1.1694792595
 H    0.0047788050    1.8732733817   -0.9796149955
 H    0.5716128886    0.3151820832    0.8420509860
 H   -0.8541905088   -1.5956229858    0.9358968064
 H   -2.0725284894   -0.3541595722    0.5793935333
 H   -1.7250936330   -2.5952750651   -1.0673548801
 H   -2.1674176811   -1.0226170359   -1.7655527772
 H    0.1872640799   -2.7253755374   -3.4724712958
 H    2.7815468145    0.0535371026   -1.7198092072