20

 C   -0.6565081813    1.2009785606    0.0510144185
 C    0.1913724237   -0.0744259027   -0.0017328770
 C    1.1510918989   -0.1677039691   -1.2129655240
 C    2.5095302538   -0.6175402525   -0.6737068509
 C    2.4690344175   -0.6378044278    0.8352022125
 N    2.6183402942   -1.8620053670    0.0441751225
 C    1.6303624365   -2.9299239490   -0.0119265273
 C    1.0945927182   -0.1875851895    1.2415796448
 O    0.7646841776    0.1154121960    2.3629558122
 H   -0.0247591251    2.0941118648   -0.0010229653
 H   -1.3635325562    1.2360367642   -0.7830027612
 H   -1.2139376176    1.2392128774    0.9900566771
 H   -0.4929656648   -0.9327668806    0.0228745836
 H    0.7824870336   -0.8399085184   -1.9951664770
 H    1.2682371415    0.8181738212   -1.6756195418
 H    3.4045630869   -0.3074499762   -1.2077643968
 H    3.2971781655   -0.3880002234    1.4917482921
 H    0.6001649680   -2.6276737816   -0.2421032038
 H    1.9481211853   -3.6403901084   -0.7817749263
 H    1.6274328637   -3.4531048778    0.9483917380