17

 C   -0.1394847521   -1.2985094619   -0.2092741236
 C   -0.0574394929   -0.1029689557   -0.1066910842
 C    0.0143724027    1.3338998443    0.0221477413
 C   -0.1164953310    2.0483611817    1.4034366824
 C    0.6159569141    1.3009779342    2.5257203735
 C    2.0239562544    0.9784564549    2.0704158433
 C    2.4047184846    1.3563098632    0.8508443687
 C    1.3753645482    2.1096809388    0.0399006290
 O    0.7425681537    3.1050735250    0.8994294947
 H   -0.2042242876   -2.3540668251   -0.3050198547
 H   -0.6622560475    1.8239677103   -0.6828702983
 H   -1.1021431493    2.4161858204    1.6988636837
 H    0.6340963705    1.9237032369    3.4293968718
 H    0.0738367951    0.3825185518    2.7857945092
 H    2.6832930912    0.4452874227    2.7484926501
 H    3.3840331949    1.1445281841    0.4369819702
 H    1.7450459611    2.5393115745   -0.8923386370