15

 C    0.0060461739    1.5046055868   -0.0298985914
 C    0.0033620934    0.0118258839    0.0240479501
 N   -0.0312472795   -0.6964403504   -1.0814975671
 O   -0.0239422632   -2.0252551087   -0.7038782978
 C    0.0157659679   -2.0803253985    0.6469129641
 C    0.0302134930   -3.3540817131    1.2626358637
 N    0.0431112428   -4.3783895851    1.8021470097
 C    0.0351584217   -0.8261219359    1.1843528757
 C    0.0786957738   -0.4211546811    2.6198250565
 H    0.9043583573    1.9115489867    0.4460943624
 H   -0.0238201626    1.8412863367   -1.0673723048
 H   -0.8600598950    1.9166220386    0.4985332028
 H    0.9697481292    0.1788696693    2.8345956352
 H   -0.7926147815    0.1873345236    2.8856413292
 H    0.0934988388   -1.2954808929    3.2743251918