18

 O   -0.1171508472    1.4610485141   -0.0271408839
 C    0.0439695172    0.0492658901   -0.0748074078
 C   -1.3666219160   -0.6145361776    0.0482984995
 C   -1.1772858912   -1.8961821761   -0.7733793731
 N   -2.0634308495   -2.5298929982   -1.8648092601
 C   -2.2251662738   -1.5600559832   -2.9590564896
 C   -0.9133905216   -2.2507460882   -2.8463291981
 C   -0.1535260723   -1.5094609676   -1.7853093781
 C    0.5575818914   -0.4437123776   -1.4402628261
 H    0.7456302888    1.8589751582    0.1240959046
 H    0.6949313993   -0.2769877477    0.7526937200
 H   -1.6755217474   -0.7689450027    1.0847266737
 H   -2.0773006556    0.0692283406   -0.4279770628
 H   -0.8808512511   -2.7416293819   -0.1433807525
 H   -2.9174365868   -1.9104168338   -3.7194992802
 H   -2.2794518201   -0.4948825694   -2.7485978223
 H   -0.5661003974   -2.9981908392   -3.5494484369
 H    1.3039505132    0.1012090103   -2.0067693864