18

 C    0.2039649375    1.3948431950   -0.3293891303
 N   -0.1192392770    0.0128552842    0.0394662610
 C    0.5511120563   -0.4628896480    1.1833278329
 C    2.0245869201   -0.9858943077    1.0934582029
 N    3.1491886192   -0.6159843784    1.8920828707
 C    0.9609385864   -1.8762124768    1.6037809883
 O    0.7035183305   -1.5542175574    3.0002664045
 C    0.2113947064   -0.2945198885    2.6321484259
 N   -0.3687655737    0.5780392747    3.3199246412
 H    1.2680521504    1.4606204091   -0.5780966414
 H   -0.3651191734    1.6663891954   -1.2228361683
 H   -0.0111602835    2.1272186011    0.4617241435
 H   -1.1227756078   -0.0942269536    0.1441249114
 H    2.2568799244   -1.1601098016    0.0440319495
 H    3.4095258470    0.3529471249    1.7417274286
 H    2.9286871470   -0.7303982885    2.8760351219
 H    0.6553390789   -2.8564646305    1.2636117031
 H   -0.4573498786    0.2901997665    4.2959254244