10

 C   -0.0017979506    1.4988563658    0.0438907772
 C    0.0267479360    0.0118279703   -0.0486718452
 C   -0.1184540668   -0.8348366586   -1.1011950527
 O   -0.0132726584   -2.0927950643   -0.6771533764
 N    0.2119740520   -2.0150667861    0.7321386057
 N    0.2281602998   -0.8008053630    1.0521795791
 H    0.9439509002    1.8858233471    0.4356545849
 H   -0.1729871532    1.9439596902   -0.9389584435
 H   -0.7974658987    1.8349875896    0.7159195540
 H   -0.2927880703   -0.6828746510   -2.1538246230