21

 C   -0.1918045614    1.2878452770    0.7642213657
 C    0.3858190623   -0.0534105574    0.3637145155
 C    0.5476420867   -0.4915289743   -1.0564918324
 C    0.1739889524    0.3445519402   -2.2599130236
 C    0.9445679533    0.0351429027   -3.5518151150
 N    2.0330985654   -0.7769555000   -3.4190048409
 O    0.5991583875    0.4987132867   -4.6203240909
 N    1.7271813767   -0.2215119653   -0.2095400315
 C    2.5601751170    0.9533258284   -0.4428236295
 H   -0.0732927080    2.0622228743    0.0047640693
 H   -1.2639909527    1.1794622626    0.9582819299
 H    0.2740352450    1.6489193186    1.6877000602
 H    0.1471118289   -0.8383370879    1.0818975562
 H    0.4182494402   -1.5591023906   -1.2409260557
 H   -0.8847928525    0.1996995857   -2.5002026064
 H    0.2925413155    1.4161365235   -2.0813953303
 H    2.3327026094   -1.1444016081   -2.5325458155
 H    2.5682694876   -0.9855704122   -4.2456885682
 H    2.0327077335    1.8701163370   -0.7381115743
 H    3.1133614437    1.1692402579    0.4766914462
 H    3.2895559196    0.7252938812   -1.2260507689