25

 C   -0.0582332505    1.5770867747    0.1532244629
 C    0.1300169987    0.0567717772    0.0921269808
 C    0.7181381664   -0.4683364587   -1.2371959652
 C    2.1857461590   -0.0315867423   -1.3748806295
 C    0.5321076519   -2.0073824902   -1.3620839170
 C   -0.9487600516   -2.4009618791   -1.5083249413
 C    1.3318718430   -2.6168922728   -2.5361264547
 C    1.2662067185   -4.1263935106   -2.5552122939
 O    0.9778944705   -4.8029822084   -3.5085637706
 H    0.8882594545    2.1195975474    0.0716240235
 H   -0.7109874632    1.9252352654   -0.6551460218
 H   -0.5200549267    1.8717651306    1.1008054755
 H    0.7821169713   -0.2668712356    0.9153960851
 H   -0.8418891742   -0.4101415722    0.2774362078
 H    0.1509373663   -0.0069984398   -2.0600787900
 H    2.5831365439   -0.2158537472   -2.3761637617
 H    2.2962543669    1.0387616804   -1.1827918735
 H    2.8234886695   -0.5605660575   -0.6553653834
 H    0.9202727828   -2.4582590111   -0.4351490354
 H   -1.3738581935   -1.9655711896   -2.4202467323
 H   -1.0664470097   -3.4868062734   -1.5833453333
 H   -1.5563865377   -2.0691125570   -0.6638851500
 H    0.9842280003   -2.2379506970   -3.5032446831
 H    2.3950690488   -2.3642230523   -2.4358714877
 H    1.5302831448   -4.6010503010   -1.5786947316