19

 C    0.0292740989    1.4297520453   -0.0158730222
 O   -0.0012420466    0.0156124238   -0.0204197828
 C    0.6281665257   -0.5534231797   -1.1207177899
 C   -0.0519247769   -0.4478834925   -2.5184884986
 C    0.3759680480   -1.9103607938   -2.7955247082
 O    1.7759481156   -2.0012782228   -3.1436912310
 C    2.1625749473   -1.9524566743   -1.7517226233
 C    2.1825539797   -0.5005304244   -1.2130349272
 C    0.6886138036   -2.1157295236   -1.2871836684
 H    1.0584881217    1.8163532317    0.0060721441
 H   -0.4813504925    1.8524693844   -0.8932526442
 H   -0.4902469198    1.7583420791    0.8868621466
 H   -1.1379188211   -0.3902418520   -2.3872802448
 H    0.2850109380    0.3124984536   -3.2275614447
 H   -0.2473076979   -2.5414286391   -3.4304473484
 H    2.9989608802   -2.6179191424   -1.5338603774
 H    2.6614466819    0.2564968244   -1.8391836826
 H    2.6029330715   -0.4783623794   -0.2017440084
 H    0.2749563726   -2.8555878783   -0.6089953186