17

 O    0.2306241335    1.3843815287   -0.1210757892
 C    0.0852602262   -0.0142171309   -0.0636914639
 C    0.3588575789   -0.6479606703    1.3611238415
 C   -1.1370764922   -1.0090699498    1.4311098110
 C   -2.2995232431   -0.7009040796    2.3556402463
 C   -3.2248814977    0.0894041896    1.4275859794
 C   -2.7053352859    0.3025435657    0.2089857988
 C   -1.3972773379   -0.3910510534    0.1211450820
 O   -1.4368297904   -1.8201705249    0.2931110691
 H    1.1711306998    1.5883253662   -0.1357306826
 H    0.5792953893   -0.5157341071   -0.9058006942
 H    1.0607522548   -1.4828085529    1.4322041487
 H    0.6337576925    0.1431961654    2.0634538350
 H   -2.7863088167   -1.5973814623    2.7565112931
 H   -1.9808245276   -0.0983528576    3.2151039063
 H   -4.2220535355    0.3880399786    1.7350281828
 H   -3.1814455480    0.8455674746   -0.5969494541