14

 O   -0.1310186095    1.4060868603   -0.1073402068
 C   -0.0752368381    0.0277898463   -0.0079490068
 C   -0.4453727325   -0.6878436268    1.2655801532
 N   -1.1922498043    0.0966799815    2.2147577537
 C   -2.2800053929    0.4151004340    1.6290402405
 O   -2.5219650497   -0.0525436609    0.3865729385
 C   -1.3608728229   -0.7929311300    0.0112539191
 C   -1.5903205915   -1.9265816369   -0.8141489982
 C   -1.7419839728   -2.8901187441   -1.5177022175
 H   -0.1156442781    1.7712839816    0.7864185601
 H    0.7219273064   -0.4294123969   -0.5881698211
 H    0.1618210232   -1.4976890958    1.6513429297
 H   -3.0663876570    1.0347315772    2.0421598275
 H   -1.8864372004   -3.7390295095   -2.1393161719