19

 N   -0.0121175970   -1.2558707356    0.1848397076
 C   -0.0413647408   -0.1032577282    0.2683374122
 C   -0.0391159045    1.3544805433    0.3453459034
 C    1.3075173685    1.9962552753   -0.0134213983
 C    2.5715580759    1.2883839968    0.3138530326
 N    2.1198022605    1.4164157291   -1.0869555634
 C    1.2339467310    3.4981688760    0.0143949620
 C    2.2078530451    4.3355827039   -0.7672965306
 C    0.7696273315    4.2523612557   -1.2107633494
 H   -0.8119075317    1.7387262753   -0.3317131527
 H   -0.3345713234    1.6550740616    1.3578259267
 H    3.4536059456    1.8714041808    0.5616013624
 H    2.5168700821    0.3092712447    0.7811786646
 H    1.7267176606    0.5317510344   -1.4012023982
 H    0.9145474872    3.8978698781    0.9742120212
 H    2.5586162603    5.2569227855   -0.3162085101
 H    2.9361748083    3.8061871651   -1.3700727488
 H    0.5678439556    3.6698042401   -2.1033680315
 H    0.1271694450    5.1151089681   -1.0754194696