21

 C    0.0232779114    1.5382127404    0.0070663136
 C   -0.0252009206    0.0297710658   -0.0543983988
 C    0.4092860535   -0.7455852377   -1.3081762721
 C   -0.5191158892   -1.8892676570   -0.8116318381
 C    0.3019156340   -2.7806906504    0.1184894088
 O    1.0683062961   -1.9540886131    0.9984759810
 C    0.3831175686   -0.7433036252    1.2757989132
 C   -1.1242474669   -0.9912919931    1.5609658743
 C   -1.3309535535   -0.8341750832    0.0447501058
 H    1.0601429041    1.8964180178    0.0099799471
 H   -0.4813516869    1.9866293735   -0.8561540503
 H   -0.4588139180    1.9256552686    0.9121494632
 H    0.0271922580   -0.2623462142   -2.2131696148
 H    1.4704088688   -0.9800378919   -1.4396005304
 H   -1.0716411990   -2.4747001339   -1.5493515473
 H   -0.3446078522   -3.4607714764    0.6925611465
 H    1.0175237530   -3.3918240514   -0.4423216310
 H    0.9851810478   -0.2026191848    2.0091527026
 H   -1.3937934468   -1.9238301210    2.0649641053
 H   -1.5730774084   -0.1546027602    2.1042436402
 H   -2.2920075336   -0.5240214325   -0.3702470489