18

 O    0.5049989148    0.3162733614    0.9429470693
 C   -0.0459596173    0.2494709830   -0.3573955392
 C   -1.4168334069   -0.4141726689   -0.3273815572
 C   -2.1704435045   -1.0074135623   -1.5617175022
 C   -1.1592634912   -2.1784425222   -1.6195835339
 C   -1.5708014834   -1.9551532449   -0.1249834977
 N   -3.0000360790   -1.8986067512   -0.6379519558
 C   -1.1328063361   -2.7860745936    1.0301476566
 O   -0.2042587073   -2.4822157529    1.7456548853
 H    0.4978280753   -0.5819612869    1.3075520298
 H   -0.1504838332    1.2840291470   -0.7045942372
 H    0.6351167526   -0.2527984019   -1.0611197915
 H   -2.0733486015    0.1526160862    0.3437937413
 H   -2.6323574915   -0.4780058797   -2.3955360798
 H   -1.5411153381   -3.0984336822   -2.0609986477
 H   -0.1282666933   -1.9652494061   -1.8932281306
 H   -3.5472685096   -1.2994694627   -0.0094968214
 H   -1.6967390900   -3.7288076321    1.1877234620