25

 C   -0.0721073562    1.6284248548    0.0950686007
 C    0.0516339957    0.1102575726   -0.0779365755
 C    0.6933420669   -0.5659741257    1.1299710241
 C   -0.0786931291   -0.6183902512    2.4775166765
 C    0.5172005205   -2.0309865444    2.7265880564
 C   -0.3361889223   -3.0854162203    3.4169671244
 C    0.8465740866   -2.1224428001    1.1974709873
 C   -0.1441227099   -2.9085490067    0.3534900826
 O    0.0891029774   -4.2918531945    0.5936907078
 H    0.9115531040    2.0908706055    0.2341483878
 H   -0.5387470685    2.0935711361   -0.7788876219
 H   -0.6808325877    1.8787946914    0.9705297202
 H   -0.9447700252   -0.3133619990   -0.2583104843
 H    0.6443759907   -0.1061565264   -0.9768040026
 H    1.6791868399   -0.1152988912    1.2988771350
 H    0.1225537183    0.1594979651    3.2188767778
 H   -1.1623409183   -0.6649315940    2.3152039556
 H    1.4633752834   -1.9265444144    3.2698854033
 H   -1.3033227991   -3.2137870756    2.9204425760
 H    0.1603096159   -4.0596496579    3.4229306004
 H   -0.5354796545   -2.7935266628    4.4547926131
 H    1.8448357851   -2.5052062032    0.9627573192
 H   -1.1813493641   -2.6347997788    0.6041046778
 H    0.0049680881   -2.6663145083   -0.7107949700
 H   -0.5570325876   -4.7970439611    0.0915913284