13

 C    0.0642210245    1.5283679009    0.0088540067
 C   -0.0637043568    0.0509795950    0.0014574721
 C   -1.1263993357   -0.8164722766    0.0024576597
 C   -0.5542893147   -2.1136666076   -0.0076908716
 N    0.7485281189   -2.0516068317   -0.0140878218
 O    1.0536547512   -0.6754649985   -0.0084683555
 N   -2.5155294761   -0.4843106053    0.0116755979
 O   -3.3128296174   -1.4152871048    0.0104887091
 O   -2.8124900185    0.7085270707    0.0199079743
 H    1.1185379385    1.8090198860    0.0009777147
 H   -0.4411587204    1.9557395629   -0.8612388578
 H   -0.4249171259    1.9456041090    0.8931092429
 H   -1.0606123477   -3.0667324299   -0.0101497007