19

 C   -0.2434966041    1.4927394681    0.2118301270
 C    0.0743849959    0.0244239079   -0.0164463921
 C   -1.1377834302   -0.9505315681    0.2017833775
 C   -0.4975355907   -1.4216637407    1.5395131202
 C    0.8307797096   -0.7281930106    1.1342587383
 N    1.7520727333   -1.5560655672    0.3869096525
 C    1.8465929518   -1.2144342463   -0.9535489827
 O    2.5910318481   -1.7031760408   -1.7734317276
 N    0.9229580978   -0.1962472425   -1.1688127094
 H    0.6747239116    2.0859416003    0.2480366027
 H   -0.8719450337    1.8831999957   -0.5967836445
 H   -0.7897005000    1.6328766812    1.1503725986
 H   -2.1242181688   -0.4852375071    0.2681069497
 H   -1.1690318927   -1.7357282525   -0.5563678882
 H   -0.9531150264   -0.9523722702    2.4158638862
 H   -0.4359945908   -2.4986546020    1.7054167565
 H    1.3304934056   -0.1211218251    1.8977805166
 H    2.5150247111   -2.0570102008    0.8095312147
 H    0.5929861927   -0.0634152194   -2.1116365158