13

 N   -0.0047608535    1.3704632562    0.0416539147
 C   -0.1096044666   -0.0191622968    0.0457447884
 C   -1.1730293969   -0.8570862897    0.0655832856
 C   -0.6664434680   -2.2020473603    0.0397606798
 C    0.6911740386   -2.0807172637    0.0158655110
 N    1.7343394611   -2.9981549816    0.0756193404
 O    1.0629532834   -0.7806086612    0.0171484281
 H    0.5397771609    1.7196887698    0.8245051626
 H    0.4154086039    1.7288392981   -0.8108917726
 H   -2.2055634470   -0.5463268013    0.0902522353
 H   -1.2312257792   -3.1204365334    0.0424785307
 H    1.4469060000   -3.9245382736   -0.2092571832
 H    2.5435578132   -2.7008960425   -0.4558030107