21

 C   -0.8998726960    0.9299094167    0.3303376907
 N    0.0322990318   -0.1675382687    0.0905687420
 C    1.3499117290    0.1390408094   -0.4405553055
 C    1.1928156721   -0.3902442013    0.9510308001
 C    1.5872942767    0.4192685160    2.1418823273
 C    2.6474693092   -0.0586288041    3.1592762019
 C    1.8604445837    0.6751877039    4.2943198834
 C    0.8389758588    1.1301774081    3.2471604678
 N    1.4896083348    1.8732997900    2.1685149085
 H   -0.4258506774    1.8655994576    0.6484302288
 H   -1.4542486092    1.1084167385   -0.5970768592
 H   -1.6232125377    0.6222100728    1.0930839294
 H    1.7086713310   -0.4998462602   -1.2446367458
 H    1.6349050039    1.1875273406   -0.5172829859
 H    1.3850470893   -1.4511711038    1.1121990927
 H    2.6523415655   -1.1427676432    3.2965627254
 H    3.6725252228    0.2712370194    2.9579257521
 H    1.4490671022   -0.0211175035    5.0286799151
 H    2.3791397407    1.4787272684    4.8284872227
 H   -0.2242478316    1.2811194161    3.3944685037
 H    2.3528050105    2.3277033275    2.4644844247