18

 C   -0.1787092613    1.6071103845   -0.2213079358
 C   -0.0343822763    0.1205072223   -0.0756967127
 C    0.4450009956   -0.8910819005   -1.1586685158
 C   -0.4334468325   -1.8148369128   -0.3806510130
 C    1.1730031171   -1.6040155336   -0.0617248846
 C    0.9292393344   -0.5442742925    0.9712367038
 C    0.2914183495   -0.7369729854    2.1418853917
 C   -1.2036775129   -0.6559764201    1.7870670497
 N   -1.2145133858   -0.7388691606    0.2765078790
 H    0.7782684295    2.0552867984   -0.5073891555
 H   -0.9216847064    1.8550117298   -0.9853857711
 H   -0.4874287990    2.0634254238    0.7250971514
 H    0.6252058816   -0.7806796894   -2.2192011762
 H   -0.8283178637   -2.7956895495   -0.6131776324
 H    1.8335804068   -2.4608843585   -0.1024316395
 H    0.6387159491   -1.4213117103    2.9104387313
 H   -1.7205012967   -1.5030942186    2.2525069762
 H   -1.7558659190    0.2502461930    2.0591705237