17

 O    0.0803727721    1.4056945076   -0.0146316981
 C   -0.0220821767    0.0365313904   -0.0190884048
 C    0.7004426562   -0.7909923280   -1.0730885420
 C   -0.4879419143   -1.8056112459   -1.0684949455
 C   -1.2190807236   -0.9499897162   -0.0301135310
 C   -0.3223475195   -0.7900006870    1.2012716425
 O    0.5800616598   -1.7863533374    1.6038051423
 C   -0.9116367629   -0.0295030559    2.2783716983
 C   -1.3801002303    0.6358125053    3.1661302351
 H   -0.2218656016    1.7314682734    0.8437978158
 H    0.7693256402   -0.2428942785   -2.0147454217
 H    1.6864330830   -1.1683806793   -0.7945651449
 H   -1.0147350452   -1.8404046597   -2.0237333462
 H   -0.2412017908   -2.8236071314   -0.7574993351
 H   -2.2888622793   -0.7939288611    0.0456223031
 H    0.0819677297   -2.4659054176    2.0728601174
 H   -1.8042994967    1.1974105812    3.9619789950