19

 C   -0.1952483274    1.4695222226   -0.0343935415
 C    0.0328848555   -0.0446023999   -0.0085252633
 C    0.8558506646   -0.5231055753   -1.1986219388
 O    0.7479464844   -0.4578377272    1.1570297003
 C   -0.0138760576   -0.4427742641    2.3463445076
 C    0.7464936233   -1.0522935598    3.4276681136
 C    1.3512244768   -1.5491745632    4.3495081898
 C    2.0374536208   -2.1096292552    5.3820492535
 C    2.6443285582   -2.6063937791    6.3001061761
 H    0.7639220319    1.9959460408   -0.0018804452
 H   -0.7179274247    1.7581208378   -0.9517887945
 H   -0.8029061228    1.8096634792    0.8093808376
 H   -0.9461448492   -0.5542477367   -0.0185964036
 H    1.8385275826   -0.0412518039   -1.1977219872
 H    1.0050060035   -1.6045473557   -1.1489781580
 H    0.3513746334   -0.2798350921   -2.1383041763
 H   -0.2912193613    0.5828366742    2.6401676316
 H   -0.9599266225   -0.9959160713    2.2076356593
 H    3.1806588905   -3.0433581509    7.1054013790