19

 C    0.0050693410    1.5809325197   -0.1396353650
 C    1.5235684029    1.4802354379   -0.0845157857
 C    2.0410462384    0.7017905199    1.0626940957
 C    1.4373672160    0.5367179322    2.4286399285
 N    0.2266826211    1.3012852104    2.8023819771
 C    0.1264811719   -0.1501520343    2.5641942040
 C   -0.5770171139   -0.5942360086    1.3002431995
 C   -0.0047548319    0.0329749398    0.0255831507
 N    1.5077726126   -0.0424697945   -0.1107930365
 H   -0.4824356440    2.1903013044    0.6183556162
 H   -0.3397414168    1.8716968527   -1.1346830649
 H    2.2043133638    2.0415862408   -0.7185748109
 H    3.1259572592    0.6239714788    1.0761992766
 H    2.1716989344    0.3691018589    3.2119981987
 H    0.2411175190    1.4881543887    3.8013503175
 H   -0.0181859913   -0.7906144580    3.4311511608
 H   -0.4791363586   -1.6847588708    1.2220482127
 H   -1.6500621027   -0.3731985596    1.3589121320
 H   -0.4439723709   -0.4687359485   -0.8389494373