17

 O    0.6023558829    0.8012325381   -0.9098532404
 C    0.1324697585   -0.2354965471   -0.0886229754
 C    0.2151745859   -0.1214960370    1.4610456816
 C   -1.2333841118   -0.7194137213    1.5769347947
 C   -2.2553941127    0.3940140099    1.7700936167
 O   -2.8341570000    0.8424752982    2.7160006759
 C   -2.3091908550    0.6978397991    0.2551729235
 C   -1.3810777383   -0.5380369489    0.0168227747
 O   -1.9144455096   -1.5741034709   -0.7506484820
 H    0.2761193541    1.6387871528   -0.5644160210
 H    0.6353765975   -1.1443569863   -0.4332431271
 H    0.9972118592   -0.7123458475    1.9389559439
 H    0.2948159050    0.9076763796    1.8251740484
 H   -1.3418026665   -1.6657499933    2.1037878606
 H   -3.3096973151    0.5404389480   -0.1580317278
 H   -1.9558836632    1.6860734222   -0.0564036179
 H   -1.8990633611   -1.3038715856   -1.6761436183