17

 O   -0.0293943477    0.0036429884   -0.0684788388
 C   -0.0363370268    1.1954062607    0.0368029604
 C   -1.1018871052    2.2997829521    0.0315311183
 C   -0.8290474345    2.8886095191    1.4269532451
 C    0.7096066232    3.2261475060    1.2319953879
 C    0.7082149713    4.6184177512    0.6272027182
 C    0.2079990772    4.5261437826   -0.6081605158
 C   -0.0283946299    3.0731366575   -0.9062109342
 C    1.0051602510    2.3087126015   -0.0009792283
 H   -2.1280227478    2.1294294557   -0.2837306189
 H   -1.4110827400    3.7833781512    1.6563641671
 H   -1.0021906564    2.1454249716    2.2110569179
 H    1.3280714837    3.0720634947    2.1149796754
 H    0.9181422694    5.5218180055    1.1863546596
 H   -0.0516184896    5.3357142845   -1.2779801801
 H   -0.0873512857    2.7611584571   -1.9476283023
 H    2.0430450979    2.1646745306   -0.2950275416