20

 C   -0.1150573721    1.5575424500    0.0387001492
 C    0.0506064450    0.0551443403    0.0723486173
 C    1.3549236854   -0.6632373237   -0.1989303789
 C    2.6730767255    0.1042266783   -0.0801491162
 C    2.7193456826    0.5102811692    1.3782393428
 C    1.6677508904    0.0455308610    2.0563639968
 C    0.7259245216   -0.7315527616    1.1928947086
 C    0.0599810649   -1.9647702549    1.7597423823
 H    0.7100417769    2.0738332602    0.5347007726
 H   -0.1665241191    1.9192304050   -0.9948862443
 H   -1.0425023842    1.8582903765    0.5389928082
 H   -0.8080102726   -0.4731680284   -0.3396701706
 H    1.3232000121   -1.5261865077   -0.8556228192
 H    3.5301237029   -0.5270750652   -0.3502341165
 H    2.7166642351    0.9757206831   -0.7479842163
 H    3.5080669278    1.1320244964    1.7878315602
 H    1.4818379498    0.2072646542    3.1133059152
 H   -0.6244067130   -1.7085092597    2.5777163528
 H   -0.5247524244   -2.4846711511    0.9941604495
 H    0.7981201152   -2.6721998620    2.1551154962