23

 C   -0.3460784175    1.1464568659    0.0350767189
 O    0.4699510154    0.0184182736   -0.2067199488
 C    0.9001169830   -0.5989307535    0.9700369625
 C    0.1387794483   -1.6730667039    1.7037291408
 C   -0.6046148131   -2.6362270375    0.7639255286
 C   -1.8723796465   -2.1807303817    0.0491344958
 C    0.7119475820   -2.8401262847   -0.0549231877
 C    1.4776673139   -1.9662793686    0.9535274950
 C    2.8472746451   -2.2942934419    1.4784491534
 H    0.1888433239    1.9125254120    0.6173143694
 H   -0.6144517943    1.5667420009   -0.9371870561
 H   -1.2640227372    0.8781844419    0.5772687842
 H    1.4182972481    0.0891325923    1.6440090179
 H   -0.0415048091   -1.5955646924    2.7719173426
 H   -0.8180838864   -3.5580253876    1.3155211760
 H   -1.6763610676   -1.3153124207   -0.5870127533
 H   -2.2704961138   -2.9821887778   -0.5839628856
 H   -2.6544777803   -1.9106917471    0.7682379343
 H    1.0529776804   -3.8782287297   -0.0644224553
 H    0.7023630194   -2.4593481371   -1.0796444225
 H    3.6064383546   -2.1829547916    0.6941896789
 H    3.1281175431   -1.6349130871    2.3063265079
 H    2.8977915687   -3.3273815340    1.8415574031