17

 C   -0.0176071290    1.5153054487    0.0150145121
 C   -0.0062337393    0.0182029865    0.0363775719
 C   -0.0279965064   -0.8094101329   -1.0608995752
 N   -0.0069178475   -2.1503576496   -0.6592123146
 C    0.0263854988   -2.1462778438    0.7051850195
 C    0.0293623039   -0.8433767923    1.1884274759
 C    0.0674117867   -0.9530192239    2.6181000309
 C    0.0852192502   -2.2926411295    2.9186767782
 N    0.0602356720   -3.0395739398    1.7371098097
 H    0.8709595574    1.9348336093    0.5026971404
 H   -0.0434375495    1.8964050141   -1.0103740998
 H   -0.8893153840    1.9221447421    0.5423190459
 H   -0.0563679094   -0.5648041896   -2.1111891304
 H   -0.0236420051   -2.9422176394   -1.2742950606
 H    0.0804396888   -0.1555067746    3.3450777203
 H    0.1133318084   -2.7987552438    3.8701418724
 H    0.0649323841   -4.0412778116    1.6837210536