19

 O    0.0294267031    0.0227388401    0.2695439146
 C    0.0342774156    1.1834636699   -0.0403588457
 C    1.3032776980    2.0357596336   -0.1273499000
 C    1.2545528833    2.9002600901   -1.2997512756
 C    1.1699736898    3.6171519575   -2.2612311428
 C    1.4349630832    2.8504150745    1.1795173786
 C    1.7001232137    2.0840609848    2.5054352192
 C    2.6841463279    3.2158738911    2.9088032291
 C    2.7454494546    3.6497960915    1.4184707580
 H   -0.9043495885    1.7409430703   -0.2540347185
 H    2.1496675090    1.3418745618   -0.1938984328
 H    1.1151271299    4.2453425389   -3.1158265827
 H    0.5655441479    3.5091644617    1.2781854823
 H    0.8461081323    1.8877870571    3.1571394699
 H    2.2167740554    1.1372880566    2.3214808740
 H    2.2002575477    3.9721187683    3.5330146732
 H    3.6213484739    2.9217924840    3.3857174335
 H    3.5903814033    3.1896368681    0.8968018790
 H    2.7343274500    4.7167437100    1.1880525265