18

 C    0.0208390230    1.5030889761    0.0644925596
 C   -0.0338426908    0.0080500302   -0.0234861929
 C    0.5726444386   -0.8557658787   -1.0951368801
 C   -0.2616590271   -2.1301617467   -1.2391248555
 C   -0.6700727901   -2.2327236846    0.2503221508
 C    0.6984792890   -2.0558957552    0.9297190692
 N    1.1826805129   -0.8156332641    0.2455424053
 C   -1.2082795142   -0.8042937876    0.4683476658
 O   -2.2614711205   -0.4244129875    0.9032729238
 H    0.9564512092    1.8812103739   -0.3542895489
 H   -0.8155064842    1.9493112199   -0.4822487880
 H   -0.0476197478    1.8335908334    1.1054911127
 H    1.1444042861   -0.4299374406   -1.9115646322
 H   -1.1171605424   -2.0043189577   -1.9089177846
 H    0.3304814798   -2.9853969746   -1.5797936749
 H   -1.3190160697   -3.0462848124    0.5606471688
 H    0.6367469094   -1.8834266759    2.0080603696
 H    1.3974037387   -2.8750798479    0.7376005017