18

 C    0.1058355604    1.2896168937    0.3824676570
 O   -0.0254994686   -0.1079598206    0.2749446543
 C   -1.2895073107   -0.5035387455   -0.2083016909
 C   -1.2978603154   -2.0085026362   -0.2880553339
 O   -1.7771510835   -2.7417334511    0.8430357085
 C   -2.5111935170   -2.8330706383   -0.3894886826
 C   -3.9265162526   -2.3097709717   -0.3420116569
 O   -4.7631921236   -3.1942967517    0.3833588440
 H    1.1122038243    1.4945911585    0.7545955707
 H   -0.0226819756    1.7880999720   -0.5917906668
 H   -0.6271588521    1.7167287192    1.0848779128
 H   -2.0913034359   -0.1496574473    0.4563009347
 H   -1.4700283976   -0.0764717567   -1.2113918121
 H   -0.3806694724   -2.4120120146   -0.7196568961
 H   -2.4194701680   -3.8041389441   -0.8795656985
 H   -3.9497356341   -1.2966349173    0.0825369443
 H   -4.3390360484   -2.2591653186   -1.3557801678
 H   -4.3700265890   -3.2921294397    1.2581998893