19

 C    0.5511570144    1.6212127133    0.0199935364
 C   -0.1114649546    0.2345303025   -0.0835380168
 C    0.4325781674   -0.5300708651   -1.2910964717
 O   -0.1945564636   -1.7863423177   -1.4469722022
 C    0.5194708923   -2.8651421688   -0.9020808928
 C    0.7254827084   -2.8932485390    0.6165783595
 O    1.2044789429   -3.9019281655    1.0997291381
 C    0.3475093761   -1.7665947399    1.5002176976
 C   -0.0001045897   -0.5020468094    1.2217510587
 H    1.6262425237    1.5305892392    0.2083372724
 H    0.4153047700    2.1851545054   -0.9080533730
 H    0.1167043702    2.2068857841    0.8352445512
 H   -1.1870736636    0.3917930021   -0.2606131156
 H    0.2328973785    0.0473742433   -2.2013057642
 H    1.5246210881   -0.6459200669   -1.2060100839
 H   -0.0325132567   -3.7738857318   -1.1598574040
 H    1.5191998637   -2.9570517336   -1.3581299216
 H    0.3984203043   -2.0648983528    2.5447105827
 H   -0.2352417418    0.1233909407    2.0836471693