20

 C   -0.3861995344    1.5014812803    0.3486179384
 C   -0.1686416834   -0.0063564307    0.3070627782
 C    0.1847802959   -0.5600204017   -1.0868320515
 C    1.5068026018   -1.0804059407   -0.5842269553
 C    1.2247520820   -0.5592666094    0.8369001354
 C    2.2366980463    0.4591215235    1.3484245897
 N    0.4203431444   -1.9851645247   -0.9472594487
 C    0.4581573754   -2.8583341808   -2.0181715674
 O   -0.3089039280   -2.8508165580   -2.9514853715
 H    0.4083031937    2.0496142273   -0.1670896265
 H   -1.3320729167    1.7577797352   -0.1402625906
 H   -0.4345778892    1.8689531170    1.3782392016
 H   -1.0269322726   -0.5168133342    0.7537075598
 H   -0.0820304292   -0.1612976665   -2.0584303745
 H    2.4613910428   -1.1446063618   -1.0964665859
 H    1.1130196013   -1.3687799308    1.5644987241
 H    2.4399558373    1.2460428069    0.6156597816
 H    1.8884359475    0.9387218014    2.2681974593
 H    3.1883067989   -0.0348792435    1.5726948208
 H    1.2369209464   -3.6337091187   -1.8808789170