19

 C    0.0147604572    1.4378651678    0.2393968008
 N   -0.1519938516    0.0359858417   -0.1352869981
 C    0.6646574355   -0.4262678002   -1.2144597316
 C    0.8651800773   -1.9551303597   -1.3395514556
 O    2.3032221100   -1.8095013152   -1.4437997032
 C    2.2268536942   -0.3798029086   -1.3523477326
 C    2.0606841860    0.4003443199   -2.6854566401
 N    1.2439329948   -0.4386654208   -3.5921049246
 C    0.5724070646    0.3666117358   -2.5498647810
 H    1.0504139773    1.7146820170    0.4997190701
 H   -0.3055102889    2.0872224432   -0.5805651561
 H   -0.6234937966    1.6552873797    1.1000220849
 H   -0.0022868735   -0.5524885861    0.6770675921
 H    0.5860987969   -2.5087461540   -0.4321612848
 H    0.4342934775   -2.4332020890   -2.2220766904
 H    2.9153665453    0.0573221192   -0.6240665931
 H    2.7129919158    1.1682891179   -3.0842095683
 H    1.1565601158    0.0722127318   -4.4700600849
 H   -0.1819138675    1.0979627697   -2.8142125535