19

 C   -0.0193016172    1.5997713594   -0.0098918130
 C   -0.0524060735    0.0772079605   -0.0002124276
 C    1.1279368787   -0.6127366416   -0.7351126329
 O    1.9651469981   -0.2905324166    0.4350204780
 C    0.7232065599   -0.5933092403    1.1651786523
 C    0.6119463074   -2.1202349615    0.9324983940
 O    1.2774499641   -2.9636499861    1.8151127514
 C   -0.4056055306   -2.6668507771   -0.0367895676
 C    0.9212143606   -2.1294554690   -0.5458311909
 H    0.9859328340    1.9685923774    0.2024624170
 H   -0.3332958480    1.9857707078   -0.9859228243
 H   -0.7060443715    2.0068804796    0.7402964090
 H   -1.0632983049   -0.2751411949   -0.2119768740
 H    1.5367557644   -0.2531091153   -1.6798175336
 H    0.7126331525   -0.2297680440    2.1936307389
 H    0.6662571375   -3.2002091737    2.5208710986
 H   -0.4664765289   -3.7516544544   -0.0361166028
 H   -1.3500994830   -2.1784560065   -0.2446294121
 H    1.6465289906   -2.8161360738   -0.9639334603