13

 C   -0.0085460101    1.5125209976   -0.0486320690
 N    1.3625432610    2.0070650212    0.1190311655
 C    2.3447945866    1.2346966881    0.2615089167
 O    2.3862647598   -0.1508884026    0.2944167362
 C    1.1587531425   -0.7050973761    0.1464002539
 N    0.9217333993   -2.0060299627    0.1416254687
 N   -0.4034763486   -2.0281689183   -0.0298599447
 N   -1.0221741779   -0.8551155179   -0.1331980648
 C   -0.0248181299    0.0192240429   -0.0212005088
 H   -0.6280255716    1.9476252999    0.7455620739
 H   -0.4033082515    1.9132718484   -0.9906355230
 H    3.3548106092    1.6137337582    0.3848032399
 H   -0.9073213389   -2.8978093087   -0.0778503745