18

 C   -0.3110437545   -1.2156714934   -0.1138555672
 C   -0.0989202038   -0.0369545723   -0.0331957902
 C    0.0933972940    1.4007999629    0.0656372809
 C    1.5379504870    1.8638988923    0.0685636335
 N    2.5204553694    1.0704487587    0.0765904236
 C    3.8725218849    1.6160896274    0.0265775570
 C    3.9217215610    3.0668132921   -0.4629369870
 C    2.8299768398    3.8489126030    0.2535952109
 O    1.5505522679    3.2287151756    0.0646768266
 H   -0.4752736306   -2.2619584794   -0.1851024197
 H   -0.4152531339    1.9136619291   -0.7612310940
 H   -0.3823571669    1.7873834134    0.9769284651
 H    4.3156281968    1.5344888522    1.0286780206
 H    4.4721640037    0.9679902974   -0.6218355525
 H    4.8988956988    3.5225992678   -0.2733828883
 H    3.7418376394    3.1051369023   -1.5432490064
 H    3.0348457494    3.9024761356    1.3313880763
 H    2.7228820175    4.8678400353   -0.1258861892