16

 C    0.0738274169   -1.2041102610   -0.0279393277
 C    0.0419504814   -0.0013635729   -0.0121019445
 C   -0.0088652070    1.4174444359    0.0353922570
 C    0.2711692391    2.2877701007   -1.1603475059
 C    1.1786840708    2.4496223343    0.0317374704
 C    0.4742521369    3.2676555865    1.1260244871
 C   -0.7066796170    2.2483951220    1.1295111532
 C    2.5780687279    2.1935656891   -0.0309682410
 N    3.7177187299    1.9906299567   -0.0612261781
 H    0.1093277619   -2.2653284603   -0.0476477096
 H    0.7083197757    1.7739813500   -2.0085145866
 H   -0.4123120791    3.0953001290   -1.4129559033
 H    1.0255105299    3.2688079218    2.0666089017
 H    0.2413905599    4.2990303099    0.8477650945
 H   -1.6936177187    2.6306391936    0.8552683660
 H   -0.7835621786    1.7065448447    2.0723285867