22

 C   -0.2326180577    1.5159295761   -0.0694579606
 C    0.0608782191    0.0172321538   -0.0274184804
 C    0.9898093684   -0.4975750932   -1.1367263011
 C    1.4041153181   -1.8607611248   -0.5820823089
 O    1.4309173268   -1.7237512511    0.8350222515
 C    0.7518308833   -0.5206197338    1.2582598591
 C    1.8132091203    0.4284673414    1.8318413264
 C   -0.2580045549   -0.9099553839    2.3393381424
 H    0.6858766841    2.1102695010   -0.0459256294
 H   -0.7706261863    1.7758830429   -0.9868912826
 H   -0.8564808553    1.8281715325    0.7750490110
 H   -0.8930368748   -0.5199201395   -0.1197953372
 H    0.4978493188   -0.5655519380   -2.1108677128
 H    1.8590358418    0.1614049602   -1.2468767048
 H    0.6774623672   -2.6364639359   -0.8711298246
 H    2.3927215919   -2.1882941555   -0.9230816640
 H    2.5209800596    0.7499490335    1.0620574067
 H    1.3622310429    1.3192680756    2.2800456005
 H    2.3799213472   -0.0957613063    2.6063741818
 H    0.2530844915   -1.3336879980    3.2089650813
 H   -0.8317092601   -0.0384953350    2.6732084121
 H   -0.9565033020   -1.6594046122    1.9560834236