16

 C    0.0148206351    1.6370041117   -0.0704653719
 C   -0.0384378406    0.1207453599   -0.0212043754
 C    0.6809984886   -0.6480574486   -1.1697408074
 N    1.6203098452   -1.1449390674   -0.1582418322
 C    1.0089404281   -0.5704065681    0.9202475551
 O    1.2070740142   -0.5962772647    2.1059214284
 O   -1.3808369305   -0.3493548488    0.1243741461
 C   -1.9436986267   -0.3045682077    1.3607012938
 O   -3.0827742187   -0.6154560070    1.5349503627
 H    1.0314716100    1.9811602655   -0.2808686619
 H   -0.6556195922    2.0113394959   -0.8497166241
 H   -0.2941414706    2.0626416296    0.8887196355
 H    0.0556217723   -1.4195449613   -1.6250048077
 H    1.1379842176   -0.0200348868   -1.9396846452
 H    2.4029019931   -1.7791251684   -0.2192521551
 H   -1.2446475950    0.0184401364    2.1484767792