17

 C   -0.1395861698    1.5984779114   -0.0127183269
 C    0.0912492048    0.0940248060   -0.0177325986
 C    0.8483976700   -0.6240386096   -1.1235942472
 C    2.2929504508   -0.7450972400   -0.7593254702
 C    2.5331261408   -0.1320429171    0.6125419711
 C    2.9412392071    1.2575039800    0.7862340005
 N    3.2919591998    2.3498458439    0.9294912203
 C    1.0940996129   -0.6361515409    0.9084998944
 N    1.2970534022   -1.7220462260   -0.1984818146
 H    0.7717197337    2.1669581018   -0.2038442439
 H   -0.8703258876    1.8642536159   -0.7840340781
 H   -0.5454137547    1.9255118277    0.9504274773
 H   -0.8652479888   -0.4277691366    0.1043463758
 H    0.5097535831   -0.8491601796   -2.1289364723
 H    3.0517450607   -1.0534250017   -1.4684335056
 H    3.2368682856   -0.7680617133    1.1588234434
 H    0.8275815993   -0.9347783619    1.9197920248