20

 C    0.3516241450    1.5834439665   -0.2731978509
 C   -0.1284603129    0.1443735922   -0.5352425383
 C    0.6448976730   -0.5431794001   -1.5636928064
 C    1.2915849963   -1.0953586595   -2.4172851950
 C    2.0677553526   -1.7743009622   -3.4553815325
 C    2.1449198164   -3.2845711195   -3.2385895537
 O    1.4879066401   -1.5885858378   -4.7635502197
 C    1.5361467199   -0.3392397049   -5.2679146038
 N    1.0458986589   -0.1025226266   -6.4067543921
 H    1.3936812583    1.5920696989    0.0576292946
 H    0.2800604503    2.1882728742   -1.1811530868
 H   -0.2602562928    2.0528464366    0.5025239175
 H   -0.0831359545   -0.4350173404    0.3957211038
 H   -1.1852686738    0.1556430188   -0.8305398905
 H    3.0872670149   -1.3615544517   -3.4697564767
 H    2.7349170267   -3.7419877886   -4.0364566825
 H    2.6118808634   -3.5001093448   -2.2747291805
 H    1.1410961108   -3.7149545104   -3.2486707197
 H    2.0241926030    0.3865482032   -4.6043549261
 H    1.1747939342    0.8800412759   -6.6397515107