17

 C    0.1311216995    1.4590225384    0.1370145310
 C   -0.0607604115   -0.0114931569    0.0738534531
 N   -1.1402057649   -0.7042828380    0.2100206369
 C   -0.7530538552   -2.0358596922    0.0429165775
 C   -1.6889517504   -3.1986018136    0.1124348170
 O   -1.3190974802   -4.2345570437   -0.8075577364
 C    0.5887283337   -2.0620753652   -0.1901944272
 N    1.5082262313   -3.0804975838   -0.3493231806
 O    1.0527988226   -0.7832900880   -0.1773885586
 H    0.8354165286    1.7371024496    0.9287487467
 H    0.5257690089    1.8531121939   -0.8061534409
 H   -0.8320990366    1.9281386842    0.3401804945
 H   -1.6717891560   -3.6854110243    1.0949551837
 H   -2.7159602003   -2.8490929323   -0.0581918986
 H   -1.3936471213   -3.8590149735   -1.6919278830
 H    1.0344093830   -3.9425775115   -0.5945810482
 H    2.2513441487   -2.8600422331   -1.0004457170