17

 C   -0.2749612972    1.0990009587   -0.5368645969
 O    0.6057021496    1.6864633235    0.4187478549
 C    0.6014426906    0.2569266596    0.2879717602
 C    0.0754934545   -0.5108376433    1.4668856949
 C   -0.3133024568   -1.9877185797    1.3264233669
 C    0.9956223024   -2.7601002196    1.5726072756
 O    2.0458855569   -1.8080861935    1.7398519692
 C    1.0956199593   -1.0312162720    2.5262221962
 C    0.1907273953   -2.3007258893    2.7354659477
 H   -1.3362972233    1.1665585128   -0.2979164396
 H   -0.0248424236    1.2794520303   -1.5816218081
 H    1.5020791043   -0.1534152291   -0.1657766168
 H   -0.7226557989    0.0507574712    1.9615431286
 H   -1.1587241017   -2.4186656606    0.8054133787
 H    1.2266188946   -3.7391866298    1.1752733551
 H    1.5651969843   -0.3886536682    3.2669990003
 H   -0.2577098303   -2.7879569210    3.5890836329