16

 O   -0.8087331066    0.6095980770    0.3167123313
 C    0.3201410457    0.5464595022   -0.1003483238
 C    1.2665927542    1.7366131618   -0.0980875825
 N    2.6213115532    1.5023214893   -0.6596070678
 C    2.4348445074    2.6516349430   -1.5800826743
 C    1.3491251947    2.3141713642   -2.5469220963
 C    0.9836062837    2.8272234640   -1.1689884271
 C    1.2872534836    2.3822954337    1.2808342355
 O    2.3023710473    2.7299954446    1.8264561265
 H    0.7532573892   -0.3833153775   -0.5255030627
 H    3.2978889261    1.7344211816    0.0662658158
 H    3.2167459139    3.3792405768   -1.7550008833
 H    1.1768711028    3.0407409922   -3.3348512182
 H    1.1837261861    1.2803321165   -2.8335698818
 H    0.3687056846    3.7020190688   -1.0038973566
 H    0.2878376240    2.5073898018    1.7408598253