22

 C    0.5021341070    1.2730359139    0.0337297095
 C   -0.0721547908   -0.1558592290   -0.0007429679
 C   -1.6050721756   -0.0507146404   -0.0709505390
 C    0.4785074355   -0.9669281824   -1.2223426062
 C    1.5152470194   -1.9456955987   -0.6944269900
 C    2.6681723934   -1.4093286353    0.1188240409
 C    1.4454857889   -1.9540721770    0.8163882306
 C    0.3639907873   -0.9807086224    1.2573333908
 H    1.5940254538    1.2879674349    0.0842877133
 H    0.2071715784    1.8309513390   -0.8623113370
 H    0.1254929630    1.8211369335    0.9048734720
 H   -1.9235872070    0.4927438482   -0.9679250003
 H   -2.0682389127   -1.0429617976   -0.0978695750
 H   -2.0051760643    0.4829008233    0.7988387595
 H   -0.3365262301   -1.5319202510   -1.6898364033
 H    0.8781621110   -0.2992416406   -1.9950757304
 H    1.6763547116   -2.8627333643   -1.2513275001
 H    3.5658783885   -2.0176705719    0.1569104778
 H    2.8659954183   -0.3434175131    0.1338550559
 H    1.5550706869   -2.8773019689    1.3755758348
 H    0.6903588944   -0.3218395524    2.0709810593
 H   -0.4903639169   -1.5504558178    1.6414078449