13

 N   -0.0701018520    1.3991740872    0.0168694979
 C   -0.0969871753    0.0044041604   -0.0063195498
 C   -1.1610760634   -0.8497767009   -0.0112501141
 N   -2.5151959848   -0.4927815708   -0.0567707196
 C   -0.6151152705   -2.1779224746   -0.0506016348
 C    0.7351941597   -2.0278145779   -0.0676709804
 O    1.0824355420   -0.7204482397   -0.0535133724
 H    0.4936519135    1.7674937181    0.7767057062
 H    0.2697602265    1.8068970604   -0.8495281649
 H   -2.6316569316    0.4909012511    0.1590302737
 H   -3.0886972502   -1.0478495584    0.5662173277
 H   -1.1622964476   -3.1078316629   -0.0689471557
 H    1.5502970835   -2.7331262319   -0.0863173237