21

 C   -0.3669632674    1.5369003587   -0.1922817670
 C   -0.0608997014    0.0469012614    0.0460654711
 C    0.9407149679   -0.1422569793    1.1921129785
 O   -1.2442278872   -0.7396479675    0.2144261328
 C   -2.0509840277   -0.4690117708    1.3207341002
 C   -3.2245391232    0.4706021514    1.1873656764
 C   -3.4358906295   -1.0280327251    1.2594648233
 C    0.5346970204   -0.5105725789   -1.2523211869
 O    1.6554899503   -0.2908618219   -1.6282938782
 H    0.5593524785    2.0633604685   -0.4366387511
 H   -1.0686977567    1.6641119422   -1.0219833683
 H   -0.8037059407    1.9886607857    0.7016038326
 H    0.6306626016    0.3984881658    2.0905104804
 H    1.0430196863   -1.2034402216    1.4363512444
 H    1.9161055699    0.2367253909    0.8784780289
 H   -1.5371887625   -0.5034055097    2.2792120434
 H   -3.5009903550    1.0830149062    2.0390850601
 H   -3.3724027678    0.9395895847    0.2217882769
 H   -3.7087282929   -1.5314755241    0.3390295646
 H   -3.8608848177   -1.4593868749    2.1584785629
 H   -0.1822870851   -1.1282195319   -1.8353814848