18

 C    0.0545046314    1.3075103606    0.3288110808
 O   -0.0261245040   -0.0034927232   -0.2050011629
 C   -1.3016415336   -0.5483950584   -0.1468143613
 C   -1.7727576045   -1.1610991867    1.1587583678
 C   -1.4249841798   -2.0391443103   -0.0341495604
 N   -2.4950828732   -2.4224194275   -0.9062145228
 C   -3.1459229312   -1.3620096787   -1.4982159901
 O   -4.1611234878   -1.4298632505   -2.1506737647
 C   -2.3460182328   -0.0904383827   -1.1544483496
 H    1.1013065991    1.6114445690    0.2642782773
 H   -0.5577180121    2.0194515174   -0.2420201807
 H   -0.2657795416    1.3350806304    1.3797395810
 H   -1.0537244951   -1.1433843041    1.9707158457
 H   -2.8145804636   -1.0791368479    1.4521640886
 H   -0.5459187705   -2.6718452599   -0.0122666425
 H   -2.9654112190   -3.3123252583   -0.8407824011
 H   -3.0330509401    0.6802809509   -0.7965144295
 H   -1.8582131818    0.2859569300   -2.0598164754