15

 C   -0.1468243076    1.5035149526   -0.0026963970
 C    0.1149221144    0.0296483861   -0.0040380635
 O   -0.6834843326   -0.8048895888    0.8718407735
 C    0.7297387051   -0.7845137446    1.0541599697
 C    1.3987383662   -1.9639804313    0.3867725412
 O    1.0124158400   -1.8915460270   -0.9981804623
 C    0.3983718015   -0.7028542575   -1.2814624680
 N    0.1186088503   -0.2793997112   -2.4364808111
 H    0.7177732328    2.0485985063   -0.3918891955
 H   -0.9986601316    1.7287146880   -0.6497829363
 H   -0.3648552543    1.8481444494    1.0105237679
 H    1.1026167269   -0.3799181715    1.9907108634
 H    2.4910823335   -1.9035246396    0.4608304771
 H    1.0612108107   -2.9250205612    0.7856982110
 H    0.4286299749   -0.9399523098   -3.1515274001