16

 O   -0.1300167420    1.4391875244    0.1063740482
 C    0.0233132300    0.0383085490    0.0224265764
 C    0.5575450255   -0.5722205787    1.3703353660
 C   -0.7089874643   -0.7040182403    2.2173785812
 C   -1.7452179006   -0.7867011924    1.3938956993
 C   -3.1274424297   -0.2863687873    1.0580472052
 O   -2.6103066582    0.1610365997   -0.2341643329
 C   -1.3833830695   -0.6067866334   -0.0415309684
 H    0.7458606689    1.8241935172    0.2092956788
 H    0.6581751545   -0.2402019470   -0.8316092492
 H    1.0656849761   -1.5307815851    1.1959305901
 H    1.2952922770    0.0948495426    1.8321939183
 H   -0.7182477038   -0.6095814947    3.2963263230
 H   -3.9064341484   -1.0485318221    0.9254046118
 H   -3.5164955777    0.5375544115    1.6656102192
 H   -1.3854961378   -1.4916886235   -0.6930514971