12

 N   -0.0494204250    1.3286318585    0.0082145260
 C    0.0936373843   -0.0136231026    0.0002556256
 O    1.1369415861   -0.6330648417   -0.0126821842
 C   -1.2738710191   -0.7321706717    0.0096556171
 O   -2.3167572438   -0.1084212386    0.0229355557
 C   -1.2111931446   -2.1672927269    0.0016227047
 C   -1.2182943505   -3.3806304135   -0.0046280292
 C   -1.2139036889   -4.7362541043   -0.0117338654
 C   -1.2126986995   -5.9441172718   -0.0180345118
 H    0.7643590734    1.9194984518    0.0039151914
 H   -0.9762254402    1.7229187494    0.0193987024
 H   -1.2062331522   -7.0066103986   -0.0236307622