22

 C   -0.1776365878    1.5741741795    0.0272336437
 C   -0.0028209710    0.0605506731    0.0293623322
 C   -1.3409727316   -0.6424408322   -0.1754287338
 N    0.9508605736   -0.4856369190   -1.0323905058
 C    2.3151324591   -0.0079576313   -0.7353543564
 C    1.7760669423   -1.1132254609    0.0788309816
 C    0.8562225219   -0.5804039019    1.1475407749
 C    1.2324428334   -0.0532144532    2.5026657870
 C    0.3872248505   -1.3010280533    2.3728619043
 H    0.7584979733    2.1078957233    0.2076591090
 H   -0.5809733859    1.9052675498   -0.9357263939
 H   -0.8838602998    1.8775094170    0.8079267909
 H   -1.7905321321   -0.3247202237   -1.1215752820
 H   -1.2070618679   -1.7266238249   -0.2107226510
 H   -2.0385962618   -0.4045392672    0.6345377048
 H    3.0152387007   -0.2545334172   -1.5283900814
 H    2.4725488458    0.9668591618   -0.2825963149
 H    2.1375104612   -2.1351762478    0.0090380031
 H    2.2630875609   -0.1573044554    2.8270018999
 H    0.7453292587    0.8528988433    2.8489983761
 H   -0.6624247040   -1.2390947057    2.6412256703
 H    0.8469296703   -2.2563179343    2.6071748413