16

 C    0.2075588921    1.0836856555   -0.4912249631
 C    0.4644487445   -0.2735407475    0.1094774823
 O    1.7660948836   -0.5602436769    0.6113713837
 C    0.6950994948   -0.5040753763    1.5649132587
 C    0.7083906450    0.5873942374    2.6054473867
 C    0.3072337895   -1.8567892362    2.0940880448
 O   -0.2097537523   -2.0384558341    3.1676774153
 C    0.6023381749   -3.0058567323    1.2075340292
 N    0.7849169066   -3.9348414067    0.5440771096
 H    0.6908966775    1.8830694387    0.0714926875
 H    0.5943967661    1.1062616759   -1.5149581238
 H   -0.8686474475    1.2788864860   -0.5351178727
 H    0.0321488497   -1.1024649928   -0.4539464451
 H    1.0105057982    1.5399493882    2.1714775247
 H   -0.2821350116    0.6921996385    3.0550604058
 H    1.4093861789    0.3337093526    3.4056319265