17

 N   -0.0455485767   -1.1270605199   -0.0064304785
 C   -0.0355484528    0.0299423835    0.0064871066
 C   -0.0232729325    1.4705575630    0.0088748749
 C   -0.4793754071    2.2128248188   -1.2929143993
 C    0.8526299438    3.0295349038   -1.2860678487
 C    1.2969457411    2.3050930095    0.0098754921
 N    0.9974923465    2.9062842651    1.3685572919
 C   -0.2975469125    3.6128258575    1.3167449101
 C   -0.3190490056    2.1433813965    1.3707975820
 H   -0.5735649398    1.5383862046   -2.1447416074
 H   -1.4069299842    2.7795737805   -1.1903428978
 H    1.5014483288    2.7924775090   -2.1316942057
 H    0.7657165425    4.1161252498   -1.2204958979
 H    2.2757908459    1.8293800414    0.0239368115
 H   -0.5054462820    4.1362293563    2.2451585981
 H   -0.6027779376    4.1562541310    0.4293772474
 H   -0.6506983679    1.5847227395    2.2397272008