17

 O   -0.2311861484    1.5052267766   -0.5103199536
 C   -0.3829649735    0.1485535506   -0.8039119606
 C   -1.1061106035   -0.5765581879    0.3177483873
 O   -1.3356747341    0.0068590407    1.3621840248
 C   -1.4689811570   -2.0233144723    0.1513034833
 C   -1.6531892764   -2.8086216067    1.4411878798
 O   -0.5996114342   -2.6219522544    2.3586726097
 C   -2.2069263071   -2.4358801487   -1.0640842300
 O   -0.8134683238   -2.6741383038   -0.9486680602
 H   -0.5050694007    1.6051006769    0.4145878073
 H   -0.9209585229    0.0162296786   -1.7531581631
 H    0.5859008779   -0.3627293070   -0.9357743130
 H   -2.6268502913   -2.5400744248    1.8770211357
 H   -1.6754215001   -3.8725510582    1.1869806913
 H   -0.6740858436   -1.7163846034    2.6821657462
 H   -2.8446977564   -3.3168286939   -0.9966600176
 H   -2.5082441051   -1.6973634324   -1.8042776574