21

 C   -0.0660612543    1.5666347113   -0.4020442668
 C    0.0632982728    0.0681234595   -0.1643375846
 C    1.2499173111   -0.7671071160   -0.7531254208
 C    2.1624368493   -0.1375520950    0.3413474366
 C    0.8369775099   -0.5141660379    1.0675422923
 C    0.9306817158   -1.8744732868    0.3020900624
 C   -0.2691919095   -2.8224494981    0.1695959266
 C   -0.0472924919   -3.8413188414   -0.8515012484
 C    0.1621451306   -4.6685909905   -1.6982893592
 H    0.8661398410    2.1197280338   -0.2672289133
 H   -0.4183578813    1.7584704486   -1.4218221607
 H   -0.8062176619    1.9966316429    0.2822477368
 H   -0.9179393002   -0.3857085945   -0.3253007779
 H    1.4925985012   -0.9210029746   -1.8059213227
 H    3.0482153577   -0.7137316293    0.6223899017
 H    2.4036783943    0.9209922404    0.2507520998
 H    0.6013049041   -0.3713877810    2.1246459066
 H    1.8096228846   -2.4668889548    0.5763057102
 H   -0.4336075068   -3.3121630537    1.1389232621
 H   -1.1965482004   -2.2859766864   -0.0546993506
 H    0.3349856639   -5.4043044564   -2.4438023102