17

 O   -0.0451665790    1.4626536651    0.0504143526
 C    0.0159631042    0.0532573853   -0.0867774427
 C   -1.3821830484   -0.4986684583    0.1646328740
 C   -1.4521506462   -2.0170705860    0.0792828942
 C   -2.8697167584   -2.6639246143    0.0927841830
 C   -2.5063555023   -3.2345887602   -1.3002798288
 O   -3.0266686746   -3.9560088402   -2.1067613603
 N   -1.2899299193   -2.5925557315   -1.2686072314
 H    0.8293411434    1.8226735669   -0.1234775620
 H    0.3528161048   -0.2347015486   -1.0965471602
 H    0.7253704311   -0.3897423789    0.6324188326
 H   -1.7069003806   -0.1812084369    1.1627850723
 H   -2.0750640517   -0.0562509752   -0.5600585757
 H   -0.7720369010   -2.4737070173    0.8100505307
 H   -3.0366811761   -3.4258341568    0.8558052282
 H   -3.7014186121   -1.9566835123    0.0887997126
 H   -0.4903524038   -2.6688054606   -1.8802390990