20

 C    0.0564724936    1.5664982680    0.1063620126
 C   -0.0451424772    0.0393958366   -0.0350925200
 C    0.6219670959   -0.4848497017   -1.3173528751
 C    0.0009354378    0.0263503811   -2.6130434307
 O    0.6291257838   -0.6642652003   -3.6831625097
 C    0.5604496170   -0.6624914311    1.2005002948
 C   -0.2346419199   -0.4037109741    2.4590306578
 O    0.2086984318    0.0370309514    3.4879678589
 H    1.1047403332    1.8873195554    0.0968370644
 H   -0.4604519033    2.0847996908   -0.7059100796
 H   -0.3823966973    1.9110881958    1.0481771243
 H   -1.1116131349   -0.2303886006   -0.0768335288
 H    1.6893568284   -0.2296118608   -1.3136312599
 H    0.5645025968   -1.5797631891   -1.3383138148
 H   -1.0864321496   -0.1604966905   -2.6016273177
 H    0.1438367254    1.1130168204   -2.7094181405
 H    0.2848785742   -0.3151236370   -4.5102832624
 H    0.5509252886   -1.7495310873    1.0338488286
 H    1.5976619681   -0.3549911162    1.3681264713
 H   -1.3179014423   -0.6620720907    2.3695453664