13

 N    0.1012962953    1.4157578277    0.1233205484
 C   -0.0201639464    0.0233485010    0.0249995809
 C   -1.0878224966   -0.7973699730    0.0322038661
 O   -2.4117582736   -0.4992120330    0.1259415609
 N   -0.6192158397   -2.1235427422   -0.0451635779
 C    0.7741136940   -2.1416814170   -0.0204849962
 O    1.5132031051   -3.1033369378    0.0272437709
 N    1.1183710837   -0.7928263304   -0.0594905839
 H    0.4042589387    1.8440965332   -0.7477714126
 H   -0.7863254322    1.8258173954    0.3885657514
 H   -2.8356930036   -0.6352029618   -0.7314695729
 H   -1.1490624535   -2.9333199464    0.2316772974
 H    2.0515871186   -0.4853259957    0.1571452475