16

 O   -0.1775587028    1.4216282967    0.0077629115
 C   -0.0725142964    0.0430394770    0.0265456344
 C   -0.3307117657   -0.8031586678   -1.1842396132
 C   -1.2135208623   -0.9797966507    0.0319872291
 C   -0.4614453887   -1.7772021807    1.1165655205
 O    0.4692974768   -2.7986666544    0.6647556092
 C    1.5953410949   -1.8917412375    0.7978566469
 C    0.6587956548   -0.7225003315    1.1600753420
 H    0.4743067985    1.7698836371   -0.6104422663
 H   -0.8115116842   -0.2590486827   -1.9912785825
 H    0.3282448731   -1.6048792397   -1.5000004825
 H   -2.2859416944   -0.8365608826   -0.0171862376
 H   -1.0427446884   -2.0915772829    1.9858022420
 H    2.2570925039   -2.2053506676    1.6145184622
 H    2.1778534348   -1.8098069743   -0.1277127678
 H    0.8611165161   -0.1219809183    2.0449827922