21

 C   -0.6369345356    1.2905089991    0.0596949447
 C    0.0200226141   -0.0939783415    0.0934132881
 O    0.6320618316   -0.2792686832   -1.1749163116
 C    0.8604528629   -1.6139627798   -1.5835760047
 C    2.2350130943   -2.1682824644   -1.3189643038
 C    3.2380286997   -1.6070536064   -0.6484312728
 C    3.1970198134   -0.2645627659    0.0619398488
 C    2.2848547062   -0.2702048057    1.2749524374
 C    0.9543760409   -0.2216170268    1.2737960008
 H    0.1232602015    2.0611631521   -0.0957183423
 H   -1.3635190453    1.3438725323   -0.7554549487
 H   -1.1490808634    1.4977866493    1.0037042520
 H   -0.7787434006   -0.8480939549    0.2132965763
 H    0.1013816364   -2.2856534486   -1.1462668089
 H    0.6879130392   -1.6318453400   -2.6698454247
 H    2.3913826895   -3.1476152635   -1.7703611168
 H    4.1700819808   -2.1619891455   -0.5735390113
 H    4.2090615794   -0.0037648926    0.3846623439
 H    2.8739274704    0.5068147602   -0.6398387687
 H    2.7819034758   -0.3613073727    2.2383520042
 H    0.4356093789   -0.2505480712    2.2312576981