18

 C   -0.0967899238    1.5624183819   -0.0184942956
 C    0.1006028525    0.0524334110    0.0309577240
 C    0.8254898436   -0.5790080242   -1.1859511024
 C    1.4862323480   -1.8519661397   -0.5872668119
 N    1.7362749001   -1.4426899097    0.7816227702
 C    0.9535987960   -0.4088164096    1.2231286312
 O    0.9331847233    0.0444570942    2.3461029262
 C   -0.0187069822   -0.8388497317   -2.3397660335
 C   -0.7295256976   -1.0571164370   -3.2843208172
 H    0.8553648505    2.0779259958   -0.1836215512
 H   -0.7824676403    1.8416435072   -0.8233084647
 H   -0.5042251056    1.9121572726    0.9331752240
 H   -0.8750340509   -0.4388206704    0.1482133308
 H    1.6331754879    0.1046319812   -1.4794006630
 H    0.8018592816   -2.7087736133   -0.6501410010
 H    2.4108174411   -2.1146705437   -1.1088015125
 H    2.2715555601   -1.9908107489    1.4363318059
 H   -1.3533791143   -1.2450132457   -4.1229039992