22

 C   -0.0284280230    1.5394688726    0.1002744715
 C    0.0426354435    0.0111353256    0.0296964343
 C    0.6946826766   -0.5209005779   -1.2523295556
 C    2.1791656396   -0.1219005536   -1.4421827018
 C    2.8529705797   -1.2590570201   -2.2593988699
 O    4.2207529169   -1.4511122118   -1.9491649218
 C    1.9890747247   -2.4777650309   -1.9769976195
 N    1.8011826132   -2.6525052639   -0.5146516925
 C    0.7299584309   -2.0418582430   -1.3408911368
 H    0.9696378370    1.9889516770    0.0805125118
 H   -0.5927397038    1.9497885022   -0.7451432239
 H   -0.5216036079    1.8699606549    1.0197105836
 H    0.6016079254   -0.3792369756    0.8889774918
 H   -0.9720912325   -0.4016364726    0.1084192663
 H    0.1127964790   -0.1644196718   -2.1151371710
 H    2.3017908416    0.8507134541   -1.9232930062
 H    2.6744281213   -0.0675288464   -0.4675365173
 H    2.8257304059   -1.0352001290   -3.3318066605
 H    4.2393265594   -1.7798988187   -1.0416004243
 H    2.0609343813   -3.3567160596   -2.6091070169
 H    1.5601497233   -3.6219153167   -0.3255622931
 H   -0.1963564721   -2.5945782047   -1.4687896682