20

 C   -0.0792927930    1.5815838017    0.2271054658
 C    0.0052889586    0.0645298951    0.1444637274
 C    0.8092248711   -0.5830415151   -1.0475054352
 C    1.7072823607   -1.2811244412   -0.0162832281
 N    2.3357478148   -0.2079713083    0.7834758335
 C    0.9573889992   -0.6595306790    1.1118099018
 C    2.3373290253   -2.6184287492   -0.1291276818
 C    3.7854177629   -2.7854777894   -0.3319668459
 O    3.1915968019   -3.0004327690    0.9541586380
 H    0.9229410023    2.0180434554    0.2250188412
 H   -0.6372405112    1.9917711747   -0.6217726943
 H   -0.5888296334    1.8983726827    1.1441112558
 H   -0.9929429020   -0.3811032849    0.1981857477
 H    0.2019519340   -1.2737958960   -1.6378437276
 H    1.3304339465    0.1086135523   -1.7146774035
 H    2.9493453588   -0.6874851008    1.4454643567
 H    0.7367176666   -1.0542172374    2.0967825401
 H    1.6817353804   -3.4152595889   -0.4840891396
 H    4.1627723238   -3.6810390476   -0.8222852289
 H    4.4154122429   -1.9016899451   -0.4098500231