18

 C   -0.1338055439    1.5223174362    0.0139426660
 C    0.0510031159    0.0275653410    0.1704993267
 C    1.2803658524   -0.7581193371   -0.1925758188
 C    2.5698844449   -0.0090987575    0.1779545883
 C    2.0938918520   -0.0071077048    1.6783733860
 C    2.0708340816    1.2840632010    2.4528685065
 O    1.1023378136    1.7600552917    2.9892436171
 C    0.7908391577   -0.6946890128    1.2662200728
 H    0.7947962411    2.0841836389    0.1362246060
 H   -0.5232791879    1.7513269427   -0.9842879254
 H   -0.8405504982    1.9061912389    0.7552836472
 H   -0.8498445421   -0.5273653334   -0.0889658617
 H    1.2482296685   -1.5948012514   -0.8801100380
 H    3.4732095358   -0.6033123520    0.0320043981
 H    2.7189970075    0.9667751592   -0.2949798563
 H    2.7430838162   -0.6882126870    2.2441933948
 H    3.0645989248    1.7907904962    2.5155059337
 H    0.3062598700   -1.4659979097    1.8523652471