18

 C   -0.1088364469    1.5811390006   -0.1043515433
 C    0.0322845424    0.0707983922    0.0095827313
 C    1.1277381811   -0.6152983463   -0.8448012503
 O    1.3434466865   -0.7282216499   -2.0196244965
 N    1.7864238987   -1.0717504982    0.2785333027
 C    0.7944546490   -0.5795342577    1.2394208424
 C    1.3407744847    0.3516563320    2.3215822699
 C   -0.0226733627   -1.6901746789    1.8726909747
 O    0.1765461748   -2.8633943885    1.6938758372
 H    0.8486098975    2.0936449633    0.0204492911
 H   -0.4888996882    1.8321477154   -1.0989852760
 H   -0.8117589747    1.9779238194    0.6348844749
 H   -0.9346092164   -0.4142769920   -0.1636117600
 H    2.3765843665   -1.8877323027    0.3690688275
 H    1.9148999965    1.1665855441    1.8769620156
 H    0.5284775017    0.7819876674    2.9163643301
 H    2.0023342482   -0.1957137825    3.0011836890
 H   -0.8426948585   -1.3333245676    2.5374274298