14

 N   -0.1104202632    1.2829569947    0.0431710232
 C    0.0335899013    0.0261104119   -0.0216937949
 C    1.2346048326   -0.8354972306   -0.0747515689
 C    0.8686715084   -2.1228218764   -0.0591418170
 C   -0.6159933836   -2.2084420934   -0.0219872265
 C   -1.3406210883   -1.6427017159    1.1764708445
 C   -0.6435086079   -1.3476436389    2.4028794344
 N   -0.1199394845   -1.1164629770    3.4074254872
 N   -1.1312708311   -0.8388022261   -0.0525288373
 H    0.8001839341    1.7441725989    0.0652074088
 H    2.2429594393   -0.4432144934   -0.0632249766
 H    1.5165640369   -2.9889775580   -0.0762480558
 H   -1.1371921776   -2.9536099686   -0.6164882170
 H   -2.3782753663   -1.9293624371    1.3255066359