20

 C    0.0207774481    1.4831718035    0.0176040033
 C    0.0170753945   -0.0297515632    0.0018542616
 C    0.6793319039   -0.7507684465   -1.1973921322
 C    0.4092696036   -2.1746821823   -0.7254478374
 C    0.4170253777   -2.1698296891    0.7695341454
 C    0.7070406284   -0.7391618951    1.2070363170
 O    2.0746156320   -0.4388491639    1.4054028173
 N   -0.8679325191   -2.1947456341    0.0325189062
 C   -1.3281934382   -0.7780959900    0.0347233591
 H    1.0431046512    1.8626654646    0.1133498918
 H   -0.4129334115    1.8969085366   -0.8990726057
 H   -0.5562599189    1.8713406909    0.8644989598
 H    0.1883551933   -0.5158275645   -2.1473261575
 H    1.7450917114   -0.5225009460   -1.3039722423
 H    0.6403012892   -3.0518841828   -1.3176644675
 H    0.6646452715   -3.0302833969    1.3801267603
 H    0.2116335821   -0.4749237365    2.1477895707
 H    2.5852132723   -0.8999387668    0.7321264781
 H   -1.9132555663   -0.5803884827    0.9390172320
 H   -1.9592868152   -0.5883915650   -0.8392749601