19

 O    0.0804813586    1.4464955902    0.1581925812
 C    0.0163877648    0.0647053639   -0.0412088353
 C    0.4321880964   -0.8611739576    1.1359781857
 N   -0.8440332193   -1.6107640763    1.0147178403
 C   -1.7332235890   -1.6996859839    2.1791948055
 C   -2.7138514512   -0.5418893023    2.0554549957
 N   -2.0611867795    0.7834322489    1.9765525973
 C   -2.5111307258    0.1048010454    0.7314802213
 C   -1.3880526913   -0.6298392849    0.0280413193
 H   -0.3994166519    1.6109800497    0.9830500341
 H    0.5465204542   -0.1441698496   -0.9733826207
 H    1.3201778863   -1.4848369950    0.9829970623
 H    0.5416628476   -0.3058107059    2.0755557281
 H   -2.2917382702   -2.6458334731    2.1756035576
 H   -1.1504645290   -1.6614830559    3.1062823781
 H   -3.6946093923   -0.6053910304    2.5165481010
 H   -2.7348113458    1.5029644517    2.2267818473
 H   -3.3294336961    0.5384352724    0.1672417718
 H   -1.7531887463   -1.0786656472   -0.9034064904