17

 C    1.0352086266    1.1265250839    0.1277403417
 N    0.5444508818    0.0473981873   -0.7446889486
 C   -0.2997433852    0.5170342878    0.3708155214
 C   -0.5157970663   -0.4714810763    1.4410308399
 C   -1.2072359861   -1.8148001679    1.4802297343
 C   -1.6039408104   -1.4949877537    2.9419492099
 C   -0.1759074392   -1.3631907954    3.3282670886
 C    0.2717007737   -1.6780230915    1.8789563231
 N   -0.9405920155   -0.1428800143    2.8808965841
 H    1.8702418563    0.8502548618    0.7641969994
 H    1.0674250571    2.1407228507   -0.2606663005
 H    0.2010299119    0.4350956026   -1.6190586240
 H   -1.1661104218    1.1308523614    0.1284453339
 H   -1.6454127581   -2.4083133223    0.6910412766
 H   -2.4980769426   -1.6707957207    3.5281040114
 H    0.3206869899   -1.4109368068    4.2902533012
 H    1.1399447678   -2.1436293666    1.4368560175