23

 C   -0.1094501589    1.5369233817    0.1112509498
 C   -0.0071767779    0.0087716398    0.0245225460
 C   -1.4089661960   -0.5478776439    0.3044474866
 C    0.8465906725   -0.6325179242   -1.1514401571
 C    0.5423727911   -0.5794477131   -2.6241670484
 C    2.1346355326   -0.1072637627   -0.4394832774
 C    1.2218526090   -0.6963388057    0.6814181955
 O    1.4298954608   -0.6990241440    2.0502339679
 C    1.0084969257   -1.9139079268   -0.2718951733
 H    0.8209174852    2.0709787719   -0.0798623248
 H   -0.8525237654    1.9048026615   -0.6056007376
 H   -0.4539044243    1.8298411171    1.1091146186
 H   -2.1267060666   -0.1366329877   -0.4146469534
 H   -1.4889953321   -1.6337099495    0.2608560398
 H   -1.7397162276   -0.2367933774    1.3014536993
 H    0.5084326783    0.4547032106   -2.9845508617
 H    1.3054230236   -1.1093762325   -3.2048320304
 H   -0.4256140434   -1.0425800644   -2.8455428483
 H    3.0472281467   -0.6713762536   -0.6548544544
 H    2.3347214471    0.9624215650   -0.4443355879
 H    2.2415581739   -1.1831268886    2.2362598270
 H    0.1424209135   -2.5545870377   -0.1179150501
 H    1.8989851721   -2.5134428760   -0.4840335859