17

 C    0.0141021725    1.4694144950   -0.1068992734
 C    1.3396503014    0.7703364934    0.0212896395
 C    1.9392499236    0.5452437474    1.3870635602
 O    0.8610944691    0.0912677100    2.2163106331
 C   -0.0499879621   -0.6563470832    1.3995052446
 C    0.0172428839   -0.0284446015    0.0295623842
 C    0.5020039095   -0.7656845398   -1.2592977861
 O    0.7611988062    0.2102136958   -2.2728458390
 C    1.7548050252   -0.0090031461   -1.2671009095
 H   -0.3102137899    2.0154177044    0.7728651919
 H   -0.2560011605    1.9067148323   -1.0586379387
 H    2.7403327612   -0.2103419417    1.3246335145
 H    2.3491168110    1.4370571514    1.8714288140
 H    0.2454628778   -1.7173546755    1.3402347535
 H   -1.0256049183   -0.6014249270    1.8925428195
 H    0.2436560243   -1.7672966374   -1.5823109959
 H    2.7585796052   -0.2482981878   -1.5979806124