22

 C   -0.2605100578    1.4497016503    0.2428173159
 N   -0.0226778582    0.0144284167    0.2423820849
 C    1.2724671555   -0.4635302784   -0.2321930576
 C    0.8991385259   -0.6008545386    1.2080754983
 C    1.6343402204    0.2270412579    2.2476149401
 C    0.3981748797   -1.9525887349    1.7073188026
 C   -0.7383009516   -1.8206046081    2.6932082720
 C   -0.9659874534   -2.7904708041    3.7701662144
 O   -0.3973414802   -1.5106399835    4.0521206548
 H    0.6376706062    2.0676953912    0.3940189507
 H   -0.6974199762    1.7295007553   -0.7215456360
 H   -0.9837413081    1.7006438408    1.0255645572
 H    1.2541714904   -1.3211471145   -0.9017724394
 H    2.0281804395    0.2829220041   -0.4775800410
 H    1.9975918361    1.1738510352    1.8431757481
 H    0.9965088830    0.4352040431    3.1112762701
 H    2.5036081233   -0.3287895239    2.6149418425
 H    0.0411685837   -2.5341276275    0.8498765678
 H    1.2190174900   -2.5109385036    2.1734596775
 H   -1.5985857384   -1.2641949113    2.3190004197
 H   -1.9721254418   -2.9513837198    4.1551931759
 H   -0.2884159079   -3.6367162964    3.8813294513