18

 C    0.1170214704    1.5335005880   -0.2067587483
 C    0.0157545981    0.0318118386    0.0934995355
 C   -1.3897661189   -0.4788294834    0.0968418525
 C   -2.0088348386   -1.8766594714    0.0216223882
 C   -2.8531567893   -1.6310539594    1.2704027636
 C   -2.7091600861   -0.1307958740    0.9104192451
 O   -3.4644150012    0.0035875354   -0.3259598717
 C   -2.4222804953   -0.7479913521   -0.9454468397
 H    1.1596529153    1.8655725339   -0.1992968517
 H   -0.3086355718    1.7666759149   -1.1875462722
 H   -0.4272883030    2.1219315903    0.5390246901
 H    0.5877628148   -0.5354900607   -0.6525043099
 H    0.4896289638   -0.1846126505    1.0606483026
 H   -1.5437467270   -2.7933952323   -0.3196537417
 H   -3.8746881099   -2.0220553485    1.3153101237
 H   -2.3033914274   -1.8839504446    2.1808635860
 H   -2.8877954692    0.6768594634    1.6178818862
 H   -2.3819168247   -0.8064265276   -2.0256021781