21

 C   -0.0617623702    1.4939024488   -0.2395018014
 C    0.0230018607   -0.0197333931   -0.0228552209
 C    0.7458650100   -0.4307305135    1.2725983523
 C    0.7117049819   -1.9620447545    1.5425682664
 C    2.1306165757   -2.3363998696    1.9781077329
 C    2.4520660033   -3.3233372559    3.0221851881
 O    2.6257653963   -3.6426982882    1.6412076784
 C    2.9744620198   -1.1514653375    1.6784424072
 C    2.2287946768   -0.1152317198    1.2964977684
 H    0.9301813261    1.9487760164   -0.3282725883
 H   -0.6124861848    1.7294146475   -1.1553312791
 H   -0.5776869807    1.9844555469    0.5936638548
 H   -0.9916872198   -0.4374036319    0.0018491424
 H    0.5287949261   -0.4918673087   -0.8749872480
 H    0.2583697358    0.1014570107    2.1036501107
 H   -0.0451518311   -2.2438802036    2.2786326739
 H    0.4864639853   -2.5044925492    0.6179663440
 H    3.3706572343   -3.2279446221    3.6017945906
 H    1.6411021463   -3.8475666694    3.5284260638
 H    4.0527054305   -1.1699170044    1.7854209329
 H    2.6154280675    0.8669158210    1.0480752808