21

 C   -0.9229659589    1.7813827431    0.4067573117
 C    0.5432155442    1.5544642179   -0.1686949549
 C   -0.0725877390    0.4239914210   -1.0369812178
 C    0.5629873653   -0.9404529411   -1.3551014699
 C    0.4772133674   -1.6449942963    0.0204648964
 C    1.4618344120   -0.8262602402    0.8900134258
 C    0.7346392072    0.5265468609    0.9792820388
 C   -0.6847485531    0.2421446132    0.3896840282
 C   -0.9552959214   -1.2420265759    0.5734852877
 H   -1.6592441011    2.1846721340   -0.2941799319
 H   -0.9877578865    2.2699879793    1.3830400406
 H    1.2275613472    2.3484608945   -0.4830632833
 H   -0.7648438900    0.7740157539   -1.8079795096
 H    1.5904784115   -0.9084457926   -1.7321452888
 H   -0.0470305977   -1.4468790557   -2.1110711759
 H    0.6704167422   -2.7200674874   -0.0022019832
 H    2.4645753268   -0.7974018139    0.4511491958
 H    1.5582454381   -1.2429378452    1.8985593797
 H    0.7518510753    0.9667065996    1.9803499796
 H   -1.7623384891   -1.6462693765   -0.0453590836
 H   -1.0995878406   -1.5620798926    1.6100394245