19

 C    0.0117137217    1.5648937731    0.0030058812
 C   -0.0259940305    0.0338494939   -0.0195451633
 O   -1.3822620279   -0.4201666969   -0.0186489553
 C    0.7157171769   -0.5194335042   -1.2564972277
 C    0.9387115256   -2.0044536193   -1.2020425517
 C    0.8899792859   -2.7170410689   -0.0717187384
 C    0.6301183737   -2.0884236910    1.2402283677
 O    0.5175616890   -2.7425525836    2.2564636094
 C    0.5791638530   -0.5631967381    1.2566971446
 H    1.0363147026    1.9434290048    0.0718961115
 H   -0.4338986952    1.9755890057   -0.9114936940
 H   -0.5581712455    1.9402195444    0.8573666808
 H   -1.8231089903   -0.0529289437   -0.7923188927
 H    0.1501778808   -0.2609883086   -2.1622667047
 H    1.6852199968   -0.0113326332   -1.3671382786
 H    1.1500687626   -2.5027078377   -2.1458733169
 H    1.0359908907   -3.7923916233   -0.0606301036
 H    1.6095498417   -0.2018373228    1.3727717050
 H    0.0141611285   -0.2456942908    2.1361495366