18

 C    0.0293267257    1.5253466665    0.0271351063
 C    1.3320389151    0.7759743996   -0.0192103489
 C    0.0201179286    0.0132142750   -0.0125086588
 C   -0.4114517649   -0.7331839680    1.2367351559
 O   -0.1404114555   -2.1202219944    1.1260268196
 C   -0.8778417367   -2.7321627076    0.0842616187
 C   -0.8583887015   -1.9445171520   -1.1986757817
 C   -0.4143785173   -0.6888273824   -1.2431144293
 H   -0.2543622383    2.0055539664    0.9586657256
 H   -0.2941224792    2.0575886154   -0.8614854732
 H    1.9037590370    0.7935280628   -0.9407202884
 H    1.9373612974    0.7372318159    0.8805584553
 H    0.1295706432   -0.3815841464    2.1205984601
 H   -1.4892806677   -0.5695224375    1.4088431764
 H   -0.4231169290   -3.7185105335   -0.0665769782
 H   -1.9227727593   -2.9109159164    0.4021533583
 H   -1.2168617284   -2.4497126197   -2.0911603183
 H   -0.3704263992   -0.1429540938   -2.1828861094