20

 C   -0.1562036286    1.5304907524   -0.0952810931
 C   -0.0257971636    0.0307221251   -0.0589925545
 C    0.0268205725   -0.6919701362    1.2619040113
 C    1.3088835836   -0.3890266515    2.0594593722
 C    1.3355579471   -1.1090095933    3.4189106965
 C    2.6462246736   -0.8944041787    4.1404052116
 O    2.7615039284   -0.4175843243    5.2396451863
 N    0.0536905392   -0.7036073867   -1.1030791372
 O    0.0187266981    0.0627505646   -2.2802869550
 H    0.7753563751    1.9934267021   -0.4396911992
 H   -0.9304990565    1.8239636108   -0.8094365726
 H   -0.3998532998    1.9343971239    0.8896382366
 H   -0.8455756353   -0.4044998438    1.8648805860
 H   -0.0439861059   -1.7670130196    1.0717441325
 H    2.1780399529   -0.6922637830    1.4624951278
 H    1.4036156256    0.6913328009    2.2220004291
 H    0.5204385303   -0.7761340359    4.0684473173
 H    1.2207517612   -2.1903263287    3.2531300286
 H    3.5438210974   -1.2135554896    3.5587115759
 H    0.0522396048   -0.6154448184   -2.9629440203