20

 C    0.0079366190    1.7056997018    0.0234385929
 C   -0.0406015282    0.1884400174    0.0462936632
 C    0.9682240416   -0.6963682702   -0.7557220056
 C    2.0703209065   -0.3485982519    0.2868893559
 C    0.7663571625   -0.6606919903    1.0940718269
 C    0.5630814888   -0.7628813735    2.5772361256
 N    0.5341535460   -1.8240108495    0.1379551389
 C    1.1141179521   -3.0641572848    0.1773633757
 O    1.5877847632   -3.6453917358   -0.7759955233
 H    1.0158788191    2.1178981954    0.1106303407
 H   -0.4225402735    2.0814571459   -0.9108229036
 H   -0.5910004480    2.1167683916    0.8434738891
 H   -1.0677928099   -0.1727702347   -0.0556044085
 H    1.0619702251   -0.8317654187   -1.8308173938
 H    2.8753763915   -1.0795312971    0.3810106283
 H    2.4533940036    0.6727151439    0.3115938015
 H    0.7138442687    0.2170113620    3.0415325157
 H   -0.4527899535   -1.0986171763    2.8075093673
 H    1.2712411619   -1.4617484800    3.0334214830
 H    1.0138430232   -3.5336897751    1.1780947202