15

 O    0.0053984255   -0.0062855531    0.2362936065
 C   -0.0126600407    1.1657808777    0.0753458167
 C   -1.0928880521    2.3261972745   -0.0661817427
 C   -0.6957776662    3.0577913218    1.2014486759
 C    0.6522163304    3.0755142427    1.1819025627
 C    1.0314919507    2.3546332499   -0.0972735450
 C   -0.0524855908    2.8865186274   -1.0697576245
 C   -0.0745150595    2.9376143434   -2.5268302766
 O   -0.0783185981    4.1272111054   -1.7000356378
 H   -2.1378821013    2.1557002946   -0.3088704216
 H   -1.3739915176    3.3861893467    1.9749000166
 H    1.3437136740    3.4219761414    1.9354572924
 H    2.0731250684    2.2120864745   -0.3705154412
 H    0.8407073570    2.7741957469   -3.0928060812
 H   -1.0012246398    2.7495694662   -3.0658256601