16

 C   -0.2791553623    1.5402440890    0.1896589703
 C   -0.0679267300    0.0436135458   -0.0130942903
 C    0.5285618598   -0.5309906020   -1.3224372098
 C    1.1072353650    0.3954621921   -2.3739599704
 O    1.8701147609   -0.3295074942   -3.3168448790
 O    1.6270863097   -1.1438144581   -0.5480127964
 C    1.1711550031   -0.5914717702    0.6263203531
 O    1.6721941518   -0.6571035124    1.7013731989
 H    0.6045692014    2.1235097456   -0.0810163771
 H   -1.1242430924    1.9008969744   -0.4040373570
 H   -0.4971680701    1.7385409987    1.2426589966
 H   -0.9647182896   -0.5061604043    0.2890415333
 H   -0.0574346854   -1.3221816321   -1.7969328069
 H    0.2955848235    0.8802364165   -2.9272474330
 H    1.7043795419    1.1835878459   -1.8915732594
 H    2.5621490926   -0.7869098244   -2.8248056829