18

 C   -0.0298677046    1.5276206460   -0.0863106284
 C    0.0497277069    0.0141722576   -0.0006333138
 O    0.6824938318   -0.4621489527   -1.1791505875
 C    0.7547580513   -1.8628452820   -1.2148986997
 O    1.5036538767   -2.3938650332   -0.1522958995
 C    0.9352235669   -2.0589278788    1.0949530554
 C    0.8125372737   -0.5235112742    1.2427021713
 C    2.1293381214    0.0988638051    1.3880239755
 N    3.1627087851    0.5970871679    1.5264666739
 H    0.9711766082    1.9628280080   -0.1395496746
 H   -0.5839404303    1.8170776390   -0.9825390855
 H   -0.5437279758    1.9355193641    0.7895251462
 H   -0.9676813213   -0.4111115380    0.0595982046
 H   -0.2665218163   -2.2904198060   -1.2001848145
 H    1.2701544642   -2.1347262111   -2.1369650943
 H   -0.0727484886   -2.4950975002    1.1939666979
 H    1.5787792070   -2.4851981361    1.8668166945
 H    0.2286791137   -0.2970595954    2.1432280084