14

 C   -0.1208634250    1.4471374159    0.0550884128
 N   -0.2505245993    0.0117491747    0.2146249518
 C    0.5518196933   -0.6570150898    0.9140135554
 O    1.6300211732   -0.0374635520    1.5857335908
 C    2.5393048924   -0.6716904538    2.3566711769
 O    3.4247277351   -0.0932930265    2.8958442549
 O    2.4035688388   -2.0262154719    2.4979809660
 C    1.3842970982   -2.6907989222    1.8765808731
 C    0.4763650442   -2.0883548094    1.1121037571
 H    0.7239229991    1.8929529290    0.5881325388
 H   -0.0284961161    1.6715404095   -1.0133780524
 H   -1.0486655172    1.9202682084    0.3954513464
 H    1.4245414066   -3.7498325690    2.0928109321
 H   -0.3207830533   -2.6345509028    0.6308040363