19

 C   -0.2390239712    1.3550228603    0.0055779119
 N    0.1374340020   -0.0435349994   -0.0061760054
 C    0.0038748637   -0.7801606176    1.2421145477
 C   -0.0041643534   -0.7512707353   -1.1706477773
 N    0.0834475635   -2.0664158821   -1.2995648732
 C   -0.0715388934   -2.2603853621   -2.6466991213
 C   -0.0366940753   -3.6146243110   -3.2707603709
 N   -0.2565361498   -1.1626812749   -3.3542075727
 N   -0.2160581333   -0.1885290982   -2.3860917784
 H    0.2735973467    1.8987163809   -0.7955627696
 H   -1.3244332477    1.5160504174   -0.0991334590
 H    0.0804723511    1.7988249953    0.9512240727
 H   -1.0451662727   -0.8812244754    1.5596639408
 H    0.4195339376   -1.7777717118    1.1063960113
 H    0.5574820305   -0.2581404477    2.0282492072
 H   -0.8162572325   -4.2561799946   -2.8474850530
 H   -0.1877991813   -3.5350914760   -4.3485975372
 H    0.9237591500   -4.1043863172   -3.0806626515
 H   -0.3489524045    0.7726878591   -2.6430724824