17

 C   -0.0632798008    1.3748340649    0.0036871700
 N   -0.0261154917   -0.0609354793   -0.1812978040
 C   -1.2131814043   -0.8878058602   -0.0086215696
 C   -0.5805643173   -2.2811279953   -0.2288470228
 O    0.7826724510   -2.1193175438    0.1665676985
 C    1.1067321707   -0.7884621692    0.1368784707
 N    2.2542882280   -0.2998951420    0.3508196777
 C   -1.8549113302   -0.7374913588    1.3039700217
 C   -2.3740675776   -0.6012832102    2.3793565999
 H    0.9492035901    1.7528559971   -0.1387393412
 H   -0.7313641837    1.8291616882   -0.7349590815
 H   -0.4073764174    1.6505193977    1.0092131380
 H   -1.9481653068   -0.6689920599   -0.7923001153
 H   -1.0359120998   -3.0612604261    0.3813405767
 H   -0.6252924120   -2.5595417180   -1.2878532302
 H    2.9335215960   -1.0416736064    0.4998083548
 H   -2.8315546943   -0.4845261588    3.3311212365