13

 C    0.9342740455    1.0440113121   -0.0269665458
 O    0.1536071206    0.1592303436   -0.8298445241
 C   -0.4113965523    0.6195683405    0.4008212330
 C   -0.6171515869   -0.4081201760    1.4386916090
 C   -0.1489823403   -1.7012971909    1.4876208527
 N   -0.6483093874   -2.1754604538    2.6520006506
 N   -1.3867271721   -1.2505022484    3.2916946545
 N   -1.3700178768   -0.1782246638    2.5540113356
 H    1.8050528192    0.5987413308    0.4512355961
 H    1.0782429960    2.0434193321   -0.4348619996
 H   -1.2266833427    1.3345014613    0.3016432815
 H    0.4503225006   -2.2877315446    0.8134369488
 H   -0.5492700334   -3.0926157931    3.0574487077