19

 C   -0.1266766787    1.5381241167   -0.1108523202
 C    0.0391505989    0.0480846999    0.0847674801
 N    1.2480657753   -0.7349723114   -0.2749809938
 C    2.4375417620    0.0847726191    0.1252450088
 C    2.0285060970    0.0560520275    1.6291145137
 C    1.9239287877    1.2892725488    2.3960432690
 N    1.8446063358    2.2743334098    2.9971553430
 C    0.7466365455   -0.6681703858    1.1707255373
 C    0.1848555126   -1.8451226061    1.9112866082
 H    0.6604995148    2.1414304475    0.3416866891
 H   -0.1701233252    1.7721865278   -1.1802110363
 H   -1.0722199631    1.8580261864    0.3380757874
 H   -0.8341883253   -0.5065962982   -0.2559117258
 H    3.3574509334   -0.4669653257   -0.0704580769
 H    2.5018752677    1.0673954561   -0.3468714350
 H    2.6718267427   -0.6342099035    2.1812351464
 H   -0.3142800190   -1.5186474979    2.8311479980
 H   -0.5485729648   -2.3734558215    1.2963170958
 H    0.9718059027   -2.5556030296    2.1869761111