19

 C   -0.3729137370    1.3342251678    0.0607435822
 N   -0.1075697070   -0.0834310967   -0.0625611284
 C    0.5456875950   -0.6832311821   -1.1110782158
 C    0.7080526393   -2.0146191018   -0.8144699198
 C    0.1311570981   -2.2438271732    0.4717175502
 C   -0.3526600929   -1.0247857873    0.9049680969
 C    0.0621598869   -3.5465744237    1.1713931033
 C   -0.8818013424   -3.7822399872    2.2911842629
 N   -1.1125378572   -4.4438469540    0.9959822182
 H    0.4500250995    1.8625453529    0.5565124617
 H   -0.5171279993    1.7671138034   -0.9319258643
 H   -1.2866016539    1.4904952826    0.6394903875
 H    0.8347496950   -0.1073483713   -1.9763419933
 H    1.1656760591   -2.7570048045   -1.4508724381
 H   -0.8314556514   -0.7455250545    1.8302447517
 H    0.9942503053   -4.1082194118    1.1802983101
 H   -0.6034743576   -4.4473451590    3.1040615687
 H   -1.5439832406   -2.9719933439    2.5841543160
 H   -1.8278951391   -3.9264172056    0.4887350703