19

 C   -0.0818964433    1.5601833460   -0.0452913985
 C    0.0035796769    0.0272035340   -0.0183353924
 C    0.7542019924   -0.5153656476   -1.2404366967
 O    0.9989894336   -1.9045949817   -1.1181455952
 C    1.8906637760   -2.2080628736   -0.0695905747
 C    1.5638399256   -1.4782160382    1.2233040848
 C    0.6768205178   -0.4720554455    1.2327867407
 C    2.2539255872   -1.9183978985    2.3841046310
 C    2.8707109591   -2.3375015696    3.3310366032
 H    0.9160763195    2.0109320961   -0.0181377919
 H   -0.5876991109    1.9091603462   -0.9516516645
 H   -0.6420672927    1.9363464906    0.8164560789
 H   -1.0218478094   -0.3715587263   -0.0454888857
 H    0.1674923079   -0.3851347192   -2.1543444990
 H    1.7030130385    0.0346790797   -1.3635696935
 H    1.8278441783   -3.2892962753    0.0902537687
 H    2.9325008648   -1.9823880780   -0.3590502011
 H    0.4386866912    0.0244282697    2.1698810560
 H    3.4047705778   -2.6917817988    4.1775179400