17

 N    0.1173607622    1.4296219775    0.1436765232
 C    0.0260592062    0.0341239140    0.0379770273
 C   -1.0315061307   -0.8082363382   -0.1974077483
 N   -0.5968217994   -2.1120058376   -0.3144869935
 C    0.7020234559   -2.0650559984   -0.1466188989
 N    1.1360030069   -0.7846266666    0.0662096763
 N   -2.3696088819   -0.3778260162   -0.3200941851
 C   -3.2182600004   -1.1108579280   -1.2728092822
 C   -3.4094218170   -1.2868127781    0.1878844938
 H    0.3518488802    1.7308528607    1.0862615610
 H   -0.7923968770    1.8204006136   -0.0814630537
 H    1.3769910038   -2.9075387265   -0.1523927000
 H    2.0882171608   -0.4717999150    0.1540662463
 H   -3.9041820895   -0.4944666571   -1.8471524587
 H   -2.7521033271   -1.9311416293   -1.8102421393
 H   -3.0698866468   -2.2237842196    0.6191217645
 H   -4.2370818563   -0.8010260651    0.6971552774