22

 C   -0.0382548733    1.0454060196    0.7964221285
 C   -0.1791997632    0.2543502530   -0.5059297938
 N   -1.4237293755   -0.4942644375   -0.5822903237
 C   -1.4778838783   -1.8563954248   -0.4986285569
 O   -0.4850428865   -2.5527626527   -0.3754765157
 C   -2.8803617764   -2.4543891024   -0.6055796027
 C   -3.0682685477   -3.6364947818    0.3492973377
 C   -4.3762245914   -4.3780878057    0.1123245570
 O   -4.4608241026   -5.4254411532    1.0656447717
 H    0.9057568190    1.5995090260    0.8064333036
 H   -0.8517375231    1.7700411819    0.9145104338
 H   -0.0527433573    0.3737121405    1.6594701102
 H   -0.1102338217    0.9292582736   -1.3682242280
 H    0.6197046641   -0.4845459476   -0.5950301749
 H   -2.2881242633    0.0187957499   -0.6391244407
 H   -3.6484038210   -1.6889543699   -0.4397377492
 H   -2.9991561830   -2.7960907182   -1.6431027716
 H   -2.2277196819   -4.3247496821    0.2276349153
 H   -3.0445010023   -3.2898536090    1.3888919967
 H   -5.2277980827   -3.6829633090    0.2092132402
 H   -4.3969722326   -4.7715018017   -0.9179959442
 H   -5.2781059192   -5.9078612189    0.9117131368