23

 C    0.1183029388    1.5573831854    0.0925608462
 C    0.0573750351    0.0422169195    0.0326827896
 C   -1.2838726210   -0.4792861347   -0.4542707631
 C    1.2789403729   -0.7660177942   -0.3619261224
 C    2.6233516476   -0.1301323446   -0.6824525650
 C    3.3476544538    0.4549343670    0.4992742716
 C    2.9044501926    0.4231689941    1.7540266058
 C    1.6082442051   -0.2028857393    2.1914068539
 C    0.7732294084   -0.8022626603    1.0697890989
 H    1.0820921303    1.9312010895    0.4424556055
 H   -0.0684498377    1.9897991001   -0.8980039760
 H   -0.6557142336    1.9477101925    0.7645884515
 H   -1.5089341448   -0.1110678921   -1.4628175736
 H   -1.3020906841   -1.5733861080   -0.4884287325
 H   -2.0979595309   -0.1533249353    0.2048318386
 H    1.0640004339   -1.6463229188   -0.9616251421
 H    3.2710657910   -0.8918773552   -1.1388138076
 H    2.5121005064    0.6425861845   -1.4581997914
 H    4.3039820117    0.9260707478    0.2826339186
 H    3.5052603014    0.8688248620    2.5438892032
 H    1.8379798922   -0.9945860141    2.9183776770
 H    1.0224264349    0.5358219093    2.7591947769
 H    0.2434908861   -1.7051295851    1.3613087466