17

 C   -0.0796265351    1.4780462348    0.0251050825
 C    0.0291262585   -0.0158172807   -0.0200238068
 C    0.9509441474   -0.8553270437   -0.9061515478
 C    0.0943923420   -2.0657308997   -0.4415960058
 N    0.4772310760   -2.1627450201    1.0204959896
 C   -0.3118243514   -0.9169843106    1.1754877976
 C   -1.0862849907   -1.0501192868   -0.1041866099
 C   -0.0009472678   -3.2844379544   -1.1990373895
 N   -0.1002851619   -4.2615368115   -1.8096942864
 H    0.8375118460    1.9279380307    0.4214753617
 H   -0.2538802901    1.8936530724   -0.9732427020
 H   -0.9087221632    1.7950984603    0.6666325308
 H    0.7947016638   -0.6332648938   -1.9643141213
 H    2.0163734047   -0.9182853270   -0.6693283958
 H   -0.0794534366   -2.9191438509    1.4210711679
 H   -0.6035380823   -0.5221915453    2.1396977871
 H   -2.1298809891   -0.9961436337   -0.3841944319