16

 O    0.0397037623    0.0213572097    0.0372591414
 C   -0.0063160910    1.2050248909    0.1410804576
 O    1.1075694740    1.9757006812   -0.1162956373
 C    0.9823733651    3.3324103716   -0.1131639113
 N   -0.1194710137    3.9614382923   -0.1704226279
 C    0.1830024335    5.3749103563   -0.0825994383
 C    0.7714078113    5.8477919095    1.2207928210
 C    1.6907925625    5.5499247038    0.0585814307
 C    2.2598284550    4.1426262968   -0.0322485387
 H   -0.8689810682    1.8118570828    0.4450893798
 H   -0.4523755564    6.0278709082   -0.6677660316
 H    0.6367232665    6.8918998920    1.4821070270
 H    0.7423478688    5.1628565824    2.0633498428
 H    2.2184076113    6.3679340827   -0.4144655498
 H    2.8654467265    3.8396180103    0.8285717626
 H    2.8725848827    3.9848545395   -0.9274179580