20

 N    1.2097719583   -0.8634192612   -1.3390149875
 C    0.9350885946    0.1929626840   -0.9560570225
 C    0.5543218363    1.5226598740   -0.5064904289
 C    0.5094585179    1.8161324658    1.0348781395
 C    2.0634607779    1.7067317961    1.0052714155
 C    1.6815879279    2.5788631489   -0.2281483426
 C    0.6490172972    3.3494230074    0.6846663344
 C   -0.5322759102    4.0758675113    0.0272108348
 C    1.1985761905    4.2910693552    1.7631698709
 H   -0.2969209755    1.8548507419   -1.0959125963
 H   -0.1777470337    1.3550876827    1.7461960551
 H    2.6254358583    2.1739208619    1.8089484380
 H    2.4665047705    0.7181687730    0.7823018625
 H    2.3514173728    3.0010456400   -0.9790656378
 H   -1.0352128822    3.5278214921   -0.7699722192
 H   -1.2887497721    4.3143900346    0.7828608594
 H   -0.1934766736    5.0269725898   -0.3979537677
 H    1.5063245103    5.2386142198    1.3072919973
 H    0.4110871336    4.5257067296    2.4878613771
 H    2.0509029311    3.9049077630    2.3206898280