18

 N    0.0023756249    1.3479712362    0.3430972076
 C    0.0103535845    0.1307720034   -0.0007678082
 C   -1.2637244221   -0.6815869525   -0.0741228546
 C   -1.2955883010   -1.6244174838    1.1027556471
 C   -0.6737342579   -2.8078365415    1.1458178824
 C    0.0649646916   -3.4559085319    0.0636136811
 C    0.8174938070   -2.9373769980   -0.9166965319
 C    1.2701065969   -1.5333496936   -1.2151071810
 O    1.1822232580   -0.5554525354   -0.1801708123
 H    0.9613541485    1.7013125800    0.3825315076
 H   -2.1011521707    0.0156257252   -0.0478081759
 H   -1.3087886092   -1.2499206005   -1.0095853982
 H   -1.8265495228   -1.2743312126    1.9831621681
 H   -0.7812851936   -3.4050820942    2.0490374848
 H   -0.0183698957   -4.5421269018    0.0644641617
 H    1.2243414161   -3.6392083433   -1.6445262746
 H    2.3390586596   -1.5730260965   -1.4553901052
 H    0.7731077559   -1.1638575693   -2.1257542586