14

 C   -0.0664495622    1.5450910020   -0.0777420157
 C   -0.0397222728    0.0375242260    0.0433012962
 O    1.2379037636   -0.5858202171   -0.1622113399
 C    0.6892803643   -0.6377957366    1.1606214840
 C    1.3561963694    0.0979460308    2.1995645206
 C    1.9021101615    0.6875408421    3.0937745551
 C   -1.1651206626   -0.6593731278   -0.5374466455
 C   -2.1151556064   -1.2117754564   -1.0239466453
 H    0.7961221766    1.9804031764    0.4289262445
 H   -0.0448528015    1.8317736558   -1.1329028236
 H   -0.9827930815    1.9445300358    0.3662636307
 H    0.3319497808   -1.6249922552    1.4507616333
 H    2.3886955018    1.2096262612    3.8806644086
 H   -2.9495912811   -1.7078878370   -1.4552350230