17

 O    0.5441078007    0.3345647677   -0.8593221641
 C   -0.1711413881   -0.3665376118    0.1194517314
 C    0.1343484828   -0.1389864878    1.6284388832
 C   -1.3761350987   -0.2891047885    1.9095457473
 C   -1.6585607059   -0.0093137456    0.4087568238
 O   -1.6402240305   -1.6440030002    2.2760873541
 C   -2.9019461323   -1.9294658051    2.6512840065
 N   -3.2447329928   -3.1257437109    2.8624749068
 H    0.4822043520    1.2758505052   -0.6643479907
 H   -0.0711462081   -1.4233983891   -0.1376976515
 H    0.7987260138   -0.8364136418    2.1407374765
 H    0.4666514377    0.8875643176    1.8147047626
 H   -1.8269501949    0.3868116640    2.6433375137
 H   -1.8470417155    1.0568539523    0.2400289107
 H   -2.4425841780   -0.5948188373   -0.0759432775
 H   -3.5397935530   -1.0402218193    2.7568425170
 H   -4.2161074492   -3.1589885894    3.1649836503