16

 O    0.0207727108    0.0199430418    0.2257039572
 C   -0.0565356836    1.1961465863    0.0391987091
 C   -1.1689147642    2.2371129394   -0.0653585066
 C   -1.4376221315    2.8859953503    1.3432332049
 C   -0.1980887067    3.8456991722    1.1625410387
 C    1.0885432720    3.4211507530    1.8459105391
 C    1.7101494223    2.4888923374    1.1205262385
 N    0.9906029291    2.1910565489   -0.0951820729
 C   -0.0259767415    3.2759982324   -0.2656944179
 H   -2.0188952062    2.0632574208   -0.7229846931
 H   -2.3804085306    3.4371078549    1.3329878612
 H   -1.4278926740    2.2127761030    2.2021356459
 H   -0.4346190473    4.9050390948    1.2652296601
 H    1.4309534799    3.8044815110    2.7982095975
 H    2.6148727231    1.9416868893    1.3457822560
 H    0.1182553682    3.9114334644   -1.1387201677