14

 N    0.0919337789   -1.0658311400    0.0304115292
 C    0.0144266474    0.0879361191    0.0077885108
 C   -0.0294444203    1.5191314317   -0.0239925082
 O   -1.0994064301    2.1136462321    0.6666214247
 C   -1.3495895999    3.3874359143    0.0498068305
 C   -0.0733913368    3.6681527755   -0.7234115719
 O    1.0218593687    3.6597515453    0.2531894418
 C    1.2944843087    2.3139487951   -0.0898355638
 C    0.3662921048    2.2885203767   -1.2666293696
 H   -2.2287387593    3.3349868145   -0.6089494204
 H   -1.5229345795    4.1214149185    0.8407071146
 H   -0.0545335910    4.5450543151   -1.3694394776
 H    2.2780520933    1.9017438626    0.0991275154
 H    0.4279805552    1.9211459394   -2.2807374056