16

 N   -0.0071153228   -1.1529135623    0.0322130030
 C   -0.0131107655    0.0038546220    0.0245988459
 C   -0.0276242344    1.4438228423    0.0151311318
 C   -0.3673310163    2.1771758499   -1.3094924899
 O    0.8164333966    3.0030234353   -1.1980177974
 C    1.2677356112    2.3023680325   -0.0189481575
 C    0.9165623852    2.9314405938    1.3439500887
 C   -0.4105775672    3.6251280665    1.2700901154
 C   -0.3938972871    2.1273676709    1.3648106532
 H   -0.3211378715    1.5283604926   -2.1903296756
 H   -1.2930136220    2.7613318348   -1.3232454610
 H    2.2632709524    1.8690256519   -0.1259052381
 H    1.6285024742    3.1070330694    2.1400518193
 H   -0.7166764113    4.1202090795    2.1855987911
 H   -0.7007831183    4.1435018824    0.3636016139
 H   -0.8559237031    1.5910383086    2.1830809672