16

 C   -0.0383195498    1.5111094960   -0.1691429163
 O    1.2716436716    1.9900277103    0.1731789261
 C    1.9810851013    1.0101124283    0.8740060249
 O    1.9405814355    1.3143447306    2.2876121086
 C    0.8067578782    0.9737658668    2.9396382931
 N   -0.0963683239    0.1580406620    2.5829847867
 C    0.1280170815   -0.5847398469    1.3816316068
 C   -0.0046232153    0.0021362578   -0.0092092176
 C    1.3596147292   -0.3374156569    0.5431844100
 H   -0.7849278819    1.9889082096    0.4770335260
 H   -0.2372124253    1.7971597228   -1.2063261470
 H    3.0398516779    1.0915658540    0.6270179221
 H    0.7409410428    1.4931369390    3.8937539068
 H   -0.2154974691   -1.6109877380    1.4668297445
 H   -0.4699457460   -0.6125031683   -0.7698034133
 H    1.9915216531   -1.1336700870    0.1722931585