17

 O   -0.1781269358    0.0503319116   -0.2600674248
 C   -0.1410504622    1.2359608351   -0.1360047910
 C   -1.1855940922    2.3464078734    0.1004885384
 C   -2.1399603810    2.2458811081    1.2675474623
 C   -2.9556726583    1.0224109477    1.4634570818
 N   -1.8865074747    1.3633423292    2.4215306864
 C    0.0329857288    3.2798163764    0.1354100306
 C    1.0522775445    2.8343373880    1.0915214956
 N    0.9903827101    2.1371912069   -0.2365443031
 H   -1.7468214846    2.5000875861   -0.8296108477
 H   -2.5768257139    3.2003096693    1.5564808386
 H   -3.9669498588    1.1001314309    1.8517043964
 H   -2.7804684408    0.1917022857    0.7855535105
 H   -1.0903781100    0.7568686587    2.2363129289
 H    0.1028069732    4.2202283267   -0.3973657953
 H    1.9561683880    3.4253027540    1.1930195627
 H    0.7685306779    2.2865343123    1.9851567597