21

 C    0.3799869222    1.5683232014   -0.0083805714
 C    0.0258489871    0.0812298307   -0.0244649418
 O    0.5374836154   -0.4061439057   -1.2645126901
 C    0.5452734504   -1.7921442877   -1.5551521392
 C   -0.3953925422   -2.6905693487   -0.7076264929
 C    0.7953335534   -2.9227023659    0.2722407466
 C    1.7445139394   -2.5435697601   -0.9125908373
 C    0.8340724760   -1.8993641391    1.3751534626
 C    0.5182611345   -0.6115588275    1.2337902457
 H    1.4649458931    1.6997585640    0.0410861008
 H    0.0144674754    2.0483331415   -0.9191425599
 H   -0.0737426331    2.0622744382    0.8559366127
 H   -1.0751754151   -0.0006094137   -0.0420678771
 H    0.4465689711   -1.8587669742   -2.6422570497
 H   -1.3158143459   -2.2618388896   -0.3072125144
 H   -0.6416350073   -3.6012281596   -1.2603136601
 H    0.9027902043   -3.9307428058    0.6784210749
 H    2.0337152590   -3.4192470017   -1.5018826595
 H    2.6250478000   -1.9418106941   -0.6810175326
 H    1.1654248431   -2.2448530607    2.3514719078
 H    0.5778478488    0.0379022083    2.1045909250