14

 N   -0.0846365300    1.4614631958    0.0134304363
 C   -0.0184299268    0.0495534183   -0.0143075414
 C   -1.1084178443   -0.7949419381    0.0032136966
 N   -2.4572024225   -0.4872935797    0.0495188374
 C   -3.4631839780   -1.4095565953    0.0629173055
 O   -3.2880935176   -2.6115967286    0.0360260634
 N   -0.5836650924   -2.0358106976   -0.0349520489
 N    0.7695818212   -1.9802420974   -0.0756020532
 N    1.1033598613   -0.7218300674   -0.0621978040
 H    0.4141766544    1.8288542704    0.8190258624
 H    0.3653107638    1.8585032791   -0.8067398176
 H   -2.6670770815    0.5012405562    0.0736692915
 H   -4.4602711120   -0.9390181873    0.1017536552
 H   -1.0999242856   -2.9035582183   -0.0350754232