21

 C    0.0564547102    1.5159981619   -0.0615475865
 C   -0.0079068873    0.0167859431    0.0242064767
 O    0.3941539631   -0.7060910537   -1.1925051604
 C   -0.2436738803   -1.8409906978   -0.5287768001
 C    0.6610631658   -2.0111660892    0.7016591150
 C    0.8206899222   -0.7428100443    1.0819204596
 C   -1.3531870756   -0.8418980357   -0.0129086670
 C   -2.1304390380   -1.1262359561    1.2676645462
 C   -2.3139730804   -0.4018848265   -1.1193286434
 H    1.0806522413    1.8408017332   -0.2708885449
 H   -0.5913626526    1.8960136705   -0.8555946980
 H   -0.2565738776    1.9658944372    0.8864005593
 H   -0.4552550549   -2.6881403173   -1.1816462010
 H    1.0252992001   -2.9330599859    1.1307013822
 H    1.3588554983   -0.3120918449    1.9143142892
 H   -1.4888538702   -1.4449084666    2.0899037000
 H   -2.6769492270   -0.2311979189    1.5872402148
 H   -2.8772328876   -1.9095649951    1.0932022118
 H   -3.0684193181   -1.1766028719   -1.2979367828
 H   -2.8525303167    0.5067490188   -0.8255384059
 H   -1.7855905546   -0.2084488910   -2.0530858648