18

 C   -0.0673347670    1.5805942436   -0.0296989408
 C    0.0801092979    0.0720540189   -0.0677077686
 C    0.7519086410   -0.6832004086   -1.2441778264
 C    2.1598757999   -0.0410698914   -1.3411944695
 C    2.3823676412   -0.5772649930    0.0691535087
 C    3.6325287160   -0.6793877587    0.8362111340
 O    4.7096381815   -0.3425132557    0.4043654283
 C    1.3142685449   -1.6191233402   -0.1090378068
 N    1.0846722904   -0.5507187555    0.8716195448
 H    0.8780210026    2.0990204012   -0.2049840050
 H   -0.7865446384    1.9120122755   -0.7865265909
 H   -0.4409790269    1.8918156251    0.9508316677
 H   -0.8763703723   -0.4031545248    0.1746500150
 H    0.2033127989   -0.9763967634   -2.1371026650
 H    2.7991454873   -0.5798134362   -2.0436197037
 H    2.2370224916    1.0327984758   -1.5269500083
 H    3.5088158848   -1.1016774820    1.8563486974
 H    1.3002445264   -2.6796715306    0.1071418492