19

 C   -0.1271667119    1.5233384687    0.0423700610
 C   -0.0399403719   -0.0004964840   -0.0120636858
 C   -1.4412704261   -0.6296674720   -0.0363927015
 C    0.8068684635   -0.4283077467   -1.2099430421
 O    1.1084757627   -1.8354620776   -1.2103206194
 C    1.3092925976   -2.4850480978   -0.0442452579
 O    1.6826715944   -3.6256290154   -0.0440850217
 C    0.9730577900   -1.7577765857    1.2544033473
 O    0.6897622528   -0.3785207697    1.1626013766
 H    0.8713687996    1.9598211760    0.1281666858
 H   -0.6116970844    1.9199075395   -0.8546158774
 H   -0.7095578185    1.8308603051    0.9147727066
 H   -2.0247881895   -0.2231314458   -0.8677429197
 H   -1.4106857391   -1.7155460193   -0.1584583692
 H   -1.9643354145   -0.4005492614    0.8961569561
 H    0.2927329242   -0.2419789335   -2.1565127954
 H    1.7513336323    0.1273355244   -1.2071850209
 H    0.1391370030   -2.3177132283    1.7048644463
 H    1.8299933559   -1.8693883965    1.9239050712