15

 C    1.0621760087    0.8171853529   -0.5747138327
 C    0.0517012660   -0.1013213655    0.0740401597
 O    0.5421379980   -1.2577661779    0.7700512443
 C   -0.1101521574   -0.2498984876    1.5446896184
 C    0.7117368575    0.5492448480    2.5361295030
 N    2.0236424937    0.1962859828    2.5895632654
 O    0.1926766117    1.4197652286    3.2024161852
 C   -1.1275846194   -0.3691221206   -0.7381444853
 N   -2.0543316936   -0.5580260866   -1.4017602215
 H    1.8987541577    1.0014020439    0.0996942017
 H    1.4365659592    0.3660314683   -1.4977343183
 H    0.5901899101    1.7709929123   -0.8263920944
 H   -1.0975484440   -0.5096056527    1.9205370790
 H    2.3399402158   -0.6300984158    2.1090874647
 H    2.6024983861    0.6137662599    3.3001623807