22

 C   -0.0179543700    1.4818282690   -0.2952563455
 C   -0.0904517343    0.0732330770    0.3058285515
 C   -1.4660833466   -0.5408048645    0.1437866811
 C   -1.8707513144   -1.2169601319   -1.1502634057
 O   -0.9342536370   -1.3808402573   -2.1705566042
 C   -1.6990812747   -2.0448544746    0.1031183583
 N   -0.5515709149   -2.9139263764    0.0730918242
 C   -0.1360175926   -3.5386902432    1.3265277384
 C   -0.7942289861   -4.3425169734    0.2601979847
 H    0.9725094569    1.9243446196   -0.1483080483
 H   -0.2210532038    1.4475987714   -1.3696070106
 H   -0.7534777600    2.1506332281    0.1659784739
 H    0.6557436473   -0.5659380491   -0.1729657869
 H    0.1704519675    0.1073166353    1.3714410009
 H   -2.2620634641    0.0126453009    0.6388984453
 H   -2.8704388915   -1.0502028533   -1.5407801241
 H   -0.3047062320   -2.0402981747   -1.8417837098
 H   -2.5845619078   -2.4328084991    0.6113677839
 H    0.9357846692   -3.6089226625    1.4876654384
 H   -0.7199818942   -3.3137691885    2.2160885390
 H   -1.8208695307   -4.6599015675    0.4313045511
 H   -0.2098061262   -5.0088106555   -0.3673767756