19

 O    0.0513384662    1.4737635043   -0.0746269738
 C   -0.0164964430    0.0445593685    0.0073927940
 C    0.7470449842   -0.4650238551    1.2012305510
 C    0.1701054871   -1.0716253385    2.2402985560
 C   -1.3086882498   -1.3404356779    2.3387826201
 C   -2.1138239138   -0.4518399742    1.3776912681
 C   -1.4595153829   -0.4495237192    0.0150875808
 C   -2.2383347190   -0.3853355895   -1.2215419236
 O   -1.6893909469   -1.6310192576   -0.7729331987
 H   -0.0502018656    1.8165921580    0.8197286353
 H    0.4459936840   -0.3175821465   -0.9177890240
 H    1.8196152610   -0.2890674019    1.1894314397
 H    0.7876044769   -1.4150249465    3.0673837402
 H   -1.4993800236   -2.3972234919    2.1057321977
 H   -1.6485209067   -1.1944082426    3.3705871000
 H   -3.1491307907   -0.7949249992    1.3001965473
 H   -2.1355978701    0.5773808980    1.7595879307
 H   -3.3240087525   -0.3096261734   -1.1713641039
 H   -1.7857931850    0.0300746349   -2.1208339668