18

 O   -0.5968068766    0.6263612254    0.5773947513
 C    0.1748451745    0.9535220242   -0.2909454869
 C    1.2691625245    1.9707020642   -0.1497199560
 C    1.1386349011    3.3236826883   -0.9116236912
 C   -0.2038364112    4.0584018937   -0.7244609120
 C    0.3179363728    4.5077217237    0.6546272013
 C    0.2350519160    3.4357129272    1.7568070453
 C    1.4909147793    2.7964128776    1.1316464598
 N    1.7449067207    4.0581032589    0.2874224708
 H    0.1013027409    0.5082883829   -1.3114547212
 H    2.2087382281    1.4987614659   -0.4635957965
 H    1.6349997740    3.3982308287   -1.8807470738
 H   -0.2870508049    4.8984391324   -1.4186323397
 H   -1.1313377285    3.4799051589   -0.7609014044
 H    0.1610397132    5.5495911355    0.9401950397
 H    0.4684955387    3.8596531586    2.7368155201
 H   -0.6665323672    2.8276196707    1.8335857286
 H    2.2790800346    2.4565850830    1.8054328247