20

 C    0.4049146419    0.6055086597   -0.5975997480
 O   -0.1085111447    0.5342472450    0.7262410346
 C    0.5361225648   -0.3212996430    1.5711734004
 C    0.1270300509   -0.5302084155    3.0290902229
 C    1.3360160903   -1.4702384290    2.8512817655
 C    0.9446171226   -1.8341706172    1.3727968194
 N    2.2625242622   -1.4578817235    0.7715239996
 C    3.3422984255   -2.4236152643    0.9473398397
 C    2.0764800658   -0.4753659698    1.8851048300
 H    0.3567296569   -0.3672763004   -1.1003256356
 H   -0.2191443033    1.3265250734   -1.1302803141
 H    1.4480204096    0.9419568861   -0.6066276775
 H    0.2634464157    0.3236304205    3.6988997459
 H   -0.8435710437   -1.0053426324    3.1978382020
 H    1.7866460092   -2.1247868320    3.5917641537
 H    0.3376733380   -2.6703323091    1.0203175460
 H    3.2115115368   -3.2427724937    0.2321291694
 H    4.2983352259   -1.9380702613    0.7239805899
 H    3.4087484116   -2.8599644008    1.9579822453
 H    2.8075892341    0.2948169773    2.1382570009