22

 C   -0.5121594803    1.6219121409   -0.3649451639
 C   -0.0281514883    0.2050485999    0.0012292844
 C    0.8380261760    0.2815055246    1.2774067180
 C   -1.2494997873   -0.7072581899    0.1410031232
 C   -1.3006217264   -1.9632857344    0.9892425045
 C   -2.1072393844   -0.7489164543    1.3778108090
 C    0.9282996544   -0.2699814310   -1.1239604724
 N    0.8298170794   -1.5787207311   -1.4896590691
 O    1.7420736062    0.4814023291   -1.6295471887
 H    0.3412936803    2.2639682325   -0.5876841201
 H   -1.1574772805    1.6014858587   -1.2494020356
 H   -1.0853956497    2.0513091571    0.4623129252
 H    0.2708897186    0.6926530815    2.1177304493
 H    1.2300736686   -0.6973109132    1.5700289791
 H    1.6911576153    0.9381353366    1.0910249013
 H   -1.8135613678   -0.7733176592   -0.7870337839
 H   -1.8274894229   -2.8279015942    0.5981845814
 H   -0.4462330662   -2.2106152517    1.6092589125
 H   -1.7834264922   -0.1973135865    2.2530090900
 H   -3.1834528912   -0.7806914993    1.2502556358
 H    0.2104446731   -2.2148291084   -1.0201961117
 H    1.4987221152   -1.9321150877   -2.1538764282