23

 C   -0.4529621592    1.6563187408   -0.5036192431
 C   -0.1939538483    0.1761736293   -0.2029536588
 C    0.7809875318   -0.5087238644   -1.1799419517
 C    2.2440295219   -0.0856236917   -0.9464286057
 O    3.0994725903   -0.4385896366   -2.0123342923
 C    0.6381507823   -2.0248805077   -1.0604298290
 C   -0.5511950386   -2.7055912113   -1.7766567567
 C    0.5286809620   -3.4274974788   -2.6068449371
 O    1.5903852842   -2.7621513997   -1.8869849407
 H    0.4639620288    2.2512627823   -0.4570987186
 H   -0.8797872091    1.7853343441   -1.5040907220
 H   -1.1578932760    2.0826570498    0.2167815319
 H    0.1898828625    0.0668479276    0.8206061877
 H   -1.1526108475   -0.3589463313   -0.2200043673
 H    0.5248500337   -0.2194407245   -2.2091054152
 H    2.3075551970    1.0030919375   -0.8471205842
 H    2.5881596055   -0.5124718348    0.0138660132
 H    2.9240072632   -1.3710023136   -2.2015225244
 H    0.7613053445   -2.3230724349   -0.0096044393
 H   -1.1706435455   -3.3513139480   -1.1532082673
 H   -1.1931985495   -2.0247127577   -2.3389585846
 H    0.5804245277   -4.5148541025   -2.4806875156
 H    0.5503573783   -3.1913295940   -3.6766837093