16

 N   -0.0563566695    1.2798750857   -0.0764446649
 C   -0.0351223361    0.0188885880   -0.0568146684
 C   -1.2509893584   -0.8861091470   -0.0550174343
 C   -0.6691583417   -2.2281292836   -0.4602865946
 C   -1.4376896211   -3.4840334725   -0.5638876128
 N   -0.9196934554   -2.8228694925   -1.7799891108
 C    0.7818221458   -2.1454578871   -0.0153857168
 O    1.1006213552   -0.7428205473   -0.0290977320
 H    0.8941327727    1.6539967432   -0.0593072711
 H   -1.6679240900   -0.9216425364    0.9587598467
 H   -2.0296279333   -0.5083694160   -0.7200182120
 H   -0.9691586000   -4.4364275895   -0.3284344391
 H   -2.5046178472   -3.4456805755   -0.3576839661
 H   -1.6715059681   -2.3268081207   -2.2535402657
 H    0.9261521498   -2.5305732971    1.0021790772
 H    1.4521191673   -2.6651411115   -0.7026967452