17

 O    0.0595387054    1.3929189142    0.3488868430
 C    0.0126235863   -0.0126568589    0.3423629750
 C   -1.3845722735   -0.4945440555   -0.0933340943
 O   -1.7277226556    0.1336724041   -1.3361679305
 C   -1.4657416315   -1.9503429043   -0.1596533343
 C   -1.4682595125   -3.1524792519   -0.2458043198
 C   -1.5449514312   -4.6043334969   -0.2969164592
 C   -2.7379615738   -5.1555957397    0.4921574212
 O   -2.6976419076   -6.1747498529    1.1237007318
 H   -0.3624638250    1.6698482035   -0.4752516675
 H    0.7631884431   -0.4517735635   -0.3371819974
 H    0.2327740140   -0.3629569894    1.3553771515
 H   -2.1160548465   -0.1053028152    0.6242059161
 H   -1.2884427215   -0.3595917738   -2.0389595201
 H   -1.6773066153   -4.9362463108   -1.3382090199
 H   -0.6348944129   -5.0852552440    0.0759878935
 H   -3.6588445215   -4.5381326250    0.4192893309