19

 C   -0.1250554009    1.3755029197   -0.0507697312
 C    1.2849608666    0.9219836677    0.0971212883
 N    0.1898093815   -0.0435607978    0.0904382429
 C   -0.1387607340   -0.6470486909    1.3687074721
 C   -1.4983488676   -1.3463505832    1.3060970750
 C   -0.8841490031   -2.6205084806    0.8744650373
 C    0.4569170800   -2.0763363655    1.5014748513
 C   -0.1300072257   -2.5455768548    2.8397033020
 N   -1.5031824596   -2.5363094110    2.2278287395
 H   -0.5726731975    1.8859081867    0.8008238118
 H   -0.5109719846    1.6805461328   -1.0190671387
 H    1.9487603216    0.8888228523   -0.7618679326
 H    1.7763316664    1.1308630645    1.0463778953
 H    0.0473550041    0.0387711997    2.2151728006
 H   -2.4626827247   -0.9232090486    1.0574912215
 H   -1.1411538955   -3.3542789033    0.1234642867
 H    1.4793966700   -2.2725240010    1.1854751747
 H    0.1239615848   -3.5775604078    3.0945130368
 H   -0.0017821517   -1.9036774087    3.7202258169