20

 C   -0.2794096324    1.6028788081    0.0866678672
 C   -0.0141991111    0.0924349137    0.0095978473
 C    0.6389532730   -0.3261161948   -1.3193704226
 N    1.9327358836    0.2432926619   -1.6748181606
 C    2.9451632558    0.2225048697   -0.9271704669
 O    3.1149591878   -0.2165766477    0.3564398361
 C    2.1686733829    0.1446030786    1.3646675289
 C    0.7697907965   -0.4583031805    1.2055876960
 O    0.0118675839   -0.1736823659    2.3764711073
 H    0.6278113732    2.1892992837   -0.0846692285
 H   -1.0021228526    1.8957054414   -0.6812382021
 H   -0.6879537210    1.8727404655    1.0630238420
 H   -0.9863378508   -0.4166694856    0.0405575487
 H    0.7395319919   -1.4218969596   -1.3341361468
 H   -0.0508109960   -0.0708478792   -2.1306592403
 H    3.9066151397    0.5492620203   -1.3269296651
 H    2.6125821610   -0.2197243290    2.2968807630
 H    2.0984242621    1.2362134100    1.4325065660
 H    0.8813462418   -1.5464450737    1.0692579602
 H    0.4279098106   -0.6137423169    3.1247184801