16

 N   -0.1116041903    1.3238010024    0.1297211006
 C   -0.0420161327    0.0615765394    0.0301034381
 C   -1.2715737544   -0.8000832590   -0.0505653029
 C   -1.1344855904   -1.8028729778   -1.2073462243
 N    0.1199977262   -2.5463813827   -1.1797669047
 C    1.1186261784   -2.0046156330   -0.6257976892
 N    1.1537958527   -0.7137415240   -0.0337049219
 C    2.3407576985   -0.2843605629    0.5623013233
 O    3.3846623279   -0.8828861237    0.5080293749
 H    0.8007096552    1.7797311412    0.1169628266
 H   -1.3720376593   -1.3584563990    0.8891066821
 H   -2.1437466169   -0.1555655148   -0.1640484684
 H   -1.9592226854   -2.5209595820   -1.1810171426
 H   -1.2039684658   -1.2868912220   -2.1748927454
 H    2.0819871739   -2.5020507801   -0.5750817262
 H    2.2089284223    0.6588816279    1.1176669400