20

 C   -0.2232892990    1.2224486698   -0.8240221451
 C   -0.1927246425   -0.1957176402   -0.4955434481
 C   -0.1846706855   -1.3709783094   -0.2220475964
 C   -0.0939406039   -2.7725742374    0.0673272567
 C   -0.4409484095   -3.3322386781    1.4466677851
 C   -1.2863325496   -3.7282569453    0.2824460175
 N   -2.6886736867   -3.4423608532    0.2323460108
 C   -3.2297494817   -2.1116374085    0.4712834964
 C   -3.2484035528   -2.7070771334   -0.8965117193
 H    0.1255476649    1.8383201725    0.0127472734
 H    0.4188730399    1.4422576382   -1.6843420570
 H   -1.2369766404    1.5531858606   -1.0783270398
 H    0.7469950324   -3.2590519966   -0.4219798120
 H    0.2299615679   -4.0553298644    1.8971504889
 H   -0.8769107896   -2.6244964965    2.1432739253
 H   -1.0935631248   -4.7172644287   -0.1257729777
 H   -4.1360837143   -2.0929011049    1.0716456869
 H   -2.5471573411   -1.2844499654    0.6371669037
 H   -2.5549390791   -2.2837555341   -1.6191360943
 H   -4.1670182846   -3.1114813749   -1.3134541151