19

 C   -0.0844882841    1.5610983391   -0.2020927019
 C   -0.2047027200    0.0359712387   -0.2369357846
 C    0.9139231627   -0.6173336447   -1.0493715197
 C    0.8198350645   -2.1256404012   -1.0895889530
 O   -0.0056319831   -2.7981778457   -0.5293892267
 O    1.8193565589   -2.6401774378   -1.8586695494
 C    1.8743187835   -4.0610059228   -1.9937873132
 C    1.6698033584   -4.4437626119   -3.4482187658
 O    2.0208060993   -5.4945900260   -3.9121933307
 H    0.8634139934    1.8769278302    0.2478951921
 H   -0.1296384679    1.9888941248   -1.2099188973
 H   -0.8944674691    2.0052445042    0.3837404267
 H   -0.1896530977   -0.3682929049    0.7806327993
 H   -1.1718005306   -0.2571363735   -0.6593487880
 H    0.9220015471   -0.2542835541   -2.0847003226
 H    1.9015960075   -0.3583578714   -0.6466413499
 H    2.8499387128   -4.4133547806   -1.6486432723
 H    1.0871894523   -4.5205885941   -1.3850721150
 H    1.1490318023   -3.6659096382   -4.0511490582