15

 C   -0.0567334945    1.5106696335    0.0872415008
 C    0.0274273882   -0.0073854966   -0.0428429765
 C    0.7470180821   -0.4576926941   -1.2988368787
 O    1.2100888859    0.3095176453   -2.1183052203
 C    0.8784584979   -1.9153607255   -1.5140003939
 C    1.4748316630   -2.5771261153   -2.5516549893
 O    1.3775702433   -3.8743269375   -2.3686588448
 N    0.6530015068   -4.0405561513   -1.0971272552
 N    0.4020707456   -2.8984457151   -0.6690613247
 H    0.9402896381    1.9577223370    0.1105803210
 H   -0.5887634992    1.9476988738   -0.7615312049
 H   -0.5821294624    1.7866642663    1.0051983799
 H    0.5390771766   -0.4608935801    0.8166480057
 H   -0.9682337818   -0.4708565287   -0.0431729434
 H    1.9770528205   -2.2173475716   -3.4351733557