19

 C    0.1508107937    1.1833895585    0.1455779471
 O    0.0181449665   -0.2168223839   -0.1106785157
 C    0.5818499598   -0.6417056347   -1.2431466450
 N    1.2172191144    0.0764675291   -2.0896539181
 C    1.6258488319   -0.8528080958   -3.1530360555
 C    1.3784868394   -2.2840508315   -2.5883958846
 C    2.6518397625   -2.9199096523   -2.0367604819
 O    2.2737733875   -4.1014375606   -1.3422538301
 N    0.4151940385   -1.9915215041   -1.5199601114
 H    1.2053315592    1.4656195662    0.2074864263
 H   -0.3198805312    1.7663531659   -0.6504177567
 H   -0.3506667609    1.3590532819    1.0979723977
 H    1.0274164645   -0.6778043448   -4.0560796558
 H    2.6754542898   -0.6963192752   -3.4288860991
 H    0.9361209238   -2.9603044838   -3.3260192236
 H    3.3370191993   -3.1413081133   -2.8700388964
 H    3.1530583545   -2.2040982544   -1.3665160504
 H    3.0460547411   -4.4509502562   -0.8888445762
 H    0.4081881457   -2.6323968110   -0.7372404505