21

 C    0.1500519712    1.6388491218    0.1095648066
 C    0.0985990357    0.1257442395    0.1076486928
 C    1.2678379535   -0.7656851696   -0.3030434834
 C    2.6311000634   -0.2009388943   -0.6682507873
 C    3.3607163581    0.4609725225    0.4682405577
 C    2.9414758070    0.4704262864    1.7314682695
 C    1.6776399126   -0.1864278354    2.2161955672
 C    0.7893784228   -0.7594923361    1.1213729173
 O    0.0987203543   -1.9273926532    1.5031156496
 H    1.1175115325    2.0221470484    0.4399991126
 H   -0.0389469814    2.0347612776   -0.8949237582
 H   -0.6184477138    2.0550523156    0.7712460174
 H   -0.8626494200   -0.2792957988   -0.2005587908
 H    0.9779221212   -1.6472964185   -0.8656431899
 H    3.2586134545   -1.0169592393   -1.0537692222
 H    2.5411333224    0.5056263266   -1.5067416163
 H    4.2982455058    0.9497086514    0.2130148396
 H    3.5406954446    0.9660926324    2.4917409280
 H    1.9427291766   -1.0234063644    2.8762098557
 H    1.1127307242    0.5177186597    2.8465184469
 H   -0.5977416751   -1.6681584022    2.1169932669