19

 C   -0.0126718065    1.4585393638   -0.0344353360
 C    1.2807008855    0.7103929504    0.0049601679
 C    2.2034139996    0.7934681369    1.1754977128
 C    2.4809997586   -0.1933846918    2.0295364188
 C    1.8936030912   -1.5604444482    1.9727018125
 N    0.9019558264   -1.9225603746    3.0152854500
 C    0.4724498845   -1.7891958769    1.6109815910
 C   -0.4019549790   -0.5935890633    1.3043674217
 N   -0.0014182445   -0.0010652341    0.0267924333
 H   -0.3009625018    1.9953083220    0.8685388116
 H   -0.3682572440    1.9006122385   -0.9615620029
 H    1.8016141010    0.6044593703   -0.9483564808
 H    2.7203468735    1.7452571099    1.2910154888
 H    3.1976470555   -0.0149286793    2.8292069801
 H    2.6008873484   -2.3428219194    1.6968456819
 H    1.0053495195   -2.9051652629    3.2563757066
 H    0.2464172788   -2.6974756440    1.0570814554
 H   -1.4539661515   -0.8906570097    1.2203611132
 H   -0.3261578553    0.1068021722    2.1472208140