19

 C   -1.3780947051    0.2609941052   -0.0749372421
 O    0.0484283792    0.1712788951   -0.0998248432
 C    0.5571782476   -0.6639296894   -1.0378168891
 C    0.5522849746   -2.0449206977   -1.1411068718
 C   -0.0838426249   -3.0329871573   -0.2130096378
 C    1.3130545750   -2.2766265503   -2.3074034139
 N    1.7553859658   -1.1546512466   -2.8699839921
 N    1.2761795244   -0.1678623788   -2.0825156142
 C    1.5795945012    1.2160847718   -2.3684643536
 H   -1.7662318538    0.6267313197   -1.0331324622
 H   -1.8343787527   -0.7090074072    0.1497203285
 H   -1.6280394910    0.9706936425    0.7159353256
 H   -1.1071935284   -3.2952312169   -0.5107254922
 H    0.4891347678   -3.9647666721   -0.1827527832
 H   -0.1294711545   -2.6411745889    0.8082337009
 H    1.5667296095   -3.2298090847   -2.7508346937
 H    1.1320782266    1.5188070705   -3.3197137503
 H    1.1771972473    1.8284579285   -1.5611976796
 H    2.6618438014    1.3564610766   -2.4287453461