15

 C   -0.0779572629    1.5512911869    0.0375463303
 C    0.1437212639    0.0782233601   -0.0234376513
 O   -0.7559036983   -0.7968291573    0.7045573344
 C    0.6436144178   -0.9344066651    0.9427062536
 C    1.1979530699   -1.8394920436   -0.1786685356
 C    0.6836551793   -0.7674751776   -1.1448264227
 N    0.7831387657   -0.5063218924   -2.3781506873
 O    1.4300617630   -1.5446863011   -3.0693584653
 H    0.8102133231    2.0871934229   -0.3095747729
 H   -0.9169187012    1.8400986917   -0.6035586568
 H   -0.3051605313    1.8571998347    1.0617541653
 H    1.0027406898   -0.8072226366    1.9571069178
 H    2.2885016745   -1.9213642011   -0.2080997873
 H    0.7487368450   -2.8324337925   -0.2454906949
 H    1.4386201916   -1.2128570390   -3.9737567774