17

 O    0.6317426928    0.2327969684    0.8872998086
 C   -0.0721555879    0.2855179428   -0.3406331077
 C   -1.4391628878   -0.3474614014   -0.2614370665
 C   -2.2572799760   -0.5063211976    0.9902737430
 C   -1.8954304220   -1.7286484687    0.1776467223
 C   -2.7833675792   -1.7642499869   -1.0760079129
 N   -2.2555446409   -0.4252933381   -1.4829802295
 C   -2.4559534658   -2.8121860963   -2.0453107083
 N   -2.2040102634   -3.6598615178   -2.7888398973
 H    0.2589515111    0.8997761476    1.4718236069
 H   -0.1768651768    1.3186383538   -0.7099115845
 H    0.5344426521   -0.2537400517   -1.0749948675
 H   -1.7040135425   -0.4288650288    1.9204898994
 H   -3.2859629599   -0.1533750971    1.0354530676
 H   -1.3241661124   -2.5590373710    0.5679052787
 H   -3.8615467253   -1.8026217485   -0.8760589286
 H   -2.9742106160    0.2906082513   -1.5626453837