15

 C    0.1157840125    1.3369067869   -0.5375618808
 C    0.0051940155    0.0473491585    0.2419973611
 O    0.8837528869   -0.3750505787    0.9624223203
 C   -1.2620717934   -0.7179082130    0.0722116474
 C   -1.7055716697   -1.7765257534    1.1146915917
 C   -1.4706204257   -2.1971690144   -0.2684592957
 O   -2.6181078244   -1.8767371468   -1.0925769463
 C   -2.4051531459   -0.5148864185   -0.8877271848
 O   -2.9683590697    0.3897748384   -1.4103502023
 H    1.0350576493    1.8546538544   -0.2633757919
 H    0.1193558225    1.1211592733   -1.6126061839
 H   -0.7574213808    1.9715605352   -0.3565254161
 H   -0.9103238998   -1.9794639963    1.8252578654
 H   -2.7180301092   -1.7413601449    1.5019668659
 H   -0.7553358879   -2.9084060004   -0.6555033099