21

 C   -0.0095702180    1.5055253083    0.0883405157
 C    0.2423803277    0.0098923152    0.0042982494
 O    0.4500138614   -0.4841990179    1.3150027630
 C    0.6687288693   -1.8606004920    1.3688319985
 C    2.0682202122   -2.4547399015    0.9376529156
 C    2.1721734218   -3.0530202395    2.3526250442
 C    2.8537282329   -4.3085045080    2.7880423254
 O    2.1644083461   -1.9290774294    3.2418801990
 C    0.9032732167   -2.4191210109    2.7705750856
 H    0.8468074096    2.0119520604    0.5421524914
 H   -0.1721306789    1.9220268535   -0.9102979188
 H   -0.8922160636    1.7122171084    0.7002026830
 H   -0.6163769811   -0.5038639461   -0.4611506288
 H    1.1219524833   -0.1978538592   -0.6264084523
 H   -0.1423606853   -2.4095863268    0.8633903720
 H    1.9951471852   -3.1877774842    0.1308293615
 H    2.8428061927   -1.7183406088    0.7126099437
 H    3.9416055937   -4.2094616500    2.6995352446
 H    2.6161791173   -4.5300675564    3.8318762412
 H    2.5432284589   -5.1554240304    2.1675601143
 H    0.1706386181   -2.7003687548    3.5191355418