17

 O   -0.1274958469    1.3502392684   -0.3717891448
 C   -0.0187687279    0.0074660832   -0.0098574347
 C   -0.1791763350   -0.3785086804    1.4509226450
 C   -1.2970320243   -0.6555253199    0.4744924992
 C   -2.5684846933    0.1283138467    0.5133270820
 C   -3.7250653031   -0.2964548622   -0.3131912074
 N   -3.7622342816   -0.4542928221    1.1521186774
 C    0.8879595301   -0.7700672311   -0.8286863137
 N    1.6260882679   -1.3801876056   -1.4776658056
 H    0.6996840346    1.7933880985   -0.1496050609
 H    0.4045413642   -1.2064300048    1.8356545001
 H   -0.3105219083    0.4576364478    2.1295436612
 H   -1.4137499354   -1.6918303685    0.1683509980
 H   -2.4400246599    1.1869556656    0.7146384302
 H   -4.4091107131    0.4464051569   -0.7125296000
 H   -3.6085214136   -1.1822631356   -0.9328061969
 H   -3.5858685144   -1.4257545469    1.3995729307