17

 C   -0.0550805107   -1.1656378593   -0.1639130528
 C   -0.0268299353    0.0343535020   -0.0743236210
 C   -0.0111845704    1.4609388077    0.0497149330
 C    0.4530561746    2.2907699721   -1.1354820831
 C    1.3110335765    2.2498293431    0.0967452945
 C    1.1150680170    3.3650920675    1.0953316375
 O    0.1123561225    4.3244979115    0.7275813124
 C   -0.2430870583    3.2942166375    1.6599381098
 C   -0.9823912899    2.1078433471    1.0602260156
 H   -0.0771130332   -2.2235113495   -0.2487062768
 H    0.7953631639    1.7355092787   -2.0006843052
 H   -0.0741636056    3.2137398865   -1.3425463860
 H    2.2612563411    1.7312954303    0.0789685969
 H    1.9686682688    3.7657907636    1.6341888719
 H   -0.5014384255    3.6469889362    2.6558365109
 H   -1.9295184336    2.4045508212    0.5985258708
 H   -1.2112606119    1.3878216538    1.8519318416