18

 C   -0.0278986621    1.5655856936    0.1832621819
 C   -0.0334950567    0.0468304309    0.0069099541
 C    0.7143310201   -0.4550214874   -1.2698846924
 C   -0.0050823193    0.0209887321   -2.5823908490
 O   -1.3493473742   -0.3832870737   -2.6308473249
 C    2.1087371453   -0.0101582349   -1.3021431793
 C    3.2395070481    0.3904890966   -1.3586629683
 C    0.6633332619   -1.9305078720   -1.2796218671
 N    0.5538676463   -3.0804151530   -1.3232407302
 H    0.9907410603    1.9630611697    0.1959363444
 H   -0.5857934791    2.0722806786   -0.6093581458
 H   -0.5041560972    1.8251648729    1.1329250133
 H    0.4308524647   -0.4323467339    0.8736955425
 H   -1.0595777313   -0.3236581579   -0.0637671794
 H    0.0034763484    1.1127013903   -2.5974553392
 H    0.5741929281   -0.3367068779   -3.4429302311
 H   -1.3745043120   -1.3392000651   -2.7574929411
 H    4.2451102386    0.7310225611   -1.4008772584