20

 C    0.1109476162    1.6409951168    0.0558687543
 C    0.1114493222    0.1095905743    0.0952348487
 C    0.6003279304   -0.5257806807   -1.2161690335
 N    1.9899064908   -0.2215324149   -1.5306768675
 C    2.8352232501   -1.2248633062   -1.1009441696
 O    4.0275917416   -1.1872669727   -0.9773456942
 O    2.0754658790   -2.3300435035   -0.8349304953
 C    0.7096186447   -2.0753335533   -1.2208050717
 C   -0.2255840681   -2.8572565476   -0.3196548501
 H    1.1203928168    2.0457291216   -0.0740210539
 H   -0.5103649656    2.0179362552   -0.7642636123
 H   -0.2822830793    2.0542599157    0.9888449143
 H    0.7379137650   -0.2417551228    0.9238897780
 H   -0.9065992581   -0.2450314676    0.2939959068
 H   -0.0559051018   -0.2033236814   -2.0336250489
 H    2.3508288591    0.7184931761   -1.5124380483
 H    0.5970931183   -2.4205518053   -2.2572248940
 H   -0.1100356643   -2.5672047306    0.7270061585
 H   -1.2659930801   -2.6945515431   -0.6181769618
 H   -0.0104123067   -3.9253859800   -0.4046136996