16

 C    0.5006885325    0.9978408212   -0.7432905957
 C    0.0255950212   -0.0240302828    0.2869351034
 O    0.2573121417    0.4065736525    1.6299521995
 C   -1.4139160544   -0.3990488645    0.1122563869
 C   -2.3181355381   -0.1663782031   -0.8505974101
 O   -3.5223630754   -0.7527696298   -0.5273465284
 C   -3.3906126849   -1.3724008466    0.7078151239
 O   -4.2756709256   -1.9463481103    1.2778195618
 N   -2.0794040878   -1.1662512642    1.0727568376
 H    1.5471408078    1.2465999595   -0.5541310198
 H    0.4156471199    0.6011679705   -1.7595765924
 H   -0.0938164116    1.9160196504   -0.6841785849
 H    0.6393249575   -0.9302205080    0.1998966022
 H   -0.2300764515    1.2287802944    1.7613129736
 H   -2.2667208378    0.3490465997   -1.7930842327
 H   -1.7155616736   -1.4001321187    1.9803825150