22

 C    0.0342019124    1.5621443277   -0.0223259463
 C    0.0281400635    0.0391941867    0.1197030895
 O    0.6838489448   -0.3738812312    1.3186572306
 C   -1.3719790275   -0.5544158900    0.0299946524
 C   -2.1198594373   -0.5304068652   -1.3337509257
 C   -2.6370260907   -1.9674675282   -1.0374304795
 C   -2.7001417607   -2.9778502186   -2.1720908439
 C   -1.5168794314   -2.0999690557    0.0333596724
 H    1.0545616500    1.9477712728    0.0528914175
 H   -0.3866446440    1.8738576719   -0.9838683388
 H   -0.5663417432    2.0271056276    0.7700677973
 H    0.6395568172   -0.3961026002   -0.6819728457
 H    0.1838824936   -0.0143923778    2.0600578056
 H   -2.0003746474   -0.1083147734    0.8135821975
 H   -2.8579668370    0.2574257704   -1.5045285076
 H   -1.4123563119   -0.5299534805   -2.1718408363
 H   -3.6129639996   -1.9074443531   -0.5416153093
 H   -1.7337396898   -3.0533957740   -2.6838606046
 H   -2.9589230484   -3.9764481628   -1.8020123125
 H   -3.4513344356   -2.6949528495   -2.9183960931
 H   -0.6211362449   -2.5773113823   -0.3796643320
 H   -1.7634285621   -2.5921223047    0.9769144623