18

 C   -0.0488666683    1.5550487328    0.5105043069
 N   -0.1174275523    0.2052872849   -0.0261124750
 C    0.9461634048   -0.6595449948    0.4897013303
 C   -1.3977938894   -0.3674079690    0.0062178675
 C   -2.5340002875   -0.0066577386    0.6629967655
 O   -3.5532899211   -0.8224275704    0.3378419406
 N   -3.0937962349   -1.7819180567   -0.5702196254
 C   -1.8266218510   -1.5030485430   -0.7638480070
 N   -1.0153191046   -2.2689198738   -1.5880174844
 H    0.9399878926    1.9757493629    0.3051607976
 H   -0.8020110933    2.1822424663    0.0257254760
 H   -0.2114614722    1.5946803439    1.6027896564
 H    0.9076122720   -0.7611467216    1.5874909090
 H    0.8600389578   -1.6555766791    0.0510668243
 H    1.9184865371   -0.2378580226    0.2161874682
 H   -2.7674410926    0.7882008914    1.3528967690
 H   -1.5481481192   -2.8832599515   -2.1906507590
 H   -0.3627448579   -1.7046052810   -2.1179521104