19

 C    0.9549106971    0.6702293209    0.9193235543
 O    0.7650444052   -0.5963454352    0.3075197465
 C    0.3097370080   -0.5408330436   -1.0228656431
 C    1.3435250025    0.0354204381   -1.9152809166
 N    2.1548974044    0.4930971053   -2.5991797635
 C   -0.0818006120   -1.9488333804   -1.4902481675
 C   -0.7747863364   -1.9791513428   -2.8339793542
 C    0.7480408795   -3.0860608492   -1.0253151953
 N   -0.6067572026   -2.8641539863   -0.4738466276
 H    1.7381613097    1.2477061200    0.4123419088
 H    0.0233656140    1.2538459234    0.9200676317
 H    1.2593294971    0.4760167734    1.9489988477
 H   -0.5781794735    0.1111978063   -1.0921510542
 H   -0.1232530487   -1.6017801659   -3.6287095943
 H   -1.0609739952   -3.0047406865   -3.0753328452
 H   -1.6869743019   -1.3713565987   -2.8195777136
 H    0.8504677600   -3.9631731210   -1.6576680347
 H    1.5988477415   -2.8700491216   -0.3871627019
 H   -0.5086254286   -2.4316293462    0.4423910627