16

 C   -0.0222872917    1.4009337116   -0.4879506514
 C   -0.0924905721    0.0055362046    0.1527821537
 O    0.2928388231    0.0370224730    1.5035770263
 C   -1.4992229216   -0.5618708652    0.0446054631
 O   -2.2221085746   -0.7473257196    0.9908596117
 O   -1.8462661282   -0.8249690564   -1.2364711618
 C   -3.1741360012   -1.3267567796   -1.4303609294
 C   -4.1460634900   -0.2367352019   -1.5600329195
 N   -4.9174269471    0.6142778598   -1.6772929741
 H    0.9889478652    1.7936442175   -0.3607962223
 H   -0.2579199547    1.3585787345   -1.5543569487
 H   -0.7209477280    2.0828810447    0.0057570170
 H    0.5781625928   -0.6707199075   -0.3960139834
 H   -0.5085478931   -0.1153441557    2.0239455317
 H   -3.1449039802   -1.9055213993   -2.3555778593
 H   -3.4602135486   -1.9711115605   -0.5954150837