20

 C   -0.1315635721    1.4702151655    0.0381684361
 C    0.0550006969   -0.0427863369   -0.0218910279
 C    0.9357089264   -0.5434461928   -1.1863195633
 C    2.3640687466   -0.3196087775   -0.6598768629
 C    2.1833085763   -0.7208410964    0.7941119154
 C    1.2809523048   -1.8808208687    1.0090063636
 C    0.8014943812   -2.6950747589   -0.1781574275
 O    0.7211119139   -1.9401651459   -1.3840940276
 N    0.7623802151   -0.5129076780    1.1975751953
 H    0.8285575500    1.9939432631    0.0785048442
 H   -0.6809581042    1.8294768374   -0.8380199156
 H   -0.6932717059    1.7412292870    0.9360790126
 H   -0.9262280446   -0.5277072980   -0.0745431694
 H    0.7285774395   -0.0690273128   -2.1472541220
 H    3.0822532701   -0.9389960300   -1.2034876450
 H    2.6774207936    0.7260964822   -0.7451350639
 H    2.9360796265   -0.4599213142    1.5311505173
 H    1.3632286412   -2.4519430846    1.9317125851
 H    1.4820622650   -3.5416878518   -0.3444148887
 H   -0.1886017706   -3.1201650986    0.0484912445