16

 C   -0.4418226432    1.4032917990   -0.0356414425
 C    0.0542295138   -0.0355440462    0.0103326425
 C    1.3292637065   -0.3950951443   -0.7828905706
 O    1.7247451436   -0.1032624437   -1.8734841360
 C    1.9364314970   -1.1673864725    0.4056881111
 C    0.7869779834   -0.5921455071    1.2496799435
 C    0.8213054740   -0.0679480395    2.6141769298
 O    0.1445654590   -1.2945502044    2.2927114857
 H    0.3415945332    2.1018859666    0.2740883963
 H   -0.7411687177    1.6664978796   -1.0541803497
 H   -1.3059910061    1.5443691863    0.6208416827
 H   -0.7473070749   -0.7318781480   -0.2734971276
 H    1.8674456066   -2.2533959946    0.2784771489
 H    2.9621092505   -0.9064646444    0.6779904370
 H    1.7246041128   -0.1771483392    3.2130126424
 H    0.1726125414    0.7598670123    2.8965957864