20

 C   -0.0101521374    1.5983888352   -0.0785782096
 C    0.0595200236    0.0698117458    0.0142823821
 C    0.7470527872   -0.5917996662   -1.2090439219
 C    1.4721208788   -1.8459278393   -0.6645110791
 C    1.6085021056   -1.5382153353    0.8051474233
 C    0.8574533727   -0.5021468804    1.1790258230
 C    0.7068968770   -0.0115294125    2.6003710924
 C    1.3539243721    1.2816739276    2.8493292969
 N    1.8734025880    2.2946951794    3.0477352949
 H    0.9906742924    2.0377351741   -0.1352328734
 H   -0.5633594367    1.8965219226   -0.9753186238
 H   -0.5188532428    2.0411299845    0.7833505722
 H   -0.9740412041   -0.3037747881    0.1040892259
 H    0.0435640370   -0.8174754564   -2.0145501971
 H    1.4882577602    0.1073853038   -1.6121685406
 H    0.8787532792   -2.7600495391   -0.8097423286
 H    2.4347255871   -2.0254853940   -1.1556978389
 H    2.2180420150   -2.1340770364    1.4772886515
 H   -0.3548414714    0.0889729288    2.8624783627
 H    1.1362851266   -0.7398179040    3.2965487081