16

 N   -0.0294805048   -1.1307488301    0.0974457091
 C    0.0105237414    0.0235264002    0.0499790590
 C    0.0281304234    1.4696103277   -0.0392983563
 C   -1.1835364969    2.1139779450   -0.7216991860
 O   -0.8430128329    3.1983923502   -1.5531150991
 C    0.0212120497    4.1330748132   -0.9251696793
 C    1.4142527541    3.5243939135   -0.7372548774
 C    1.3247386024    2.1897558856   -0.0366516759
 O    0.5136792611    2.1362503771    1.1369049288
 H   -1.6825293065    1.3795030499   -1.3586565549
 H   -1.8851149339    2.4222832655    0.0699251992
 H    0.0653914768    5.0023891267   -1.5849952903
 H   -0.3905118789    4.4509952125    0.0436449630
 H    1.8868726842    3.3696987494   -1.7137926157
 H    2.0562734375    4.2011102060   -0.1613173548
 H    2.2371986533    1.5979125975    0.0232587108