16

 C   -0.5342012539    1.3507878294   -0.5374387152
 N   -1.0638314260    0.0111219881   -0.3832790536
 C   -0.9844202556   -0.6445186802    0.7926009392
 O   -0.4909139306   -0.2373850833    1.8276077801
 N   -1.5497997770   -1.9515758762    0.7837984288
 C   -2.1608707841   -2.6531300760   -0.2211863832
 N   -2.3388713208   -2.2174160872   -1.4098605013
 C   -2.6267886996   -4.0365545889    0.2008581627
 O   -3.1815024847   -4.7788797534   -0.5623877855
 H    0.2488000689    1.3785464491   -1.3032353464
 H   -1.3234989384    2.0553146387   -0.8218921917
 H   -0.1088060916    1.6596165802    0.4176472002
 H   -1.5103589613   -0.4729527609   -1.1579015328
 H   -1.4595757649   -2.3882597715    1.6894074977
 H   -2.8161583995   -2.9364525044   -1.9553476294
 H   -2.4248778809   -4.3222881835    1.2564109805