19

 C    0.0121308567    1.5628182082   -0.0042563033
 C   -0.0027014709    0.0226039184    0.0397373597
 C    0.7532265666   -0.5175500227    1.2644187064
 O    2.0989859427   -0.1002426456    1.1641513536
 C    2.8812177167   -0.5208667103    2.2648589945
 C    4.2542859279   -0.0610110457    2.1051991477
 C    5.3927948297    0.3050649316    1.9988669472
 C   -1.3641172710   -0.5073270381    0.0298107078
 C   -2.4869775908   -0.9363245239    0.0473893697
 H    1.0428739108    1.9218105625    0.0198920981
 H   -0.4729108185    1.9272450141   -0.9130201373
 H   -0.5241191505    1.9757469251    0.8558979902
 H    0.5261538833   -0.3537072726   -0.8461165304
 H    0.2912446235   -0.1329731826    2.1889484860
 H    0.6874440347   -1.6164012920    1.2929156722
 H    2.4640574318   -0.1262014437    3.2071750549
 H    2.8656987779   -1.6209550266    2.3505628594
 H    6.3983862256    0.6316348448    1.8989702771
 H   -3.4781864562   -1.3171046810    0.0477585567