22

 C   -1.4896301736    0.4951249472   -0.4299209695
 C   -0.0905092649    0.0156674996    0.0014622037
 C    0.6757643848   -0.5914305807   -1.1491771289
 C    0.7230689174   -2.0905536083   -1.3077644185
 C    1.6205258544   -2.7806634693   -0.2661343652
 C    1.6206877477   -4.2965663444   -0.4155724911
 O    2.4598039462   -4.8335688656    0.5950825190
 N    1.2915587543    0.0823870139   -2.0451227161
 O    1.1963903048    1.4704112660   -1.8213705345
 H   -1.4058454355    1.2658006566   -1.1992893301
 H   -2.0864366354   -0.3291038187   -0.8340001715
 H   -2.0313330207    0.9145492931    0.4231909965
 H    0.4739230389    0.8650282073    0.3963323736
 H   -0.1852692707   -0.7227167039    0.8038598291
 H   -0.2989465783   -2.4878148615   -1.2260143724
 H    1.0823508010   -2.3182688433   -2.3159620396
 H    2.6481866403   -2.4144404219   -0.3654746278
 H    1.2953645666   -2.5369384962    0.7519080279
 H    0.5900690890   -4.6787759782   -0.3234733400
 H    1.9792278555   -4.5710041386   -1.4212641594
 H    2.4826907097   -5.7891928616    0.4912996334
 H    1.7145510686    1.8246929686   -2.5511263987