21

 C   -0.0835083099    1.5084016628    0.1312143492
 C    0.0006141746   -0.0152671741    0.0064664767
 C    0.7272379960   -0.4696088792   -1.2633773306
 C    0.8118428245   -1.9899833965   -1.3887314770
 C    1.5290624899   -2.4622836582   -2.6443601170
 O    1.9901527950   -1.6992736723   -3.4680269797
 C    1.6280655360   -3.9019683096   -2.7965247702
 C    1.7042236459   -5.1010624749   -2.9122568930
 C    1.8043931143   -6.5422159190   -3.0664886026
 H    0.9150651503    1.9584630234    0.1556148303
 H   -0.6203745134    1.9452275388   -0.7180528062
 H   -0.6062479144    1.8065286627    1.0454001653
 H    0.5117021337   -0.4271954826    0.8871891643
 H   -1.0121583159   -0.4403270387    0.0198544988
 H    0.2230492289   -0.0642562605   -2.1484069117
 H    1.7402013935   -0.0509818640   -1.2849405323
 H    1.3271939715   -2.4347574927   -0.5254621599
 H   -0.1875345140   -2.4481116714   -1.3856147069
 H    2.3279693685   -6.8097124254   -3.9900082458
 H    2.3491528332   -6.9870755668   -2.2265825319
 H    0.8101097518   -7.0012221217   -3.0949584898