18

 C   -0.0145647927    1.5666615342    0.0086643237
 C   -0.0128310332    0.0400177830    0.0064707336
 O    0.7133315782   -0.4965456599    1.1077851081
 C   -1.4366538819   -0.5386178522   -0.0084121209
 O   -2.1049833629   -0.0082104438   -1.1226371712
 C   -1.5293015624   -2.0909994298    0.2049481857
 N   -2.2492016259   -1.8079669959    1.4538206175
 C   -2.1526616218   -0.4431706821    1.3854589984
 O   -2.4665890936    0.4438543796    2.1384194465
 H    1.0142931392    1.9356162067    0.0391927788
 H   -0.5068426151    1.9532126314   -0.8855385127
 H   -0.5571954476    1.9449013933    0.8818953279
 H    0.5024859392   -0.3285331396   -0.8889550491
 H    0.4619121829    0.0051507023    1.8921232380
 H   -3.0464509749   -0.1944607715   -1.0453006167
 H   -2.1268858291   -2.6115994725   -0.5491472575
 H   -0.5661130814   -2.5855995402    0.3498202250
 H   -2.4536593670   -2.4012381131    2.2448856249