18

 O   -1.0741420780    1.3313574449   -0.3117331401
 C    0.0190063402    0.9182016542   -0.0006727531
 C    1.2409937873    1.8102390480    0.1226185940
 C    1.5696904545    2.5617894654   -1.1699270697
 C    1.2299392507    2.0286594903   -2.5126466677
 N    0.5336162214    3.2094083977   -1.9784056519
 C    1.0115643741    2.8042060113    1.2576335269
 C    1.4425343954    2.5299557968    2.6338152673
 O    2.1824167331    3.4150238466    1.7877205905
 H    0.1686865421   -0.1587335433    0.2277320608
 H    2.1053610537    1.1913965393    0.3911142657
 H    2.4753982644    3.1554926548   -1.0627254144
 H    1.8891223054    2.2182342565   -3.3549843344
 H    0.6838712825    1.0900522590   -2.5723871067
 H   -0.3855793942    2.9311257749   -1.6375951872
 H    0.1736392375    3.4825167878    1.0994282925
 H    0.9255378653    3.0025143323    3.4669192504
 H    1.9374751347    1.5878850136    2.8673568272