19

 C    0.8578019836   -0.6852038256    1.1376276708
 C   -0.0193176390   -0.1034717820    0.0179768612
 N   -1.3867507504   -0.6296573701   -0.0962259834
 C   -1.4768338176   -2.0524776564   -0.4349359033
 C   -0.7806056884   -2.3871985924   -1.6733687193
 C   -0.2096630623   -2.6943976149   -2.6845729248
 C   -2.2523923703   -0.3210606343    1.0321191111
 C   -2.3971106957    1.1249195281    1.2386774496
 N   -2.5150918417    2.2586284295    1.4250934222
 H    1.8399598843   -0.2031812498    1.1166757954
 H    0.4335356731   -0.5123509017    2.1320203369
 H    1.0190121863   -1.7609343238    1.0162237942
 H   -0.1042604349    0.9806429032    0.1427868921
 H    0.4624216294   -0.2725297815   -0.9488197148
 H   -1.1009685702   -2.7102912185    0.3718912542
 H   -2.5404592238   -2.2982461515   -0.5520235716
 H    0.2891799541   -2.9597516140   -3.5839760529
 H   -3.2499898098   -0.7290073294    0.8290905849
 H   -1.9267769168   -0.7649208649    1.9918956874