18

 C   -0.2896286930    1.5165420170    0.0642765460
 C    0.0639960133    0.0416446673    0.0185679250
 C    1.1626456034   -0.4650140395   -0.9730100028
 O    1.9293600010    0.4784683564   -1.6859395669
 C    1.8972649565   -1.0253687159    0.2428130930
 C    2.1370866541    0.0672231470    1.2189876204
 N    0.7975507574   -0.5308261560    1.2101107457
 C    2.5029670732   -2.3119971358    0.3121747998
 C    3.0169289063   -3.3997850495    0.3331214509
 H    0.5923518695    2.1604861754    0.0430341420
 H   -0.9113484376    1.7821096287   -0.7977640028
 H   -0.8622692604    1.7375419519    0.9706472823
 H   -0.8470356578   -0.5531410004   -0.0938264105
 H    0.7932072104   -1.2600573601   -1.6295226950
 H    1.4678934363    0.6930518370   -2.5027502344
 H    2.7047870544   -0.1989308307    2.1044039137
 H    2.2999325857    1.0760803580    0.8534529668
 H    3.4701493671   -4.3594647406    0.3629599570