18

 C   -0.0993651614    1.5415010985   -0.1115922614
 C    0.0346842819    0.0372933406    0.0024468373
 C    1.3746310526   -0.6494731461   -0.1417133983
 O    2.5365692683    0.1230360457   -0.2342823838
 C    0.6873239079   -0.6359802706    1.2008483485
 C    1.2576641070    0.1943921294    2.3377712119
 O    0.2706758938    0.8907217905    3.0841759473
 C    2.0703157581   -0.6641738645    3.2278553334
 N    2.6679793931   -1.3520987352    3.9384538882
 H    0.8422865774    2.0494658138    0.1084079600
 H   -0.3966351505    1.8202322001   -1.1281971236
 H   -0.8538265819    1.9241416969    0.5805738818
 H   -0.8085490944   -0.5160188053   -0.4032338655
 H    1.4206002331   -1.6003229557   -0.6709230359
 H    2.5824708894    0.4956399549   -1.1211694831
 H    0.2516938860   -1.5776913883    1.5233319842
 H    1.9179820271    0.9631035820    1.9315650129
 H   -0.3338752875    0.2413304234    3.4614633159