23

 C    0.1559866403    1.4129835875   -0.3807487639
 C    0.1691721790   -0.0352204678    0.0383454378
 O    1.4405041363   -0.6309459557    0.3294469098
 C    0.4684325526   -0.5462846663    1.3917638423
 C    0.8333028716    0.3769932468    2.5344042004
 C   -0.1076311239   -1.8999935266    1.7896585725
 C    0.8801437924   -2.7783555120    2.5336081441
 C    0.9334450462   -2.7988922089    4.0425455774
 C    0.3969518227   -3.9900069002    3.2879960905
 H    0.7995211389    2.0313294100    0.2470140135
 H    0.5070095081    1.5051677383   -1.4141815349
 H   -0.8634534765    1.8123597336   -0.3389062755
 H   -0.4714451758   -0.6712383856   -0.5787257213
 H    1.2765604042    1.3071737092    2.1771308093
 H   -0.0535375167    0.6194650882    3.1306614297
 H    1.5560765981   -0.1086411121    3.1959991601
 H   -1.0041147875   -1.7481342860    2.4061200814
 H   -0.4327027123   -2.4156562154    0.8783371527
 H    1.8320091207   -2.8858446423    2.0209204326
 H    1.8997161593   -2.8867768245    4.5272671048
 H    0.2219039587   -2.1837538452    4.5842928879
 H   -0.6728903577   -4.1705212257    3.3233110312
 H    0.9963846613   -4.8930069793    3.2541571475