16

 C   -0.0763100518    1.5277153569    0.0114918733
 C   -0.0150254419    0.0119610731    0.0039486481
 O   -1.3483678332   -0.4877709407    0.0114963781
 C   -1.4639063044   -1.8332317740    0.0063514301
 C   -0.5025405954   -2.8037781875   -0.0053364244
 O   -1.1002017271   -4.0364737223   -0.0062862178
 C   -2.4378904194   -3.8314735387    0.0048531896
 C   -2.7303983686   -2.5064154259    0.0129547958
 H    0.9349567637    1.9449085030    0.0058090609
 H   -0.6088598955    1.8961173267   -0.8695607590
 H   -0.5954949815    1.8878577244    0.9038624948
 H    0.5085098999   -0.3597644269   -0.8894225059
 H    0.5216627512   -0.3680927912    0.8859348547
 H    0.5721591801   -2.7987291468   -0.0135415363
 H   -3.0488706364   -4.7191744107    0.0055732314
 H   -3.7038630597   -2.0437847594    0.0224284764