17

 C    0.1300492499    1.4990518413    0.1434318097
 C    0.0493594114    0.0531857460   -0.0002705586
 C   -0.0180689667   -1.1418639849   -0.1188798651
 C   -0.1100407960   -2.5834662188   -0.2593588545
 C   -1.4994056274   -3.1534736929    0.0162849963
 O   -2.4655221676   -2.5035251043    0.3262762666
 C   -1.6142608015   -4.6927864286   -0.1296635154
 C   -2.9766782923   -5.2801085852    0.1374502091
 O   -0.6405412991   -5.3382916063   -0.4410309768
 H    0.8562806714    1.7831706998    0.9129068439
 H    0.4360364199    1.9762902534   -0.7940342928
 H   -0.8394904897    1.9208720561    0.4298640660
 H    0.1837508304   -2.9170578040   -1.2641400098
 H    0.5922803855   -3.1057555602    0.4048249404
 H   -3.7148060956   -4.8348516319   -0.5371867000
 H   -2.9433618681   -6.3617798004    0.0069985441
 H   -3.3014513245   -5.0257582491    1.1513781070