21

 C   -0.0572693867    1.5918736290    0.1006941345
 C    0.0112757339    0.0611649283    0.0807921365
 C   -1.3646812512   -0.5973434614   -0.0483734376
 C   -2.0839095422   -0.4435504698   -1.4362737349
 C   -2.3204146266   -1.9359570462   -1.7141796827
 O   -2.7684258474   -2.4408581927   -0.4052580431
 C   -1.3848392777   -2.1379390625   -0.0024853472
 C   -0.9516118271   -2.6020925255   -1.4195592896
 O   -0.9128126196   -3.9894067502   -1.5999645139
 H    0.9391874201    2.0317463088    0.2049134693
 H   -0.4993051840    1.9838155890   -0.8214315377
 H   -0.6692912577    1.9474214924    0.9368855256
 H    0.6628924546   -0.2636652176   -0.7403121286
 H    0.4889090708   -0.2906769681    1.0049375490
 H   -2.0129032800   -0.2239334495    0.7518609069
 H   -3.0207697175    0.1132660546   -1.3751493537
 H   -1.4497541030    0.0253324085   -2.1958101019
 H   -2.9525424268   -2.2405835181   -2.5488584464
 H   -1.0645286401   -2.6502017524    0.9059391578
 H   -0.0489697572   -2.1860627868   -1.8722352945
 H   -1.7200150446   -4.3306237997   -1.1917332577