18

 O   -0.1848265071    1.5253068879    0.4172926064
 C   -0.0471305125    0.1492405159    0.0605261876
 C    0.6887805511   -0.6508608105    1.1463379767
 C   -0.3899194761   -0.8593972463    2.2257571813
 C   -1.6589852734   -1.1786890230    1.4074810503
 C   -1.4544089249   -0.4528868417    0.0745588374
 C   -2.5261367207    0.1035954178   -0.7524246634
 O   -1.8851234432   -1.1248510156   -1.1140241543
 H    0.7001202292    1.8897686994    0.5224176009
 H    0.4018301214    0.0460592595   -0.9356462697
 H    1.0032464847   -1.6159429550    0.7297831435
 H    1.5867989145   -0.1404208720    1.5099889778
 H   -0.1368670057   -1.6445386793    2.9422233053
 H   -0.5272164624    0.0716868672    2.7837978857
 H   -1.7307554750   -2.2521581518    1.2006448635
 H   -2.5806828528   -0.8810595891    1.9138666234
 H   -3.5597588328    0.0102365332   -0.4209228258
 H   -2.3202002144    0.9523672734   -1.4021471465