20

 C   -0.0311208577    1.6468027443    0.2662413629
 C    0.0260940074    0.1253782067    0.1143150402
 C   -1.3525246598   -0.5371996048   -0.1427672394
 C   -1.9654387154   -0.1383042458   -1.4556583751
 C   -2.3100973037   -0.9997352608   -2.4062296240
 C   -2.1502759407   -2.4806968867   -2.2714658565
 N   -1.6021600896   -2.8566187953   -0.9827754499
 C   -1.2182341331   -2.0496834982    0.0478474955
 O   -0.7774869255   -2.5175267003    1.0840752315
 H    0.9595511078    2.0461523927    0.5042854763
 H   -0.3705115012    2.1439957007   -0.6482611040
 H   -0.7090603373    1.9383787308    1.0764345737
 H    0.7056638655   -0.1431250243   -0.7042018546
 H    0.4285773207   -0.3270976573    1.0245966810
 H   -2.0119284882   -0.2066213804    0.6740436081
 H   -2.1228363815    0.9248866237   -1.6168797094
 H   -2.7399133656   -0.6569659676   -3.3426769252
 H   -3.1266511165   -2.9692795729   -2.4174700620
 H   -1.5050638774   -2.8580987124   -3.0810939393
 H   -1.4846875180   -3.8402118422   -0.7856541795