21

 C   -0.0088457449    1.5423551363   -0.0649198409
 C   -0.0006151358    0.0448651742    0.0007017590
 C    0.4703261438   -1.0411026536   -0.9819411273
 C    1.2279726407   -1.7700933165    0.1240349011
 C    0.4940023986   -0.8710197660    1.1778055180
 C    1.3176177500   -0.2772136693    2.3011314973
 C   -0.8004168994   -1.5721362293    1.6021914421
 O   -1.5068791057   -1.8182378600    0.3818059870
 C   -0.9849123150   -0.9124717274   -0.5690796854
 H    0.9905941468    1.9631224481    0.0959193667
 H   -0.3552946373    1.8864611457   -1.0450948174
 H   -0.6767288768    1.9748807396    0.6897929572
 H    0.7822673008   -0.9341054000   -2.0158166013
 H    1.0797573477   -2.8525125040    0.2107773583
 H    2.2995964262   -1.5544316705    0.0950867073
 H    2.1925236644    0.2548951257    1.9140691292
 H    0.7313606708    0.4313451490    2.8975437697
 H    1.6803055250   -1.0597528860    2.9775326219
 H   -0.6268341447   -2.5328101554    2.0998647936
 H   -1.3999019725   -0.9323698601    2.2709395661
 H   -1.7104036728   -0.6042721304   -1.3133670422