21

 C    0.0659045916    1.5868091154   -0.4498144029
 C    0.1192055336    0.0866040568   -0.1884819533
 C    1.0630806923   -0.8270221976   -0.9725661210
 C    2.4106964480   -0.8774991949   -0.2178280085
 C    2.2828174842   -0.0004037423    1.0250545455
 C    0.8102124892   -0.4904563540    1.0889006488
 C    1.2495947392   -1.7394112026    0.2112617044
 C    1.0990078261   -3.2125131479    0.3743257685
 O    1.7075638546   -3.8344028680   -0.7508461185
 H    1.0608797613    2.0401748489   -0.4571483457
 H   -0.3924279600    1.7900181183   -1.4242859324
 H   -0.5349848099    2.0996877611    0.3103537195
 H   -0.8934577434   -0.3313509848   -0.2436208177
 H    1.0098134521   -1.1172335098   -2.0142379069
 H    3.3092431292   -1.2036648687   -0.7249158732
 H    2.8674176004   -0.4112212713    1.8536791966
 H    2.4685930384    1.0770416887    0.9554763822
 H    0.2749083431   -0.5234753062    2.0370639857
 H    1.5747663206   -3.5407858637    1.3144072575
 H    0.0304575208   -3.4791699338    0.4454831116
 H    1.6197339285   -4.7863817136   -0.6476986303