18

 O    0.0981322415    1.3895628068    0.0302190432
 C    0.0244752269   -0.0256881257   -0.0952419294
 C   -1.3870071074   -0.5232099937   -0.0262497713
 C   -2.0533233368   -1.0409119442    1.2324265824
 O   -3.2017662873   -0.5817492854    1.8486954860
 C   -1.9310955016   -1.9826795287    0.0564958528
 C   -2.8753193858   -1.6540043472   -1.1248355045
 N   -3.7762065025   -0.5273383820   -0.7382322084
 C   -2.3790104546   -0.2683836497   -1.1934818286
 H   -0.3584033767    1.6269626004    0.8449339810
 H    0.4760357984   -0.2520100137   -1.0690988726
 H    0.6314198157   -0.5366248660    0.6697641461
 H   -1.3042722828   -1.2779535708    1.9885713630
 H   -3.8206898513   -0.4088518899    1.1160266424
 H   -1.3612699572   -2.9036891378    0.0975603423
 H   -3.1624253248   -2.3405850774   -1.9099554657
 H   -4.3950421551   -0.3429866831   -1.5263619778
 H   -2.1830364787    0.3783426880   -2.0383568009