17

 O   -0.1266614096   -0.0185530142    0.0386295081
 C   -0.0014777901    1.1770038078   -0.0088444105
 C    1.3208734549    1.9129525330    0.0279979505
 C    1.5304946905    2.8383104942   -1.1933418834
 C    2.3398167737    4.0382445601   -0.6613471058
 O    3.0716600305    4.7303166573   -1.3205216913
 C    2.1075525239    4.1372744230    0.8125842798
 C    0.6460657818    4.1114645389    1.2402671789
 C    1.4398370419    2.8432497231    1.2473086774
 H   -0.8916528245    1.8457700593   -0.0832238560
 H    2.1127162679    1.1599293586    0.0729598356
 H    2.0598874501    2.3569775640   -2.0164089307
 H    0.5782994156    3.2060622605   -1.5981232779
 H    2.8290685635    4.6725994126    1.4156123119
 H    0.4308476837    4.5686156813    2.1990411316
 H   -0.1203357256    4.2774335462    0.4913604768
 H    1.6862044019    2.3912195041    2.2005105650