16

 O   -0.0760273502    1.4409334646    0.0044638756
 C   -0.0006100342    0.0688205667    0.0013293884
 C    0.7609068849   -0.8654814938   -1.0112531588
 N    1.6863784229   -1.2706970432    0.0650182473
 C    0.6750111831   -0.8749523630    1.0648101051
 C   -0.6140819315   -1.8108531404    0.9740780851
 O   -0.3884765457   -2.8290616257   -0.0279369224
 C   -0.5309232540   -1.8016854378   -1.0358475681
 C   -1.2574620626   -0.8408814672   -0.0548209428
 H    0.8197546378    1.7963609827    0.0430294153
 H    1.1980598221   -0.5709296873   -1.9672921262
 H    1.8715547718   -2.2748787395    0.0680979460
 H    1.0315870600   -0.5892867575    2.0563350212
 H   -1.0669502603   -2.1956420483    1.8881509503
 H   -0.9065890041   -2.1779626462   -1.9876733299
 H   -2.2998158800   -0.5350464940   -0.0965518960