15

 N   -0.3880087997    1.2277075778   -0.8902469140
 C   -0.1043182192    0.1830675980   -0.2476160456
 N    1.0208206652   -0.3706802054    0.3851775673
 C    0.4037407080   -1.6853122757    0.6352494133
 C    0.4211972610   -2.1196184201    2.0830046264
 O    0.3535524928   -3.2661029220    2.4419729795
 C   -0.9252213680   -1.0288290866    0.1470601718
 C   -2.3013078946   -1.1470395619    0.6316505731
 O   -1.8848554235   -1.6621082143   -0.6435708292
 H    0.4172316062    1.8426637522   -1.0151386782
 H    1.9822718849   -0.2222529613    0.1143099736
 H    0.7216261126   -2.5017137242   -0.0208845997
 H    0.4731683343   -1.2701776497    2.8011291515
 H   -2.5447783609   -1.9007666537    1.3781775006
 H   -2.9491602291   -0.2745418632    0.5895078298