19

 O    0.1970270885    1.3915337048    0.1987470301
 C    0.0182123970    0.0124635724    0.0240001948
 C   -1.4182033997   -0.5956913421    0.0365961840
 C   -2.5143882195    0.2127244717   -0.7010616517
 C   -2.0624097627   -0.4095854415   -2.0750726989
 C   -1.1618415346    0.4756569677   -2.8972611461
 C    0.1194503195    0.3584027219   -2.5356790375
 C    0.2932020231   -0.6179977730   -1.4006132612
 C   -1.0812169258   -1.3474045607   -1.2940382477
 H   -0.1787398833    1.8295693499   -0.5748615466
 H    0.6351322833   -0.4701921817    0.7874155240
 H   -1.7166288992   -1.0919954657    0.9610038286
 H   -3.5172934995   -0.1114156674   -0.4110210544
 H   -2.4717575125    1.3031958447   -0.6177127268
 H   -2.8707085147   -0.8715372231   -2.6467159701
 H   -1.5384519283    1.1522279966   -3.6575418156
 H    0.9430974138    0.9250430640   -2.9562911989
 H    1.2051330259   -1.2162429669   -1.4598712791
 H   -1.1371475214   -2.4263308318   -1.4299227969