14

 C    0.0596748782   -1.2120416561   -0.0654213905
 C    0.0187829575   -0.0098718548   -0.0355994537
 C   -0.0477932826    1.3989455336    0.0018471918
 C   -1.1262770187    2.2575112861    0.1291215108
 C   -2.5405343673    2.8061478191    0.2839187987
 C   -1.8573011217    4.2293501426    0.2461293499
 N   -0.5862790225    3.4790658435    0.1013213044
 N    0.7524855320    3.4780727754   -0.0335144468
 N    1.0722815749    2.2113859654   -0.0923535007
 H    0.1033615493   -2.2726180525   -0.0916952562
 H   -3.2159971634    2.6040826489   -0.5488847913
 H   -3.0368413710    2.5651939576    1.2253352123
 H   -2.0929261410    4.8509845729   -0.6188611392
 H   -1.9126145336    4.8117789686    1.1669304405