20

 C   -0.3416297023    1.4523101887    0.0889501671
 C   -0.0064982912   -0.0027798641   -0.0032254960
 C   -0.1156242383   -0.7922007331   -1.0739963163
 C    0.3442648660   -2.2046112765   -0.8189977185
 C    0.5960993882   -2.2168641896    0.6984130498
 C    0.0102083764   -3.3132997851    1.5527265443
 C    1.5027065032   -3.2335366057    1.3366787981
 C    0.5560998972   -0.7597962088    1.1815275036
 H    0.5373304816    2.0449405127    0.3746542530
 H   -0.7182681699    1.8415271853   -0.8610414350
 H   -1.1020691615    1.6375057908    0.8586616753
 H   -0.4722123008   -0.4635147684   -2.0451017329
 H   -0.4003338424   -2.9526543932   -1.1216982250
 H    1.2565924826   -2.4339081197   -1.3899737139
 H   -0.3790300764   -3.0475151868    2.5308947892
 H   -0.5355954629   -4.1110249225    1.0582107440
 H    1.9671045239   -3.9780468997    0.6972541712
 H    2.1234574648   -2.9159235410    2.1689202193
 H    1.5560752667   -0.3801632753    1.4420938487
 H   -0.0593613449   -0.6345423779    2.0828820539