14

 C    0.0628120266   -1.1521619797   -0.0602418124
 C    0.0013552642    0.0497588049   -0.0140754322
 C   -0.0682092879    1.4640941831    0.0465077950
 C   -1.1384890650    2.3592233963    0.6874870492
 C   -0.4233290042    3.5225410959   -0.0396535260
 O    0.8664257569    3.6065814485    0.6379000874
 C    1.1917180167    2.3881413037   -0.0107529317
 C    0.1675809438    2.4962097299   -1.0764698160
 H    0.1139934752   -2.2117822880   -0.0992188155
 H   -2.1235381126    2.1539171544    0.2624338116
 H   -1.1873164444    2.4221492392    1.7782503539
 H   -0.8831030832    4.4891441665   -0.2276046778
 H    2.2063963099    2.0150234812    0.0107661656
 H    0.1743165739    2.3988152440   -2.1526970910