19

 C    1.8866144056   -3.8788054079    1.6117092516
 C    1.0440169058   -2.8174783289    0.9370424154
 N    0.0764362318   -1.9764634963    1.6316443893
 C   -0.1253731652   -2.0827553878    3.0681086368
 C    1.2931539828   -1.3329968830    1.0903212514
 C    2.3985259304   -0.8013548574    1.9929482714
 C    1.0467848609   -0.4794912600   -0.0523534129
 C    0.8812885538    0.2389012195   -1.0025280223
 H    2.2952632712   -3.5710568387    2.5750720746
 H    1.2901882385   -4.7830365086    1.7769206134
 H    2.7262297730   -4.1535317866    0.9647238463
 H    0.6836167336   -3.1301774379   -0.0428044921
 H    0.7676139256   -2.3036011453    3.6686888028
 H   -0.5518573864   -1.1426820819    3.4316138093
 H   -0.8583849483   -2.8745510811    3.2540910189
 H    3.3133279269   -0.6610170607    1.4098426012
 H    2.1153057632    0.1731553927    2.4028972122
 H    2.6283980544   -1.4672560414    2.8249427215
 H    0.7170117524    0.8682884212   -1.8417231888