14

 O    0.0194402932   -0.0316553908    0.0120206532
 C   -0.0384744567    1.1746006482    0.0292732169
 C   -1.2958215158    2.0406674561    0.0153093387
 C   -0.8023951861    3.4744909180    0.0749974769
 O   -1.4466319159    4.4763692873    0.1838875254
 C    0.7618050437    3.4457969255   -0.0053875531
 N    1.0418309520    2.0225965979    0.0758009837
 C    1.2540133742    4.0812778920   -1.2234639123
 C    1.6600290362    4.5928608161   -2.2315649054
 H   -1.8689819089    1.8666401999   -0.9014298959
 H   -1.9560010073    1.8083120667    0.8552538494
 H    1.1446341936    3.9865650493    0.8710063801
 H    1.9753764105    1.6501616508   -0.0104140527
 H    2.0170193173    5.0501800032   -3.1216541450