13

 C    0.2070700537    1.5393695006    0.1118031275
 N    1.2544516893    0.5417907521   -0.0942004209
 C   -0.1437890493    0.0889692688    0.0558758955
 C   -0.4715368269   -0.6798422736    1.2645263138
 N   -1.3034666794   -1.6785101661    1.3566933705
 C   -1.2291150793   -1.9763323913    2.6942947754
 N   -0.4193146553   -1.2285020145    3.3909646259
 O    0.0957497378   -0.3476435511    2.4292936012
 H    0.2372762903    2.0350170303    1.0770623653
 H   -0.1167340130    2.1594707661   -0.7197669444
 H    1.5175885445    0.4929084240   -1.0750467759
 H   -0.6770761416   -0.2734643160   -0.8164225127
 H   -1.7923387707   -2.7726681091    3.1588481989