21

 C    0.2832861641    1.7844520321    0.0332712433
 C    0.2481453501    0.2538809973    0.1154536542
 C    0.7851381258   -0.4129389668   -1.1441158505
 C    0.8044525787   -1.9615976097   -1.2749328098
 C    0.0812497452   -2.8071872201   -0.2423684720
 O    0.0738133271   -1.8992427226   -2.5280373447
 C   -0.0941765125   -0.4648183979   -2.4369564625
 C   -1.4902031935   -0.0628872512   -2.3309170872
 C   -2.6423346352    0.2732240852   -2.2507066599
 H    1.3040171948    2.1496735483   -0.1269070006
 H   -0.3379209804    2.1474212345   -0.7912497571
 H   -0.0919303593    2.2364160034    0.9563784928
 H    0.8501331230   -0.0805359488    0.9700941980
 H   -0.7779413967   -0.0759654229    0.3075425426
 H    1.7662988428    0.0082116258   -1.3828329446
 H    1.8097594207   -2.3685200099   -1.4459566130
 H   -0.9295838905   -2.4354328875   -0.0567846703
 H    0.0022472418   -3.8367619393   -0.6051975999
 H    0.6323321878   -2.8227792767    0.7042118344
 H    0.3582422767    0.0343765414   -3.3031401964
 H   -3.6615233904    0.5655963553   -2.1876431667