23

 C   -0.1591508449    1.5883779649   -0.0769189225
 C    0.0080560452    0.0772519309   -0.0002252187
 C    0.9734070665   -0.6567097455   -0.9794663455
 C    1.4330540551   -1.5777249439    0.1919659604
 C    2.9233854574   -1.7130270415    0.5713690171
 C    3.2115361309   -0.5975628758    1.5749665379
 C    3.0003105466    0.8192352792    1.1195550455
 C    1.9085359133    0.1180861022    1.9017925234
 C    0.7578701499   -0.5925132349    1.2005531241
 H    0.7953442812    2.1120447259    0.0184399197
 H   -0.6088180784    1.8813084940   -1.0328341825
 H   -0.8167609612    1.9518975249    0.7211947517
 H   -0.9825869433   -0.3862740600   -0.0765518990
 H    0.5091737064   -1.1557579069   -1.8346905578
 H    1.7706905088   -0.0138319185   -1.3634505095
 H    0.9437241370   -2.5529657046    0.1350337041
 H    3.1023576604   -2.6830061543    1.0490250400
 H    3.5782203803   -1.6684936246   -0.3075280896
 H    3.9538734611   -0.7829495227    2.3441215446
 H    3.5419035116    1.5987817378    1.6460191415
 H    2.8806332581    1.0191587511    0.0618861888
 H    1.7281075812    0.4861603059    2.9062014367
 H    0.1008108767   -1.0336242038    1.9561924700