14

 O    0.1336857073    0.0380506148    0.0540206948
 C    0.0550691175    1.2206625435    0.0313789972
 O   -1.0793558837    1.9331557269    0.2635365238
 C   -0.8472705598    3.3171593238    0.0101626075
 C    0.6903654332    3.4216483461   -0.0380848186
 C    1.2953532409    3.9787647960    1.2619205592
 C    2.7547988552    4.0236660073    1.2333793803
 N    3.9078004991    4.0772570303    1.2011299417
 O    1.0935715667    2.0663668028   -0.2283112007
 H   -1.3107901139    3.5949223626   -0.9412613164
 H   -1.2962142965    3.9039390898    0.8149773606
 H    1.0430207546    4.0016852103   -0.8932074977
 H    0.9154227243    4.9944234798    1.4236353717
 H    0.9658235851    3.3677894960    2.1100955866