16

 O   -0.0466030247    0.0038284428   -0.0446935156
 C   -0.0419937465    1.2108564866   -0.0253230469
 C   -1.2155575782    2.1863988328   -0.2187929166
 C   -0.5808816049    3.5508562000   -0.0857643770
 C    0.7279523453    3.3753291315    0.1526056582
 N    1.0673069625    2.0188419125    0.1794540356
 C   -1.2848552631    4.8350652437   -0.1640176097
 C   -2.5225747239    5.0385480593   -0.9390367508
 O   -2.5734089064    4.9163897655    0.4795635620
 H   -1.6758617979    2.0044089134   -1.1964871887
 H   -1.9879788300    1.9988521418    0.5343635108
 H    1.4924374614    4.1224679070    0.3146212120
 H    1.9868688186    1.6453331417    0.3454274237
 H   -0.6557979131    5.7104775585    0.0028204053
 H   -2.7467753698    6.0281641342   -1.3363652939
 H   -2.9542081093    4.2091400285   -1.4974626384