17

 C    0.1256333779    1.5205142916    0.1066810331
 C    0.0451508749    0.0265951862    0.0472096018
 C    0.0272540086   -0.7945397981   -1.0484262549
 N    0.0074338329   -0.5445918799   -2.4010337384
 O   -0.0432991515   -2.0832607993   -0.6856731918
 N   -0.0737205037   -2.1544029347    0.7221706093
 C   -0.0305549394   -0.9049592510    1.1232633326
 C   -0.0301150858   -0.6100330451    2.5952484014
 O    1.1148985771    0.1360550020    2.9966529470
 H    0.7114004568    1.9269021670   -0.7267343060
 H   -0.8611487165    1.9986165674    0.0688963353
 H    0.6129799430    1.8316877928    1.0338715174
 H    0.3900016893    0.3520889765   -2.6636604335
 H    0.3684397818   -1.3008708125   -2.9660040719
 H   -0.8899162348    0.0154462542    2.8566698314
 H   -0.1215490984   -1.5554090585    3.1456575527
 H    1.8907368479   -0.3917587986    2.7793841844