19

 C    0.2370847521    1.2371652916    1.0498386614
 C   -0.1814672504    0.3503710494   -0.1213584266
 O    0.7416472117   -0.7323501839   -0.3260770993
 C   -1.5781750835   -0.1738497162    0.0139946797
 C   -2.6418655782    0.1555066501    0.8212893455
 C   -3.7453664155   -0.6729326024    0.4559185520
 C   -3.3144256906   -1.5002951074   -0.5584045658
 N   -3.9266878470   -2.5716088515   -1.2359698805
 N   -2.0081902160   -1.1859809049   -0.8264433727
 H    1.2730775613    1.5577167833    0.9158235216
 H   -0.3981188907    2.1255815608    1.1162117140
 H    0.1568875967    0.6927747340    1.9970461035
 H   -0.0854742716    0.9307237407   -1.0497818726
 H    0.6828531205   -1.2984660878    0.4530688284
 H   -2.6467970996    0.9281081149    1.5748211026
 H   -4.7389204765   -0.6561038295    0.8777523152
 H   -4.0713211994   -2.3754239937   -2.2222584092
 H   -4.8280413903   -2.7817445811   -0.8259985795
 H   -1.3880048528   -1.7223978764   -1.4099461476