17

 O   -0.1748244733    1.3026054397    0.0415377459
 N    0.0011456123   -0.0997082474    0.0108393112
 C   -1.1195132100   -0.6929694600    0.0048321069
 C   -2.5462554304   -0.1567783034    0.0244886298
 C   -3.2679935487   -1.5240329644   -0.0001962846
 C   -2.4482567598   -2.3419559545    1.0414514254
 C   -1.3105287340   -2.1844113363   -0.0254464240
 C   -2.4605507380   -2.2971381168   -1.0847993201
 H    0.7350457225    1.6175770039    0.0429455176
 H   -2.7495629980    0.4345130631    0.9227856788
 H   -2.7598783631    0.4718703242   -0.8456041061
 H   -4.3573899300   -1.5123921016    0.0063519878
 H   -2.2859623597   -1.9095810605    2.0326153351
 H   -2.7867657206   -3.3768407262    1.1270360201
 H   -0.4194949064   -2.8078274162   -0.0437410188
 H   -2.8002550784   -3.3275877239   -1.2099933964
 H   -2.3096271743   -1.8233420796   -2.0586746287