19

 C   -0.3222345195    1.4003000198    0.3918575614
 C    0.4003130493    0.1251887024   -0.0641250819
 C    0.9148969037   -0.6625830800    1.1165975832
 O   -0.0137287066   -1.4361209847    1.8687507560
 C    1.0401628380   -2.1423569778    1.1847708003
 C    0.5770985847   -3.1015967609    0.1143363246
 O   -0.0105965241   -4.2478909438    0.7096852708
 C    2.1068139002   -2.6871683555    2.1078692711
 O    2.4024377323   -2.1781523262    3.1570267505
 H    0.3441867118    2.0469385448    0.9721967153
 H   -0.6820343922    1.9728734416   -0.4675119073
 H   -1.1814805567    1.1523761904    1.0218690103
 H   -0.2766510246   -0.4882988764   -0.6647275370
 H    1.2535121051    0.3862178069   -0.7029605701
 H    1.6194521717   -0.1233734002    1.7540660078
 H   -0.1109696319   -2.6080788553   -0.5817527739
 H    1.4347418692   -3.4646048601   -0.4633169819
 H   -0.7463698562   -3.9371485725    1.2500801714
 H    2.6263933858   -3.5938240124    1.7302723392