18

 C   -0.1513892955    1.5600426986   -0.0683105870
 C    0.0248326815    0.0353130719    0.0133082826
 C    0.7805009863   -0.5397495005   -1.1916368385
 C    2.2711536479   -0.2574770689   -1.1335432578
 O    2.9859204831   -0.1612735031   -2.1063752520
 N    2.7812251869   -0.1412547136    0.1480421708
 C    2.0826014298   -0.2188091230    1.3642528086
 N    2.6125395899   -0.1548271499    2.5243397165
 N    0.7254290390   -0.4061639202    1.2177008512
 H    0.8148662928    2.0702120830   -0.1350999822
 H   -0.7432977070    1.8340505712   -0.9476065760
 H   -0.6695012453    1.9346830698    0.8196399331
 H   -0.9678661514   -0.4258409570    0.0452827986
 H    0.6613923370   -1.6294085146   -1.2123516035
 H    0.4030391361   -0.1464108462   -2.1369917645
 H    3.7783372608    0.0127656183    0.1983775708
 H    3.6269867353   -0.0989831253    2.4739561380
 H    0.2430091528   -0.2941354604    2.0976251810