13

 C    0.0124191201    1.4261698409    0.1141963582
 N    0.1073537616   -0.0236293933    0.0384219392
 C    0.5182488120   -0.5778500877   -1.0044625058
 O    0.9341278840   -0.0378190181   -2.1974678305
 N    1.3013325300   -1.1194155334   -3.0559868156
 N    1.1324625485   -2.1951326752   -2.4641802680
 N    0.6580025651   -1.9636334142   -1.2089819906
 C    0.3662793575   -2.9899310712   -0.2897441902
 O    0.5073238918   -4.1536028612   -0.5250694180
 H    0.6281618811    1.7800910256    0.9474995473
 H    0.3258228985    1.9436043104   -0.7991476718
 H   -1.0227976468    1.7038339540    0.3378231955
 H   -0.0007729634   -2.5468017867    0.6483646504