19

 O    0.1125324455    1.3379125405    0.2258844641
 C    0.0171670937   -0.0315598833   -0.1120149711
 C   -1.4256733259   -0.5581955342   -0.0323607255
 C   -1.5286509289   -2.0724912598   -0.0089423553
 O   -1.1926884457   -2.6267511240    1.2854201624
 C   -2.5831699793   -2.4807614345    0.9265677086
 C   -3.2167482644   -1.2426377319    1.5246351459
 C   -2.1632740674   -0.1353010567    1.2772516500
 O   -1.2636291554   -0.0068304378    2.3762135084
 H   -0.0855616984    1.3768873409    1.1709959943
 H    0.3936486166   -0.1323654562   -1.1355962107
 H    0.6621480665   -0.6477823309    0.5312984982
 H   -1.9973767547   -0.1816149922   -0.8908508562
 H   -1.2220761226   -2.6806925389   -0.8560355940
 H   -3.1305183231   -3.4144671163    0.8300478851
 H   -4.1542116694   -1.0252385362    0.9985471675
 H   -3.4412562082   -1.3348938503    2.5910056900
 H   -2.6250847618    0.8469629042    1.1687002637
 H   -0.8688453270   -0.8828163224    2.4908342845