18

 C   -0.1277595856    1.5101731420    0.6283261210
 C    0.0621894225    0.0597966322    0.2382913088
 C    0.4141128238   -0.3884219038   -1.1467457791
 C    0.6225320509    0.5577164812   -2.3095895141
 N    1.3738745888   -0.5458553215   -0.0422352824
 C    2.5714441089    0.2816772401    0.0069825788
 C    3.6491322482   -0.3372946944   -0.7750980629
 N    4.4985463671   -0.8047616054   -1.4027821302
 H    0.1647481651    1.6728242780    1.6715612708
 H    0.4344910598    2.2116311649    0.0092024562
 H   -1.1866661104    1.7752647346    0.5419916594
 H   -0.5668044316   -0.6115049497    0.8225494249
 H    0.0132371397   -1.3511319050   -1.4616146262
 H    0.9256870125    1.5634976891   -2.0123592316
 H    1.3833276447    0.1651284395   -2.9923254670
 H   -0.3109299502    0.6523414963   -2.8737843394
 H    2.4581533101    1.3148583778   -0.3522347259
 H    2.9005332657    0.3464701642    1.0508127590