19

 C    0.0456350326    1.4450332105   -0.0061495822
 C   -0.0090838948   -0.0506466737    0.0680041487
 N    0.6655135216   -0.9579326099   -0.9796367739
 C    0.0190469868   -1.9192449614    0.0169885457
 C    0.6480768408   -1.0131661896    1.1200240461
 O    2.0291177286   -0.9860514423    1.2570130493
 C   -1.2096360371   -1.0098534227    0.0686437252
 C   -2.5399427751   -1.0269205027    0.6907323868
 N   -2.3715367176   -1.0536776940   -0.7959572480
 H    1.0858190999    1.7844879057    0.0019726852
 H   -0.4291462944    1.8239437864   -0.9185275129
 H   -0.4640603357    1.8912846221    0.8542007417
 H    0.1182242696   -0.9514198511   -1.8445480244
 H    0.0784769112   -3.0000519615   -0.1064725352
 H    0.1921941028   -1.0448911594    2.1104441508
 H    2.3651052664   -0.9795644563    0.3472438438
 H   -2.9457042171   -1.9420851094    1.1129693741
 H   -2.9131159039   -0.1133284883    1.1475337247
 H   -2.5732918847   -0.1300267826   -1.1746415053