21

 C    0.0606417870    1.5891796451    0.0058480456
 C    0.0840181081    0.0690920001   -0.0085592157
 C    1.1239747125   -0.6631402119   -0.9050579018
 C    1.3377128165   -1.6881512925    0.2341806479
 C    0.7151326597   -3.1323662629    0.1480888582
 C    2.1067123896   -3.6941855360    0.4674162998
 O    2.9953049134   -3.2195073822   -0.5508973136
 C    2.6854173991   -2.3442951644    0.5438632923
 C    0.6794575916   -0.6851439670    1.2156783839
 H    1.0567861395    1.9953691696    0.2170253549
 H   -0.2639456812    1.9913992347   -0.9604718896
 H   -0.6238983341    1.9713083452    0.7717446189
 H   -0.9204711286   -0.3140325249   -0.2215046775
 H    0.7900505550   -1.0485094421   -1.8711890444
 H    2.0184469575   -0.0509508631   -1.0659353983
 H   -0.0195504267   -3.3157530447    0.9369941574
 H    0.3050261628   -3.4397789772   -0.8176516813
 H    2.3794842934   -4.6127087285    0.9740048766
 H    3.5189260451   -1.9522891561    1.1177878687
 H    1.4335605840   -0.0747201966    1.7269128302
 H   -0.0108912143   -1.0819626945    1.9654966979