21

 C    0.2087540691    1.4517897544   -0.3180468860
 C    0.0160621753    0.0491025733    0.2648835344
 C   -1.4117461032   -0.4706735866    0.1118470365
 C   -1.8196475553   -1.0577358858   -1.2452103948
 C   -1.6325683777   -1.9636704343   -0.0618306073
 O   -0.5069710696   -2.7871772474    0.0150535087
 C   -2.4197223039    0.2493743174    0.8484048887
 C   -3.2488052276    0.8606064001    1.4749900219
 C   -4.2528513353    1.5942706020    2.2327215757
 H    1.2365320784    1.7973004776   -0.1695201092
 H    0.0010479757    1.4654103600   -1.3934755836
 H   -0.4638023820    2.1707904226    0.1595057247
 H    0.6951722265   -0.6623303917   -0.2121048307
 H    0.2703093182    0.0531623982    1.3312605334
 H   -2.8219988126   -0.8682101444   -1.6106934528
 H   -1.0431995943   -1.0776945183   -2.0034927382
 H   -2.5276345251   -2.3690435968    0.4078218154
 H   -0.5857836905   -3.4605697017   -0.6686631816
 H   -4.9740505781    0.9150572361    2.7013082439
 H   -3.7920606233    2.1852429646    3.0321542497
 H   -4.8155718347    2.2849615906    1.5943372512