14

 N   -0.1063021743    1.3219414313    0.0215292285
 C    0.0508107970   -0.0258223784    0.0102423061
 O    1.1263804165   -0.5953136857    0.0140850111
 C   -1.2330849524   -0.7963122520   -0.0072358863
 N   -2.3946601982   -0.1821081725    0.0036117763
 O   -3.3464403154   -1.2116602136   -0.0171225860
 C   -2.7078079451   -2.3952505792   -0.0392122387
 N   -3.5093333786   -3.5035178659   -0.1227860445
 C   -1.3534309804   -2.2057708003   -0.0325787356
 H    0.7129046638    1.9051257693    0.0321085528
 H   -1.0254682227    1.7321281842    0.0150346461
 H   -4.4518998801   -3.3688213205    0.2138702319
 H   -3.0887024680   -4.3598761974    0.2035832641
 H   -0.5596688922   -2.9307638893   -0.0474438158