20

 C   -0.0131950274    1.6407436334    0.0882689356
 C    0.0364568265    0.1189634246    0.0222921410
 C    1.1099681526   -0.5435638919   -0.9245091040
 C    1.9272391297    0.2890642413   -1.8941875947
 N    1.8273601617   -1.0861611659    0.2877995881
 C    0.7229009376   -0.6390390197    1.2055790432
 C    1.7602633046    0.0594848467    2.1133589277
 C    2.7599182408   -0.2670965902    0.9769979581
 O    3.8720432816    0.0728621810    0.6898750593
 H    0.9707668039    2.0883783865    0.2551641179
 H   -0.4078555862    2.0573950373   -0.8439852078
 H   -0.6691969386    1.9676527644    0.9022483909
 H   -0.9703745736   -0.2619518450   -0.1715074234
 H    0.6727281320   -1.3920566785   -1.4607784834
 H    2.3900942474    1.1557419180   -1.4180920210
 H    2.7291033827   -0.3157748089   -2.3274436963
 H    1.2874641880    0.6404010076   -2.7104216108
 H    0.1264379686   -1.4301105962    1.6645681761
 H    1.6403628583    1.1272473014    2.3049554831
 H    1.9518540199   -0.4504160860    3.0609785406