17

 O   -0.4553514842    0.2134346099    0.0340893666
 C   -0.1229223812    1.3685997576    0.0182706049
 C    1.3162118800    1.8649959244    0.0387424933
 C    1.5858058888    2.6395230830   -1.2779134896
 C    2.7010924929    3.6717367111   -1.1869487906
 O    2.2933338874    5.0036154319   -0.8594106371
 C    3.0493054458    4.2554734838    0.1144802667
 C    2.3263987753    3.7766830255    1.3184323734
 C    1.5480276748    2.6954873124    1.2837081830
 H   -0.8774935816    2.1892940273   -0.0211957172
 H    1.9454601791    0.9672285865    0.0905114937
 H    1.8026067238    1.9209241789   -2.0734320156
 H    0.6767889231    3.1776331091   -1.5739581792
 H    3.4667046180    3.6226916738   -1.9602710898
 H    4.0553768157    4.6411829518    0.2751221319
 H    2.4756442029    4.3174595481    2.2484545874
 H    1.0662667795    2.3470400748    2.1943093180