14

 O    0.4882507759    1.3045717551   -0.1708263060
 C    0.1934388007   -0.0157533398   -0.0530884003
 C    0.3526864457   -0.9536500732   -1.0511456145
 N   -0.0701024730   -2.1375086323   -0.5167116621
 C   -0.0888320046   -3.4386713318   -1.1446005623
 C    1.2550569523   -3.9764409248   -1.4044740666
 N    2.3050287992   -4.4001670148   -1.6305667839
 N   -0.4819764429   -2.0218640305    0.7565459126
 C   -0.3295626412   -0.7315085160    1.0476373713
 H    0.3169184323    1.7390073578    0.6700452795
 H    0.7281111283   -0.8705443247   -2.0572169230
 H   -0.6247989578   -4.1036355778   -0.4637233141
 H   -0.6403130591   -3.4008402414   -2.0909125492
 H   -0.6015040358   -0.3608530757    2.0256500886