17

 O    0.1550285926    1.2661602443   -0.1888352579
 C    0.1033815825   -0.1259372325   -0.0338819649
 C    0.8270147940   -0.8989000156   -1.1610315133
 C   -0.1883140919   -1.9099111580   -1.6372055734
 C   -1.3472283045   -1.8541046991   -0.9782289494
 C   -1.3139068989   -0.8043518355    0.0940506837
 N   -0.8676093274   -1.2676944727    1.4342771479
 C    0.3194192807   -0.5724853438    1.4165410888
 N    1.2455021853   -0.2471255162    2.2185917163
 H    0.6833710607    1.6026038504    0.5462473918
 H    1.1046100604   -0.1908779894   -1.9509021665
 H    1.7550818028   -1.3686706057   -0.8153045249
 H    0.0305258716   -2.6018287836   -2.4441009909
 H   -2.2085868990   -2.4843487159   -1.1685678726
 H   -2.1665856491   -0.1207755896    0.1292972388
 H   -1.4061956965   -1.6027201015    2.2188045587
 H    1.0854606967   -0.5934732757    3.1654624778