15

 N   -0.0494099399   -1.1549733568   -0.1731231018
 C   -0.0225815968   -0.0004373674   -0.1409412751
 C    0.0088588382    1.4584029716   -0.0811492524
 C    1.4367702978    2.0159789218    0.1360443277
 O    2.2661875987    1.6654061074   -0.9645841592
 C    2.8088224066    2.8354901580   -1.5763905153
 C    2.2451837401    3.9830405674   -0.7885377818
 C    1.4739592197    3.5213132463    0.1882372370
 H   -0.3962205669    1.8678941365   -1.0121621036
 H   -0.6413935172    1.7889603940    0.7372260456
 H    1.8416338178    1.5625924055    1.0543744783
 H    3.9081451950    2.7996309339   -1.5353609777
 H    2.5245837411    2.8688309534   -2.6389014568
 H    2.4674104283    5.0193464924   -1.0085857456
 H    0.9379479274    4.0994660660    0.9299472408