17

 C   -0.0295242647    1.5476024384    0.2791974097
 C    0.1178383747    0.0933012082   -0.0268036447
 O   -0.8521895455   -0.8141893483    0.4996960881
 C    0.5363517483   -1.0769660173    0.7998546719
 C    1.0040249647   -1.8030904563   -0.4430591140
 C    0.8472794222   -2.8743900292   -1.2072856074
 C    0.5679635130   -2.3665555808   -2.6212180245
 O    0.2619316533   -0.9614570607   -2.4845989174
 C    0.8352643671   -0.5583641772   -1.2632017886
 H    0.8967894584    2.0868159244    0.0579631947
 H   -0.8286924277    1.9861288519   -0.3283950108
 H   -0.2826524172    1.6964265505    1.3323840343
 H    0.8232035157   -1.1482517408    1.8410807246
 H    0.7767653249   -3.9187951892   -0.9324593360
 H    1.4169460988   -2.5019480195   -3.3109331337
 H   -0.3019804493   -2.8698879037   -3.0606961628
 H    1.7743527733    0.0010242095   -1.4210267534