18

 C    0.1133761153    1.5251630185    0.3756258137
 C    0.0585473428    0.0674226207    0.0693999397
 C    0.7638108317   -0.8866172052   -0.9802800830
 C    1.1874904870   -1.6917847573    0.2614053780
 N    0.0937281222   -1.0322394787    1.0498600187
 C   -1.0611825610   -0.9459962593    0.0542630799
 C   -0.6280902204   -1.4899878578   -1.3016434812
 C   -2.4162961590   -0.8285101607    0.6086719339
 O   -3.4166725172   -1.1055893214   -0.0114990564
 H    1.1421547276    1.8413021949    0.5816694591
 H   -0.2612193459    2.1206450915   -0.4632904677
 H   -0.4915395597    1.7509392046    1.2584539456
 H    1.4571531217   -0.6082491166   -1.7715441855
 H    1.1369015519   -2.7850497077    0.2131076192
 H    2.1447987396   -1.3796806919    0.6858150266
 H   -1.1423920314   -0.9556805760   -2.1028199590
 H   -0.6837984608   -2.5685457674   -1.4784063699
 H   -2.4557222645   -0.4535792100    1.6537457884