14

 O   -0.6316081905    0.7553635226    0.6386775351
 C    0.1510541256    0.9887571431   -0.2476803466
 C    1.3730055096    1.7973764827   -0.0341819019
 C    1.9102732288    2.3715444686    1.2790698917
 C    2.8736725896    3.2095471383    0.3845384406
 C    1.8958944554    2.9383992679   -0.8246116283
 N    2.5159059941    1.5816021957   -1.0179554253
 C    3.6835896274    2.1033163182   -0.2820952008
 O    4.8232478891    1.7901188303   -0.3817270478
 H    0.0100265185    0.6250033005   -1.2859826479
 H    1.1488881456    2.9862355310    1.7617717976
 H    2.3622595643    1.6896631491    2.0044095938
 H    3.3154124750    4.1459414479    0.7120021682
 H    1.5170749875    3.5258477441   -1.6479842384