20

 C   -0.0508197554    1.6187518757    0.0730511907
 C    0.0046479389    0.0906552412   -0.0232012233
 C    0.7452677399   -0.5273183281    1.1670125879
 C    0.7730552782   -2.0904208022    1.2061853934
 C    1.4922534160   -2.6896408747   -0.0322475008
 C    1.4630143135   -2.5214965434    2.4288647725
 C    2.0609780642   -2.8498992499    3.4168560133
 C   -0.6147394094   -2.5990329536    1.2412526286
 N   -1.7048868741   -2.9821096332    1.2424169950
 H    0.9544702433    2.0537960103    0.0956853447
 H   -0.5797431208    2.0465661008   -0.7835391702
 H   -0.5717596052    1.9396084084    0.9814373910
 H   -1.0139101333   -0.3121637107   -0.0684136245
 H    0.4947647093   -0.1933862775   -0.9613565036
 H    1.7893927430   -0.1946716684    1.1811884663
 H    0.2929603473   -0.1802737721    2.1019414093
 H    2.5077173805   -2.2891970940   -0.0853225781
 H    1.5486730116   -3.7765247777    0.0506534874
 H    0.9576104720   -2.4369547085   -0.9496891487
 H    2.5768957906   -3.1491713623    4.2959391593