19

 C    0.4334964967    1.3283113815    0.0318957405
 C   -0.1115182508   -0.1029652426   -0.0008230188
 C    0.4423655715   -0.9199956525   -1.2176834926
 C    1.5939651462   -1.7342966891   -0.6667016729
 O    2.5258922306   -0.9712978160    0.1129377311
 C    1.5281302552   -1.7426238041    0.7971396206
 C    0.3312824901   -0.9340810642    1.2517061096
 C   -1.6308526300   -0.0959471077   -0.0686162070
 O   -2.3276689397    0.8834444955   -0.0928070286
 H    1.5232182072    1.3118597094    0.0803849540
 H    0.1224258332    1.8793674311   -0.8601407797
 H    0.0440571492    1.8690802051    0.8991089353
 H   -0.3136779359   -1.6117527802   -1.6138052993
 H    0.7378320760   -0.2579813903   -2.0367433992
 H    2.0271057695   -2.5441302339   -1.2486618881
 H    1.9077605636   -2.5592260650    1.4063612028
 H    0.5515697470   -0.2814336648    2.1013667588
 H   -0.4568686647   -1.6299401340    1.5704988383
 H   -2.0810596749   -1.1187587382   -0.0958890748