14

 N   -0.0177364720    1.3459402165   -0.1690508976
 C   -0.0141633799   -0.0449403517   -0.0708552904
 N   -1.0906295347   -0.8101485672   -0.0695070278
 C   -0.6099891388   -2.0947691717   -0.0597774173
 O   -1.4496913177   -3.1591578493   -0.0531637182
 C    0.7560604898   -2.1364252986   -0.0393912965
 N    1.7373198420   -3.1435913408    0.0025181136
 N    1.1230332164   -0.7749599677   -0.0460223644
 H    0.5554772989    1.8018592225    0.5314227569
 H   -0.9693674668    1.6853236584   -0.1031654147
 H   -2.3417332088   -2.7929607737   -0.0581838258
 H    1.7201407858   -3.7304341130   -0.8252825170
 H    1.6253793320   -3.7528350149    0.8061698371
 H    2.0690150739   -0.4426890688   -0.1250657779