20

 N   -0.0004880084   -1.2114962150   -0.0894835342
 C   -0.0029288283   -0.0562081212   -0.1224933551
 C    0.0220539307    1.4037990176   -0.1586361774
 C    1.4166884023    1.9867585530    0.1718932528
 C    1.4103896719    3.4890253954    0.1446938418
 C    1.5525329875    4.2843271424   -1.1279942424
 C    2.5667710713    4.4783265863   -0.0328459135
 C    1.9898879558    5.3875033690    1.0576859039
 C    0.8006904776    4.3869882165    1.2370655340
 H   -0.2949445151    1.7370571313   -1.1530429601
 H   -0.7222524315    1.7816305617    0.5517263451
 H    1.7273339482    1.6231152105    1.1585152371
 H    2.1440507703    1.5997550559   -0.5501017076
 H    1.9034707596    3.7231310869   -1.9891374213
 H    0.8486422388    5.0779305895   -1.3716222289
 H    3.6184414020    4.2707774871   -0.1933716864
 H    2.6170514328    5.4449760089    1.9496563024
 H    1.7357536672    6.4054717239    0.7449237756
 H   -0.2059603264    4.7719535829    1.0425325177
 H    0.8066656138    3.9155363173    2.2235979065