15

 C   -0.0025060643    1.3854819322    0.0279662551
 O    0.0552466377   -0.0390331428   -0.0084405765
 C    0.6434644322   -0.5845047840   -1.0974149534
 C    0.6409803073   -2.0902255988   -1.0133147697
 N    1.1079415640    0.1478607587   -2.0212330963
 C    1.7248684988   -0.4872885878   -3.1716973286
 H    1.0019024979    1.8175148487   -0.0007680482
 H   -0.5651525317    1.7751433251   -0.8251668854
 H   -0.5021975440    1.6366648835    0.9649470961
 H    0.1227569711   -2.5194775029   -1.8768629140
 H    1.6658851500   -2.4752778966   -1.0289044957
 H    0.1502476791   -2.4239848077   -0.0992386707
 H    2.5018785310   -1.2167913349   -2.8998326794
 H    0.9882173709   -1.0131685276   -3.7965525597
 H    2.1936173998    0.2784632249   -3.7955875536