15

 N   -0.3917181106    0.4901465734   -1.3937063484
 C   -0.2193666475   -0.0491766517   -0.1292206814
 O    0.3155352539    0.5289213276    0.7805079637
 N   -0.8124478337   -1.3271086570   -0.0346209340
 C   -0.6885429608   -2.2157480396    1.0175213132
 O    0.0287990340   -2.0829830164    1.9739507272
 C   -1.5771808272   -3.4797770669    0.8887324431
 C   -2.3446677067   -3.6328756092   -0.3370768552
 C   -2.9673740351   -3.7276646154   -1.3622390654
 H    0.1354405875    1.3386024472   -1.5347925779
 H   -0.4125695725   -0.1303636508   -2.1886209134
 H   -1.4480590802   -1.6059744265   -0.7697480978
 H   -0.9086379367   -4.3341104328    1.0387216836
 H   -2.2445233671   -3.4640117476    1.7583581101
 H   -3.5296338875   -3.8366286345   -2.2570288976