19

 C   -0.0038626687    1.5604308359    0.0422065961
 C    0.1390248798    0.0431593938    0.0974000933
 N    0.5595948195   -0.4799784865   -1.2031471279
 C    0.6672375827   -1.9299520141   -1.2637061987
 C    0.8656622832   -2.3904509767   -2.7328920256
 C   -0.2854710381   -2.0538288547   -3.5598837534
 C   -1.2480344049   -1.7566131363   -4.2158106435
 C    1.8110520181   -2.3878332898   -0.4537834156
 N    2.6986000134   -2.7711340346    0.1785723518
 H    0.9387220041    2.0252154720   -0.2594979455
 H   -0.7753756158    1.8592378464   -0.6768606976
 H   -0.2915914666    1.9556102147    1.0204624016
 H    0.9036792617   -0.2308122505    0.8336579708
 H   -0.8076991355   -0.4121458279    0.4425983257
 H   -0.1028580053   -0.1929255885   -1.9188169006
 H   -0.2260649614   -2.4469160582   -0.8656114964
 H    1.7685617766   -1.9095801631   -3.1243466747
 H    1.0392038403   -3.4713965151   -2.7467860335
 H   -2.0906326633   -1.5093267169   -4.8135085264