20

 C    2.6021474536    1.3693822364    0.1758464395
 C    2.6269111822   -0.1429234980    0.2954012892
 O    2.2144706460   -0.6833868996   -0.9701918649
 C    2.1889320331   -2.0275154431   -1.0718238615
 N    2.4844477366   -2.7791850298   -0.0939025809
 C    1.7923843619   -2.4399658706   -2.4803646479
 C    0.9416056721   -3.6867204591   -2.5082819005
 C    1.0867113934   -4.7055274809   -3.5545134301
 O    1.6093038560   -4.9261620937   -2.2427908323
 H    3.2847745722    1.7113373954   -0.6074922701
 H    1.5968114892    1.7265967589   -0.0657024090
 H    2.9100289695    1.8223939362    1.1229587528
 H    3.6253437306   -0.5222025017    0.5370515266
 H    1.9498465955   -0.5059225337    1.0756684869
 H    2.4258406995   -3.7580578702   -0.3678140086
 H    1.2558661743   -1.6122166916   -2.9544021663
 H    2.7054417148   -2.6094903617   -3.0630708002
 H   -0.0265419425   -3.6000365735   -2.0135393180
 H    0.2359344981   -5.3275586727   -3.8272839362
 H    1.8315697239   -4.5677195369   -4.3372016083