23

 C   -0.0424119649    1.5691172496    0.1287620089
 C    0.0372742969    0.0635575064   -0.0054210592
 C    0.6696722524   -0.6271142310   -1.2090866609
 C    1.2968102312    0.1299601237   -2.3689734486
 C    2.7079591838   -0.3713058050   -2.7277842788
 C    3.7995435234    0.0873622138   -1.7483437847
 C    3.6482810820   -0.3943587281   -0.3038473413
 O    2.4878640151    0.1208199174    0.3431390370
 C    1.3481602867   -0.6580772862    0.1415183989
 H    0.9094807328    2.0443375747   -0.1132790778
 H   -0.8186556688    1.9877901480   -0.5211208987
 H   -0.2875691122    1.8441508900    1.1601274435
 H   -0.8172384433   -0.4595838728    0.4165806533
 H    0.2001748330   -1.5630460423   -1.5040218059
 H    0.6417645235    0.0293479355   -3.2424581680
 H    1.3464305859    1.2024606780   -2.1545425428
 H    2.7014746326   -1.4682944522   -2.7898098951
 H    2.9725578220   -0.0103621227   -3.7294364973
 H    4.7793841265   -0.2524403472   -2.1102668533
 H    3.8361025474    1.1847370628   -1.7375123155
 H    3.6450475202   -1.4945607372   -0.2618919745
 H    4.5014293551   -0.0444881990    0.2880718301
 H    1.3646415286   -1.6022507060    0.6893906707