18

 C   -0.1086243403    1.5365140096   -0.0533280745
 C    0.0986255808    0.0589499106   -0.0765036391
 C   -0.0185869581   -0.8607529709   -1.1168067049
 C    0.2906312139   -2.1743824095   -0.6344110396
 O    0.2675537642   -3.3523140087   -1.3287120562
 C    0.6269875370   -2.0139068050    0.6881581669
 C    0.8326005727   -2.4129997353    2.1376024714
 C    0.6316570146   -0.8785499125    2.4458801993
 N    0.5234792400   -0.6771992302    0.9899112328
 H    0.8205607112    2.0851511864    0.1456026649
 H   -0.4914638847    1.8743540882   -1.0193695353
 H   -0.8330703782    1.8398691196    0.7131498503
 H   -0.2654698915   -0.6079246734   -2.1393914373
 H   -0.0329127798   -3.1668637722   -2.2227258211
 H    0.0664370551   -3.0596945836    2.5740011151
 H    1.8183576244   -2.8050780222    2.4041024012
 H   -0.2864360356   -0.6425729625    2.9923735972
 H    1.4770427144   -0.3600273885    2.9073065289