18

 C    0.3495265769    1.4652157487   -0.0668428077
 C    0.0314746948    0.0010447917    0.1381630323
 C   -1.1586850189   -0.5168037513   -0.6425208841
 O    1.1671476043   -0.8928782460    0.1311388467
 C    0.4482875239   -0.7374509044    1.3501422074
 C    1.1841980599   -0.1917163464    2.5372723521
 C    2.6258604372   -0.4305066918    2.7072668432
 O    2.1244203549    0.8627296414    2.3622666028
 H    1.2642241140    1.7429124430    0.4533439067
 H    0.4684588683    1.6705613209   -1.1366548047
 H   -0.4734765084    2.0889626658    0.2993036311
 H   -1.0019460151   -0.3650126634   -1.7159875948
 H   -1.3111082568   -1.5845809373   -0.4669014985
 H   -2.0712786319    0.0189500749   -0.3597094027
 H   -0.1601385105   -1.6041595390    1.6279729278
 H    0.5673649884   -0.0999407872    3.4332070476
 H    3.0484639401   -0.5160363765    3.7067185521
 H    3.1630927090   -0.9396365329    1.9104774728