19

 C   -0.1052542086    1.5630942182   -0.0145334391
 C    0.0506854096    0.0660167384    0.1211874555
 N    1.2543704198   -0.7094728767   -0.2865589829
 C    2.4514881586    0.1205076162    0.1160125544
 C    2.0407437533    0.0942602059    1.6167048728
 C    0.7864193111   -0.6657830200    1.1758248391
 C    0.2496205458   -1.8697979033    1.8909972225
 C    3.7004000893   -0.5676597767   -0.1876240687
 N    4.7044913552   -1.0967167638   -0.4050932653
 H    0.6826873908    2.1355983969    0.4802921040
 H   -0.1264213238    1.8548942728   -1.0701326267
 H   -1.0566198167    1.8699347839    0.4316340555
 H   -0.8252679498   -0.4746386433   -0.2336528648
 H    2.4797551935    1.1060961687   -0.3584405700
 H    2.7143591742   -0.5202215315    2.2149033795
 H    1.9035551859    1.0581172928    2.1137756944
 H   -0.2497812947   -1.5753078699    2.8217692374
 H   -0.4779923713   -2.3983251505    1.2688451060
 H    1.0524273878   -2.5696945780    2.1451249065