20

 C    0.5020700027    1.6313333275   -0.2512207619
 C    0.0405662742    0.2129821453    0.1078055547
 N    0.3309131866   -0.7457702009   -0.9518385275
 C    1.4118528178   -1.5609739167   -0.7368907617
 O    1.8810043335   -2.3447779390   -1.5316712833
 C    1.9054310630   -1.2640304836    0.6839122175
 C    0.7929630685   -0.4227253879    1.2915924792
 C    0.9189953437    0.2676343645    2.6185364768
 C    0.0197395952   -0.9384702308    2.4788320718
 H    1.5838088460    1.6618739748   -0.4148154290
 H    0.0106799425    1.9769414301   -1.1669604283
 H    0.2535798189    2.3366641549    0.5475085892
 H   -1.0376926072    0.2308244924    0.3098469999
 H   -0.0659234907   -0.6759865178   -1.8762436222
 H    2.1063321637   -2.1931780063    1.2214139026
 H    2.8552321266   -0.7207738920    0.6045512351
 H    1.8504767644    0.1553563249    3.1636694461
 H    0.4494819675    1.2378184384    2.7457936556
 H   -1.0532494458   -0.7768054017    2.5028675573
 H    0.3399849089   -1.8732529061    2.9272559678