17

 C   -0.9837125647    0.6372967392    0.2799806848
 C    0.3852370041    0.1050387287   -0.0776525377
 O    1.3410212140    0.2063469051    0.6568456871
 C    0.4953953192   -0.5775292529   -1.4562575861
 C    1.8591020015   -1.2714916754   -1.6857036038
 O    1.5156618081   -2.6677667964   -1.8395841681
 C    0.1639622469   -2.7228261241   -1.7680968244
 N   -0.3509248974   -3.9709973765   -1.9691415780
 N   -0.5040057699   -1.6486028885   -1.5752361525
 H   -1.2870062150    1.4006790190   -0.4462601569
 H   -1.7180944883   -0.1696035611    0.2097121396
 H   -0.9685617750    1.0674448198    1.2818829340
 H    0.3021183783    0.2003051864   -2.2095100244
 H    2.3669457199   -0.9434936483   -2.5956279643
 H    2.5215880844   -1.1577739577   -0.8255863216
 H    0.2701622772   -4.7369799337   -1.7619587342
 H   -1.3022101133   -4.0882385635   -1.6592943735