17

 C    0.0116468963    1.4776374640   -0.2185384138
 N    1.4974473925    1.5275949385    0.1165028246
 C    1.3852253475    0.2248108331    0.8441397161
 C    1.1742186051    0.2327892087    2.3351308950
 C    0.2319126614   -0.6965585772    2.5333546509
 C   -0.0722789119   -1.2412021305    1.1483602658
 C    1.3091447396   -1.2963316052    0.3483709186
 N    0.5950706047   -0.9449853733   -0.9105519812
 C    0.0323891688   -0.0197135821    0.1449118249
 H   -0.5426019136    2.1166347805    0.4736685904
 H   -0.2617219804    1.7248926833   -1.2489941922
 H    2.0989011546    1.5300704616   -0.7008561452
 H    1.6788076386    0.8717641506    3.0461409588
 H   -0.2166339045   -1.0371608311    3.4555274161
 H   -0.7911467067   -2.0464172919    0.9993639530
 H    2.0685487913   -2.0884261776    0.3916839210
 H    1.2327195668   -0.4151217214   -1.5147280628