18

 C   -0.1428440271    1.5286610870   -0.0411957354
 C   -0.0267864814    0.0424121258    0.0418480816
 C    0.0422258356   -1.0403701097   -1.0126701748
 N    1.1784017982   -1.7907992962   -0.3987675452
 C    0.5187320273   -2.9567379100    0.3054832922
 C   -0.2860283349   -1.9288266441    1.1237554897
 C    0.8835597758   -0.9221660649    0.8452106521
 C   -1.0468742190   -1.0785945571    0.0707164946
 O   -2.3985231530   -0.9678899192   -0.1601892827
 H    0.7906635795    1.9851083673   -0.3883248857
 H   -0.9370261114    1.8102710665   -0.7399858538
 H   -0.3910476843    1.9648289857    0.9330040436
 H   -0.1527636457   -0.9991240278   -2.0780343644
 H   -0.0127548107   -3.6574475266   -0.3477089891
 H    1.2698778146   -3.4922487394    0.8933104829
 H   -0.7453426774   -2.1097838316    2.0950258061
 H    1.6986208519   -0.6754403589    1.5240304308
 H   -2.6805417380   -1.7015558967   -0.7186043824