15

 O   -0.6085437139    0.9052121963    0.6786038521
 C    0.0948631744    1.1696528159   -0.2624975202
 C    1.3318062296    2.0271110565   -0.1726122180
 C    1.2310801195    3.3405928222   -0.9866719171
 O    0.0191666828    3.9266709829   -0.4340438602
 C    0.7907708437    4.1466908909    0.7477874475
 C    2.1131783083    4.2628942382   -0.0128425010
 O    2.8270893520    3.4350470471    0.8979509964
 C    1.5419341569    2.7893210636    1.1489690368
 H   -0.1248322340    0.7666078324   -1.2768802974
 H    2.2210395810    1.4396538828   -0.4284674414
 H    1.2735612758    3.3390406275   -2.0736206593
 H    0.3605499071    4.8092834567    1.4945162499
 H    2.6257794174    5.1507253274   -0.3770424648
 H    1.4619698594    2.2800791497    2.1042575066