17

 C   -0.1345475824    1.4023695031    0.0133866077
 N   -0.1041550725   -0.0499373648   -0.0430715080
 C    0.5731002744   -0.6341001215   -0.9655387671
 C    1.3586004168    0.0209733165   -2.0216984473
 N    2.0423674325   -0.5453936078   -2.9529455019
 O    2.0505816474   -1.9291049755   -2.9788944965
 C    1.3543146406   -2.6231376688   -2.0443976992
 C    0.6245418620   -2.0867003124   -1.0511894690
 C   -0.1185579807   -2.9215221064   -0.0550313104
 H    0.8630007330    1.8422119036    0.1602628827
 H   -0.5644996739    1.8532544113   -0.8932389728
 H   -0.7556494725    1.7100464883    0.8581702452
 H    1.4042436858    1.1043032643   -2.0713539568
 H    1.4708762974   -3.6877240486   -2.2136214375
 H    0.0156876682   -3.9893545464   -0.2462002328
 H    0.2196121463   -2.6934011306    0.9608955688
 H   -1.1869606825   -2.6839753844   -0.0803009954