19

 O    0.0056669160   -0.0750884284    0.1466523185
 C   -0.0125174464    1.1310383602    0.0294613096
 N   -1.1291666704    1.9431521846   -0.0533445364
 C   -0.8321753904    3.3606247917    0.0528559748
 C   -1.2332823100    3.9981191127    1.4039459428
 C   -0.0163767652    3.7773023617    2.3159753347
 C    1.1677651242    4.0308883899    1.3699715750
 C    0.7461269558    3.3822291763    0.0304863061
 N    1.0786784406    1.9733859499   -0.0847753052
 H   -2.0217572971    1.5555930364    0.2005628391
 H   -1.2626361705    3.9093555900   -0.7910067873
 H   -1.4027000448    5.0719998830    1.2591694272
 H   -2.1620958278    3.5730299000    1.7959235118
 H   -0.0129084938    4.4311948748    3.1917513518
 H    0.0028550576    2.7437230442    2.6784339668
 H    1.3036894515    5.1089372932    1.2209206684
 H    2.1185346697    3.6314045785    1.7353357690
 H    1.1373197277    3.9422880023   -0.8249700560
 H    1.9883853032    1.6105052089    0.1435727492