21

 C    0.1942566296    1.6576230939    0.1639588681
 C    0.0677123509    0.1254744883    0.0063141794
 C    0.6982442214   -0.3459435547   -1.2892944023
 C    0.1380631956   -1.5446871487   -2.0313983853
 C   -0.0115524644   -0.1524315176   -2.5949787300
 O   -1.2605927704    0.4812073394   -2.5403573458
 C    0.7424798655   -0.5413956891    1.2104113463
 C   -0.1486950478   -0.8567567999    2.3979631513
 O    1.9287996403   -0.7800832629    1.2209442362
 H    1.2464311572    1.9578439011    0.1409757456
 H   -0.3326810446    2.1523410257   -0.6549274902
 H   -0.2354436735    2.0050218629    1.1094653877
 H   -0.9978098168   -0.1251235084    0.0086440968
 H    1.7774366302   -0.2353915888   -1.3040913043
 H    0.8218346277   -2.2386139667   -2.5078027718
 H   -0.7623190745   -1.9975075871   -1.6272560975
 H    0.5915566051    0.1129859516   -3.4631792353
 H   -1.8308236788    0.0740125606   -3.2004974191
 H   -0.7698084750    0.0051812125    2.6642991122
 H   -0.8358748368   -1.6681039257    2.1282311625
 H    0.4549371193   -1.1644177763    3.2527899154