21

 C   -0.2840256615    1.4876353855    0.3286780441
 C    0.0628880068    0.0247719187    0.0402704406
 C    0.9183143144   -0.6575690778    1.1304429129
 C    2.3095573864   -0.0314615203    1.2676161942
 O    0.2231107015   -0.6234987827    2.3842232030
 C    1.0246925373   -2.1530330832    0.7922014989
 O    1.8482874267   -2.8509423603    1.7247309646
 C    1.2458082998   -3.3627347364    2.8210544362
 O    1.8647880129   -3.8530060513    3.7167767842
 H    0.6022502489    2.1298398286    0.3394608064
 H   -0.9607471563    1.8789717557   -0.4361855435
 H   -0.7873112747    1.5802978283    1.2957516170
 H   -0.8690030672   -0.5453111706   -0.0581301809
 H    0.5849818435   -0.0538333057   -0.9216135984
 H    2.2369076446    1.0124317129    1.5907239825
 H    2.9039667487   -0.5839901202    1.9981806982
 H    2.8423030532   -0.0436297688    0.3116793623
 H    0.5384674938    0.1289816557    2.8924586109
 H    0.0180957628   -2.5888937273    0.7765589096
 H    1.4828287537   -2.2970718862   -0.1891671407
 H    0.1448508547   -3.2958324646    2.7763915279