16

 C   -0.2004312360    1.5047038717    0.0476670563
 C   -0.0452435568    0.0033003312   -0.0139036067
 C   -0.1766156838   -0.6227339349   -1.2226427505
 N    0.0046205418   -1.9263546453   -1.5893888524
 C    0.1797795439   -2.9524316157   -0.8333022727
 C    0.1874096170   -3.1292423374    0.6449131873
 O    0.1370046968   -4.2664010034    1.0963916768
 C    0.3328605735   -1.9708373888    1.5266532115
 C    0.2433113971   -0.6513367136    1.2327066951
 H    0.7249453601    1.9798482583    0.3945728058
 H   -0.4504960330    1.9245368782   -0.9287185183
 H   -0.9879406781    1.7886461762    0.7552463272
 H   -0.4186862203    0.0120929209   -2.0733033799
 H    0.3284118652   -3.9088472931   -1.3413369993
 H    0.5299178299   -2.2547013832    2.5572711391
 H    0.3773896626    0.0283213889    2.0727867509