16

 O    1.5509600224    1.4167367955   -2.1382833915
 C    1.7342217196    0.9470194127   -1.0471823303
 C    1.5673902118    1.7342192139    0.2623819906
 O    1.5721328324    1.1071414913    1.2981723954
 C    1.3697588792    3.2223504284    0.1311721968
 C    1.1352944783    4.1416069788    1.3483222550
 C    2.6250875892    3.9065841221    1.6817846358
 N    2.6687847893    4.0974154819    0.1480247428
 C    1.6782146232    5.2490987335    0.4184157590
 H    2.0073480530   -0.1151004088   -0.8718766326
 H    0.7891041850    3.4202284762   -0.7739424444
 H    0.2704688750    4.1609610339    2.0178051926
 H    3.1540720422    4.7005192712    2.2146487019
 H    2.9361029375    2.9222546811    2.0258348865
 H    1.0896522044    5.5329909757   -0.4578300992
 H    2.1539612776    6.1161179127    0.8829433516