22

 C    0.0580346106    1.5310374187   -0.0337906302
 C    0.0814445035    0.0163997061    0.1604411315
 N   -1.2499421500   -0.5517623623    0.0697852213
 C   -2.1789644946   -0.3199389748    1.2074195967
 C   -2.5167252075   -1.8284951780    1.2425670616
 C   -2.7087409862   -2.5352943189    2.5573160352
 O   -3.5130156070   -2.2023270516    0.2570487676
 C   -2.4984072108   -2.5644519222   -0.7147566049
 C   -1.3872754610   -2.0199666270    0.1919813385
 H    1.0699296750    1.9438375293    0.0231889109
 H   -0.3733584913    1.7863338128   -1.0058205472
 H   -0.5438905954    2.0181706185    0.7407739224
 H    0.6952869449   -0.4467330723   -0.6219024694
 H    0.5703675077   -0.2206544110    1.1281495529
 H   -1.6639729502    0.0117202690    2.1234728619
 H   -3.0119238908    0.3570123950    0.9935880552
 H   -3.6562417957   -2.2255775043    3.0133627315
 H   -2.7440762203   -3.6192447977    2.4140844188
 H   -1.9003135670   -2.2982739475    3.2556072734
 H   -2.4781187303   -3.6507313257   -0.8759065112
 H   -2.6244943368   -2.0421198514   -1.6683234762
 H   -0.4662972968   -2.5897166146    0.3386485598