16

 C   -0.0070436233    1.5168620618    0.1023724980
 C    0.0105297713    0.0295402560    0.0048168485
 C   -0.0024783107   -0.7565454369   -1.0969434963
 N    0.0230331263   -2.1166209527   -0.7538608054
 C    0.0550947824   -2.3053686211    0.6115291345
 O    0.0807428438   -3.3602654480    1.1979487087
 C    0.0482295061   -0.8820855251    1.2057759895
 C   -0.0378063127   -0.3919171512   -2.5093768132
 O   -0.0457917914   -1.2186425488   -3.3985523785
 H    0.8798033439    1.8836208827    0.6347343642
 H   -0.0368746094    2.0033528274   -0.8746173330
 H   -0.8769206093    1.8600671421    0.6767232958
 H    0.0174726382   -2.8525265486   -1.4422235889
 H    0.9374192410   -0.7324639757    1.8299843042
 H   -0.8175549914   -0.7561852468    1.8670284456
 H   -0.0571024350    0.6935742449   -2.7250440539