18

 O    0.1518480176    1.3627618275   -0.3567373917
 C    0.0514694041    0.0109651527    0.0511855623
 C   -1.3501515537   -0.5655056719   -0.1647419945
 C   -1.4260200391   -2.0505342632    0.2056431452
 N   -2.7674262720   -2.5954400066    0.0676569930
 C   -3.3973342497   -3.0655943922   -1.0352554250
 C   -4.6601066208   -3.3807378535   -0.5945566127
 N   -4.7419490119   -3.0909067559    0.7323956607
 N   -3.5971432033   -2.6132747283    1.1314083158
 H   -0.4206553599    1.8881557627    0.2115434088
 H    0.7811503304   -0.5353286584   -0.5577537655
 H    0.3521610528   -0.1173938213    1.1037661314
 H   -2.0765500845   -0.0169824844    0.4476618033
 H   -1.6366862017   -0.4218260251   -1.2123233297
 H   -0.7506732093   -2.6445653846   -0.4184507563
 H   -1.1420229719   -2.2039941453    1.2497396002
 H   -2.9116667673   -3.1371085612   -1.9939515548
 H   -5.4925823698   -3.7963308711   -1.1386335804