21

 C   -0.1705007981    1.6969588709    0.3480860357
 C   -0.1546957578    0.1663026029    0.4176914032
 C   -1.5810171522   -0.3562465181    0.1986497935
 C    1.0597351136   -0.5271416647   -0.2676614989
 O    1.9508653301    0.1434968568    0.7241950501
 C    0.8102033590   -0.4013916747    1.5187664995
 C    1.0325150135   -1.7459829752    0.7401567957
 C    0.0377535983   -2.9006441545    0.7445502185
 O    2.2911766574   -2.3303012858    0.9278564412
 H    0.8071179380    2.1262099919    0.5608290651
 H   -0.4899728926    2.0283293586   -0.6464659214
 H   -0.8958572067    2.0947389910    1.0673992147
 H   -1.6308881282   -1.3467837212   -0.2490551542
 H   -2.1430029944   -0.3790468797    1.1391086477
 H   -2.1139109645    0.3245296953   -0.4725000100
 H    1.3829035662   -0.5006552916   -1.3113813519
 H    0.8253453354   -0.2037799827    2.5935438056
 H   -0.1268782994   -3.2927488090   -0.2637413218
 H    0.4751530020   -3.7026842292    1.3432344901
 H   -0.9257752702   -2.6422490067    1.1794597824
 H    2.9077777305   -1.5822787142    0.9317660053