19

 C   -0.1217641415    1.4953054774    0.0543685734
 C    1.4036094940    1.4958112844   -0.2409600677
 C    1.4883248219    0.1319700557    0.4960088534
 C   -0.0392557118   -0.0399293929    0.2784878195
 N    2.4031636950   -0.8847509924    0.0312072108
 C    2.5181150081   -1.4139723864   -1.2142916077
 C    3.5308319071   -2.3485567663   -1.1649330844
 C    3.9729813238   -2.3120351649    0.1728164076
 N    3.2910792415   -1.4270751394    0.8944390879
 H   -0.3567723790    2.0288593535    0.9790329970
 H   -0.7866991437    1.8536891797   -0.7330613738
 H    1.6035864284    1.3793483096   -1.3099573088
 H    2.0148305418    2.3143278334    0.1446074290
 H    1.7244628861    0.2671500740    1.5515810740
 H   -0.6157675920   -0.4855967568    1.0916529478
 H   -0.2466749295   -0.5900177617   -0.6438404441
 H    1.8847743425   -1.0934094252   -2.0260422842
 H    3.8922790509   -2.9617160655   -1.9744345627
 H    4.7566931463   -2.8905731565    0.6398397130