19

 C   -0.1342745916    1.5795236789    0.0070239450
 C    0.0154394396    0.0659273690   -0.0188061431
 C    1.2115120481   -0.6162572626   -0.7877563963
 C    2.4160185481    0.0108582805   -0.0714535824
 O    1.9588999304   -0.0161403971    1.3062450378
 C    0.6622789638   -0.6508290998    1.2191724822
 C    0.0325251377   -0.8167558698    2.5674033238
 C    0.9472780303   -1.7781743846    0.1977012154
 O    0.8434263369   -2.9658221361    0.1419807053
 H    0.7406310742    2.0618863750    0.4478618045
 H   -0.2824985391    1.9790738749   -1.0013126481
 H   -1.0055304031    1.8625771029    0.6063487934
 H   -0.9260375504   -0.4211436307   -0.2929060248
 H    1.2449595327   -0.7399833882   -1.8675005170
 H    3.3314439913   -0.5824472649   -0.1777894062
 H    2.6259016152    1.0427639383   -0.3732100284
 H   -0.1367019610    0.1556915081    3.0402462522
 H   -0.9253644534   -1.3361686467    2.4775361795
 H    0.6844883904   -1.4045250271    3.2196523971