23

 C   -0.3573565935    1.5197416967    0.6382444727
 C   -0.2116588348    0.0022842116    0.5278412633
 C    0.0864664398   -0.5532603841   -0.9005478998
 C    1.1783602251   -1.6027594563   -0.5892986407
 C    2.5335870711   -0.8917582226   -0.3691046295
 C    2.3569847375   -0.3530675017    1.0856784722
 C    2.8333999993    1.0782942181    1.3312372799
 C    0.8758570920   -0.7396249359    1.3535943302
 O    0.8298283031   -2.0390003051    0.7376073434
 H    0.4609790496    2.0592173675    0.1561678633
 H   -1.2848840671    1.8429607771    0.1536922966
 H   -0.4051586055    1.8452067060    1.6832714831
 H   -1.1537802075   -0.4411658977    0.8681955992
 H   -0.7980799384   -1.0141246317   -1.3470816559
 H    0.4421149186    0.2217782307   -1.5866532272
 H    1.2046220264   -2.4632591821   -1.2581528230
 H    3.3704517034   -1.5907243877   -0.4419233575
 H    2.7026060338   -0.0909030255   -1.0957295790
 H    2.9281881766   -1.0058980583    1.7547299980
 H    2.4531354041    1.7835965705    0.5889198989
 H    2.5341135473    1.4385309466    2.3216698369
 H    3.9268264222    1.1218863786    1.2854965865
 H    0.6328242171   -0.8308196048    2.4145295081