20

 C    0.2487870704    1.5440151870   -0.1387847038
 C    0.0529141036    0.0644651511   -0.0139048900
 C   -1.0814499308   -0.6560425949   -0.0202582982
 C   -2.5168879049   -0.2413449799   -0.1314166508
 O   -2.7132587670    1.1193747742    0.2211336210
 C   -0.7699321303   -2.1203044997    0.0151648043
 N   -0.0031705516   -2.5764912485   -1.1838868603
 C    0.7072475922   -2.2448315745    0.0715605291
 C    1.2771995844   -0.8364664180    0.1004107812
 H    0.8331137999    1.7758354377   -1.0392919639
 H   -0.6986281647    2.0764004883   -0.1867578883
 H    0.8289386943    1.9298080315    0.7103549764
 H   -2.8640436266   -0.4363480067   -1.1617684548
 H   -3.1184912009   -0.8991249440    0.5211258869
 H   -3.6207233094    1.3512327647    0.0043756753
 H   -1.4439306771   -2.8232452707    0.4964085856
 H   -0.0733972341   -3.5919265773   -1.2421689254
 H    1.1959446953   -3.0441268082    0.6181390919
 H    1.9812182286   -0.6630720689   -0.7231145545
 H    1.8254436987   -0.6426451531    1.0330421883