19

 C   -0.3603596758    1.5135190832   -0.2294559218
 C    0.0238332788    0.0465664213    0.0468067971
 C    0.8678678898   -0.5366699406   -1.0863262283
 O    2.0472995465    0.2178636591   -1.3179896125
 C    3.1861581986   -0.2474089006   -0.6468830364
 C    3.1178664224   -0.3605267742    0.8457047918
 C    2.0834443717   -0.2710023846    1.6912939184
 C    0.6349901249   -0.0551537199    1.4478070663
 O   -0.0995964826    0.0418739100    2.4146959521
 H    0.5333145555    2.1341150571   -0.3323317962
 H   -0.9323826308    1.5882895346   -1.1598529676
 H   -0.9714974847    1.9020651843    0.5878862842
 H   -0.9022035879   -0.5393123913    0.1064171834
 H    1.1146717507   -1.5916315379   -0.8962986733
 H    0.2892127421   -0.4956664975   -2.0162545743
 H    3.4989064515   -1.2347657040   -1.0401995726
 H    3.9947178479    0.4480023953   -0.9068264042
 H    4.0951012725   -0.5651045314    1.2842050231
 H    2.2820695288   -0.3790582529    2.7545759910