18

 C    0.1264231714    1.5947298591    0.0657532262
 C   -0.0337255703    0.0792465176   -0.0775936802
 N    0.6913027299   -0.4714671742   -1.2093212780
 C    0.0559340980   -0.7685749872   -2.4195775097
 O   -1.1358040902   -0.6873896046   -2.6645608367
 N    1.0859493570   -1.1648065437   -3.2452917203
 C    2.3187742767   -1.1223968401   -2.5753480470
 C    2.0663319742   -0.6843666521   -1.3218640428
 N    2.9188128996   -0.3636810779   -0.2558477441
 H    1.1751980573    1.8624342447    0.2167167880
 H   -0.2398656211    2.1020166120   -0.8311728405
 H   -0.4517050061    1.9541088933    0.9231485712
 H    0.2872035583   -0.4288014479    0.8389814921
 H   -1.0809209525   -0.1812726591   -0.2515475069
 H    0.9302219908   -1.4231807792   -4.2023629542
 H    3.2439337935   -1.4049565163   -3.0451007197
 H    3.8887632468   -0.4884232165   -0.5180530337
 H    2.7369906667   -0.9234810079    0.5721684766