15

 N   -0.0588090620    1.3170263780    0.0109422670
 C    0.0638182271   -0.0324579142    0.0029455201
 O    1.1228330886   -0.6368541862   -0.0097769098
 C   -1.2486123425   -0.7503665562    0.0119000104
 C   -1.4028320460   -2.0784328677    0.0092158513
 C   -2.8603148442   -2.4407424077    0.0200857007
 N   -3.4963687180   -1.1422123566    0.0292277606
 C   -2.6015904638   -0.1057101980    0.0248806181
 O   -2.8752647948    1.0846480518    0.0306169791
 H    0.7781113084    1.8755143547    0.0027952275
 H   -0.9811291879    1.7385404880    0.0178949048
 H   -0.6023815507   -2.8054833591    0.0003986925
 H   -3.1351293619   -3.0339071230   -0.8639050636
 H   -3.1206030349   -3.0392491288    0.9048698043
 H   -4.4904065674   -0.9887991351    0.0376708873