18

 O   -0.0448903803    1.3710102273    0.0713545088
 C    0.0091316705   -0.0392574537    0.0081842327
 C   -1.4251901978   -0.6138016020   -0.1202331280
 C   -1.2888339675   -0.4014525058   -1.6603933583
 C    0.2317369005   -0.6148648819   -1.4238296785
 O    0.5945111689   -1.9850887260   -1.3195907567
 C   -0.4612386530   -2.8188797236   -0.8419313005
 C   -1.3607379548   -2.1166270933    0.1984507401
 H    0.8436514489    1.7094110439   -0.0814366355
 H    0.6515378212   -0.4658737428    0.7915844387
 H   -2.2158703419   -0.0932196965    0.4237153486
 H   -1.8140895807   -1.0713693649   -2.3442286618
 H   -1.4856595552    0.6351635361   -1.9329652975
 H    0.9620755437   -0.1370308035   -2.0828256027
 H   -1.0762927488   -3.1476543717   -1.6912931987
 H    0.0178963865   -3.7100093018   -0.4271237900
 H   -0.9731209751   -2.2588991638    1.2140523490
 H   -2.3589705253   -2.5677234160    0.1664819004