18

 O   -0.0090894390   -0.1219756381    0.0160952460
 C   -0.0322788653    1.0926885046    0.0107229708
 C   -1.3422360502    1.8883119892    0.0341397215
 C   -1.1418353374    3.3941760302    0.2357722900
 C   -0.0193656061    3.8956521375   -0.6776004136
 C    1.1574780910    3.2955910356    0.1049622781
 C    0.7754843098    3.7264311986    1.5315884884
 O   -0.6529663427    3.6452373815    1.5660781223
 N    1.1163772337    1.8441598532   -0.0498543093
 H   -1.8670522230    1.6848719271   -0.9070072494
 H   -1.9592100939    1.4763495553    0.8371798588
 H   -2.0850788718    3.9358322707    0.1267934279
 H   -0.0821449464    3.5252529476   -1.7021577447
 H    0.0302191275    4.9875198162   -0.6844323473
 H    2.1387302555    3.6587744670   -0.2046252008
 H    1.1998968502    3.0648960695    2.2938088562
 H    1.0998909263    4.7567972720    1.7372193893
 H    1.9708644119    1.3123031923    0.0288855459