19

 O    0.0845820016    1.4331335002   -0.2640892775
 C   -0.0651877761    0.0494460079   -0.1372054143
 C   -0.0820145319   -0.6526260985    1.2611715900
 C   -1.5280195476   -0.0981877488    1.4394591360
 C   -1.4747563641   -0.6191457328   -0.0297386345
 C   -0.7571135764   -1.8780215423    0.5556837981
 C    0.0117477688   -2.8647750062   -0.3311568317
 C    0.8990383487   -3.7601583664    0.5066112316
 O    0.7902007937   -4.9561492720    0.5903264736
 H   -0.4977106688    1.8813133777    0.3571211613
 H    0.6124207511   -0.3707348423   -0.8799028862
 H    0.7114401432   -0.6706083950    2.0098562939
 H   -2.1782544981   -0.6454261267    2.1263808568
 H   -1.6475947899    0.9772396584    1.5979389609
 H   -2.2796492552   -0.6073086798   -0.7663632340
 H   -1.4019298827   -2.4436939903    1.2359370589
 H   -0.6885607047   -3.4974869177   -0.8849526694
 H    0.6528222778   -2.3504730956   -1.0561183700
 H    1.6885491205   -3.2174152798    1.0773817764