17

 C   -0.0997251098    1.5448743533   -0.0137917967
 C    0.0447522005    0.0251688880   -0.0389535466
 N    0.8948397358   -0.4086449200   -1.1768790961
 C    1.8152089707   -1.1649941260   -0.7369115182
 N    1.8531319852   -1.3650488279    0.6661362134
 C    0.7364183367   -0.5498720994    1.2276901401
 C    0.2102475597   -1.8101743790    1.9675670407
 C    1.3707167490   -2.5655269741    1.2915107294
 O    1.7591525336   -3.6900134905    1.2263707474
 H    0.8754445963    2.0229692005    0.1252350715
 H   -0.5225281681    1.9037853306   -0.9550946710
 H   -0.7562731137    1.8566134509    0.8051758961
 H   -0.9472589277   -0.4206168898   -0.1948803577
 H    2.5470385183   -1.6626328362   -1.3638614273
 H    1.0973116000    0.2406240147    1.8906379430
 H    0.2306815841   -1.7931916811    3.0592443122
 H   -0.7662860506   -2.1687672140    1.6311985697