17

 O    0.1007643702    1.3252479582    0.6637619565
 C    0.1505797835    0.0200639345    0.1698529351
 C    0.3968160970   -1.1584967439    1.1707970605
 C   -1.0200111726   -1.7198438934    0.8996816392
 C   -2.1357495783   -1.0354865214    1.7098939638
 O   -2.2479712778    0.0440291686    0.7320629885
 C   -1.2808938887   -0.5873409438   -0.1256340464
 C    1.0377679716    0.0010282125   -1.0548791759
 O    1.6088637526   -0.9761909974   -1.4686587406
 H   -0.8034876529    1.4430141653    0.9972370280
 H    1.1930613610   -1.8138752547    0.8122699110
 H    0.6047424592   -0.8441670192    2.1960404172
 H   -1.1278845569   -2.7797863697    0.6804788201
 H   -3.0777749161   -1.5910517589    1.7678178921
 H   -1.8677726720   -0.6637526730    2.7051866925
 H   -1.6241839356   -0.6869225505   -1.1572428244
 H    1.0882240557    0.9853741868   -1.5690078573