17

 O   -0.1661177243   -0.0079627497    0.0180983754
 C   -0.0132818728    1.1854012860   -0.0128000196
 C    1.3178660110    1.8898895729   -0.0365894885
 C    1.4222371132    3.1756784539    0.8228554172
 O    1.7953048900    3.9805969521   -0.3106860235
 C    1.5658862618    2.8804338123   -1.2148748629
 C    2.8239831654    2.3350344477   -1.9146077613
 O    2.9880990723    1.0062370366   -1.4452650660
 C    2.5424587950    0.9645852368   -0.0961632421
 H   -0.8883549682    1.8755671822   -0.0279755078
 H    0.4703836713    3.5075028188    1.2574389343
 H    2.1909612711    3.1609911769    1.6034649423
 H    0.7317594704    3.0869373584   -1.8943199817
 H    2.7386703390    2.2940597320   -3.0033769304
 H    3.6736151351    2.9790115003   -1.6399573417
 H    3.3284195946    1.3166200519    0.5897931333
 H    2.2871491053   -0.0695419190    0.1412903232