18

 C   -0.2406409851    1.5744835530   -0.1387784941
 C   -0.0796813028    0.0868709055   -0.0518045273
 C   -0.0901180749   -0.7935324172   -1.1035327465
 N    0.0787742453   -2.0759372422   -0.5984096273
 C    0.1923360603   -2.0052448880    0.7550953898
 O    0.3822310513   -3.1302758425    1.4784844909
 C    0.0991433277   -0.6863017290    1.1484132292
 C    0.1597843015   -0.2585613601    2.5798253965
 O    1.0367367906   -1.1135389065    3.3475939467
 H    0.6021181630    2.1057549550    0.3213197314
 H   -0.3015738251    1.8998053635   -1.1814081084
 H   -1.1490889408    1.9236809264    0.3675654725
 H   -0.2054877258   -0.6260886803   -2.1617630178
 H    0.1508198056   -2.9255237489   -1.1299218199
 H    0.5935996592   -2.8185068548    2.3759055063
 H    0.4709820261    0.7913279584    2.6708604767
 H   -0.8063005841   -0.3484689287    3.0921775687
 H    1.9207262080   -1.0018412636    2.9781648827