23

 C    0.2312638080    1.6128916278    0.2543685918
 C    0.1239733647    0.0850793224    0.1145725260
 C    0.7263410289   -0.5820286627    1.3682640278
 C   -1.3774288660   -0.3170448341   -0.0567284905
 C   -2.2366360414   -0.0058352774    1.1464595347
 O   -2.9459080455    0.9647464869    1.2465774972
 C    0.8648094027   -0.4605987126   -1.1104898369
 C    0.8273066144    0.1811834089   -2.4740016520
 C    2.1158134261    0.1539634651   -1.6869069175
 H    1.2621145354    1.9191386980    0.4544375719
 H   -0.1133036240    2.1322746813   -0.6446574312
 H   -0.3859739601    1.9673496864    1.0841991141
 H    0.2733827931   -0.2047640969    2.2907851276
 H    0.5910886975   -1.6692089844    1.3459487705
 H    1.8009872696   -0.3814839085    1.4202904932
 H   -1.7933033590    0.2100014562   -0.9203217134
 H   -1.4291211686   -1.3972084535   -0.2458248711
 H   -2.1742360536   -0.7444172605    1.9784837774
 H    0.8532461257   -1.5490593106   -1.1310973409
 H    0.7323546707   -0.4640580722   -3.3404908483
 H    0.3303502116    1.1388034218   -2.5846712008
 H    2.4701071940    1.0942492329   -1.2805188840
 H    2.9086175059   -0.5113704143   -2.0108543256