22

 C   -0.4180729891    1.4644022716   -0.1177675137
 C   -0.2271274439   -0.0458527294   -0.2740549145
 C    1.1119411510   -0.4169046099   -0.9277873671
 C    1.2819774521   -1.9114073241   -1.0587757338
 O    0.5049655994   -2.5784985448   -2.0645782040
 C    1.9346728317   -2.6096817941   -2.1792988763
 C    2.5479351534   -1.9520683003   -3.3926620127
 C    2.3335778354   -2.7889472654   -4.6603597338
 H    0.3698693478    1.9023697546    0.5055083875
 H   -0.3887000874    1.9702772951   -1.0893136028
 H   -1.3798599451    1.6980228496    0.3492032750
 H   -0.2960847104   -0.5296429173    0.7092125414
 H   -1.0386469934   -0.4659499641   -0.8796097283
 H    1.1813389460    0.0593441706   -1.9108976352
 H    1.9407170764   -0.0226056838   -0.3231294609
 H    1.2784823123   -2.4376208956   -0.0996500273
 H    2.3592642282   -3.5925697414   -1.9539047311
 H    2.1214671180   -0.9551443579   -3.5342159079
 H    3.6221930296   -1.8181815204   -3.2091499050
 H    1.2652250354   -2.9217995155   -4.8548163057
 H    2.7830037539   -2.3058436028   -5.5329109324
 H    2.7819977689   -3.7834208947   -4.5599562513