19

 C    0.0064263643    1.4506809050    0.0057860831
 O    1.2049118673    0.6484831280   -0.0222648547
 C   -0.0411714061   -0.0073755992   -0.0024603056
 C   -0.5566733857   -0.9638185664    1.0786057477
 C   -1.6464174634   -1.3498502358    0.0279062972
 C   -0.5977577629   -0.9641496489   -1.0689255562
 C    0.3793718126   -2.1181119535   -1.2047238801
 C    0.8646856531   -2.6668050301   -0.0910088732
 C    0.4552476591   -2.1143645130    1.2562502623
 H   -0.1634727609    1.9996571647    0.9317241927
 H   -0.1958243017    2.0096932375   -0.9073236125
 H   -0.8775951795   -0.5467940896    2.0358918153
 H   -1.9947636679   -2.3840879433    0.0213085291
 H   -2.4946636853   -0.6616781827    0.0542103459
 H   -0.9416699560   -0.5608253935   -2.0218215243
 H    0.6588295086   -2.4678008807   -2.1930785180
 H    1.5627249386   -3.4982536651   -0.1184551252
 H    1.3397293466   -1.7442022622    1.7926786036
 H    0.0254926592   -2.9056864811    1.8856743928