19

 C    0.0180129231    1.4038580454   -0.1657103234
 O    0.0202265489    0.0714305089    0.3031903724
 C   -1.1973513011   -0.5813613068    0.1416582074
 C   -1.5835618172   -1.3203011357   -1.1721026948
 C   -0.3891815573   -2.0230589467   -1.7970782142
 O    0.4936737592   -2.5397323199   -0.8103408513
 C   -0.0824676826   -2.8352565784    0.4557143490
 C   -1.3278907610   -2.0027268613    0.7159431596
 O   -2.2823323993   -2.2989342182   -0.3475336753
 H    0.9986351553    1.8273259236    0.0611438409
 H   -0.1479098325    1.4592676497   -1.2516049332
 H   -0.7566440836    2.0058930481    0.3337747653
 H   -2.0383607744    0.0427082490    0.4739448266
 H   -2.2379083635   -0.8469837356   -1.9092057198
 H   -0.7669919617   -2.8294017220   -2.4452575076
 H    0.1993156778   -1.3321260931   -2.4126535795
 H   -0.3639683633   -3.8979650346    0.5187145334
 H    0.6896357168   -2.6311242919    1.2057825000
 H   -1.7427776236   -2.1550528004    1.7156816645