21

 C    0.1119851333    1.5605165436    0.0093509997
 C   -0.0250720096    0.0388031594    0.0024645741
 C   -1.4959828302   -0.4906210972    0.0136564492
 C   -1.4623362758   -2.0535812364    0.0049429712
 C   -2.8334883240   -2.7275909452    0.0144161853
 C   -2.1808685084   -0.0187049685    1.2271359864
 C   -2.7107293238    0.3466196305    2.2421899195
 C   -2.2038529549   -0.0057706360   -1.1813945705
 C   -2.7529517378    0.3703573334   -2.1821777439
 H    1.1680984873    1.8462926352    0.0008101380
 H   -0.3666434085    2.0026113177   -0.8690303165
 H   -0.3497458159    1.9930780695    0.9014173189
 H    0.4606724371   -0.3786277026   -0.8865361164
 H    0.4775125382   -0.3881256893    0.8774838686
 H   -0.8993735321   -2.3586097971   -0.8841852553
 H   -0.8825306483   -2.3680819474    0.8798332779
 H   -2.7212256090   -3.8159232982    0.0075082769
 H   -3.4019577484   -2.4504121188    0.9066582311
 H   -3.4188567523   -2.4409171714   -0.8637881938
 H   -3.1918518762    0.6784115619    3.1289173195
 H   -3.2508767208    0.7114647269   -3.0560004298