17

 N    0.0095061705   -1.1578259778    0.0056665270
 C    0.0147849008   -0.0042152314   -0.0595300568
 C    0.0612695134    1.4560122335   -0.1379665148
 C    1.4781998511    1.9825628156   -0.0658246714
 N    2.4891652774    1.7427985356   -1.1438019170
 C    3.1978189693    2.5753029516   -0.1153362398
 C    1.9398577067    3.4645014164    0.1299503650
 C    2.0403526231    3.3131669761    1.6619833840
 C    2.4954772269    1.9378634953    1.1322098942
 H   -0.3991980757    1.7771179437   -1.0791584981
 H   -0.5357959825    1.8752847836    0.6801160265
 H    2.8216771657    0.7743315229   -1.1043340491
 H    4.2335510120    2.8983275254   -0.2163894254
 H    1.6282159704    4.3133159614   -0.4784219059
 H    2.8009854712    3.9201033724    2.1604765457
 H    1.1034933903    3.3435008702    2.2265054249
 H    2.8136765793    1.0464487056    1.6751395508