16

 C   -0.0253860225    1.5759846993    0.0108140183
 C   -0.0569922991    0.0371080470    0.0030291367
 C   -1.4035711218   -0.5172785906    0.0125671268
 C   -2.5218030670   -0.9734827287    0.0204929067
 C   -3.8596419353   -1.5345591974    0.0299116092
 O   -4.0739920513   -2.7236742915    0.0247825829
 C   -4.9654199621   -0.4839785469    0.0468457498
 O   -6.2159714201   -1.1156411957    0.0549836271
 H    1.0084560429    1.9322607842    0.0031401052
 H   -0.5357909208    1.9803107895   -0.8672559999
 H   -0.5194562654    1.9710240871    0.9023512273
 H    0.4736850135   -0.3438191752   -0.8790091883
 H    0.4898399065   -0.3529937627    0.8710805539
 H   -4.7955394320    0.1528416514    0.9325705904
 H   -4.8124380227    0.1635353879   -0.8341934810
 H   -6.8938750628   -0.4339086677    0.0655728750