17

 C    0.2137007690    1.3950857485   -0.4327088785
 C    0.0314910279    0.0018529196    0.1664820500
 O    0.3769066122   -0.0383074793    1.5529986808
 C   -1.3574516954   -0.5447286027   -0.0364566350
 C   -2.3104012190   -0.3799412717   -1.0265673733
 C   -3.3749046829   -1.2127119021   -0.6171635266
 O   -4.5396960477   -1.3762457833   -1.2789711057
 N   -3.1279480572   -1.8414928323    0.5231193228
 N   -1.8817529434   -1.4178465988    0.8539419685
 H    1.2317645435    1.7465468700   -0.2472328136
 H    0.0410635510    1.3825404464   -1.5128165262
 H   -0.4935210322    2.1045440520    0.0110996867
 H    0.7546546477   -0.6790270754   -0.3008523333
 H   -0.1544734021    0.6303048279    2.0015807393
 H   -2.2578712866    0.2355409270   -1.9081486856
 H   -5.0699019227   -1.9975624694   -0.7642344865
 H   -1.4412862820   -1.7299071065    1.7020948663