17

 C    0.0121078925    1.4693569538    0.0529497285
 C    0.0120418580   -0.0210452492   -0.0153779312
 C    0.0087463125   -0.7821199512   -1.1251621607
 C   -0.0003926118   -2.2152333410   -0.7877300418
 O    0.0016652772   -3.1718777015   -1.5278550806
 C   -0.0288456914   -2.2831170783    0.7367205666
 C   -0.6311330635   -3.4399086121    1.4151209320
 O    0.7824011004   -3.2839953939    1.3519373094
 C    0.0113178779   -0.8542966875    1.2520375760
 H    0.8897965235    1.8307935691    0.6032586998
 H    0.0126075800    1.9237024786   -0.9403003842
 H   -0.8663966601    1.8313211008    0.6018036793
 H    0.0133037457   -0.4210255611   -2.1460884399
 H   -1.0784898128   -3.3046923345    2.3993699118
 H   -1.0350521527   -4.2451265975    0.8039141731
 H    0.9162075301   -0.6790498560    1.8466096790
 H   -0.8420737755   -0.5998672185    1.8927157629