19

 C   -0.0429793885    1.3814345625    0.0210603374
 O   -0.0554553207   -0.0232820567   -0.0226802797
 C    0.6740076192   -0.5432829420   -1.1140743317
 C    0.5721996910   -2.0678903893   -1.0784120183
 C    1.2856608621   -2.7081943565   -2.2267101001
 C    2.3836879442   -3.5300750407   -2.2055113900
 N    2.6465035818   -3.8339453472   -3.5245035811
 C    1.7113136506   -3.1908937856   -4.2772779864
 N    0.8779489696   -2.5049157459   -3.5317635597
 H    0.9793736098    1.7803506723    0.1254324764
 H   -0.4888485291    1.8243826063   -0.8840903866
 H   -0.6305206295    1.6895440498    0.8898545179
 H    0.2744388252   -0.1670893610   -2.0688226371
 H    1.7311086221   -0.2306826310   -1.0564222315
 H    0.9811697696   -2.4320505650   -0.1303612466
 H   -0.4900908244   -2.3368563033   -1.0976164388
 H    2.9833029072   -3.9200503765   -1.3998289700
 H    3.3853966153   -4.4264400579   -3.8631920453
 H    1.6889254043   -3.2635457121   -5.3545841387