18

 C   -0.0588317983    1.5817176741   -0.0931730173
 C    0.0102511266    0.0651962258    0.0567032671
 N    0.7121926368   -0.5124388800   -1.0979820234
 C    0.7243425984   -1.9734905231   -1.1887929386
 C    1.5282385234   -2.6044679743   -0.0265573822
 C   -0.6504192359   -2.5572961230   -1.2003330427
 N   -1.7402800156   -2.9403047016   -1.1677291747
 C    1.3797198898   -2.3288039208   -2.4662512437
 N    1.9048050645   -2.5999511595   -3.4576920567
 H    0.9427524953    2.0090836247   -0.1927384902
 H   -0.6415937069    1.8652044622   -0.9767969147
 H   -0.5434896763    2.0268890823    0.7796905126
 H    0.5705924016   -0.1859989349    0.9630368502
 H   -1.0044700552   -0.3474086386    0.1761123837
 H    0.3198797062   -0.1335737841   -1.9548998213
 H    1.0158726428   -2.4346550010    0.9214058396
 H    1.6283146875   -3.6804189390   -0.1787805384
 H    2.5168551154   -2.1428555392    0.0026018907