19

 N   -0.3348111866    1.3264020200   -0.1748947438
 C    0.0803985316   -0.0427330834    0.1341773736
 C    0.6369647605   -0.7538918263   -1.0362362517
 N    1.1069334887   -1.2656842856   -1.9612151585
 C    1.1263588781   -0.0548109116    1.2973748413
 N    2.3347196589    0.7203554181    1.0382169600
 C    0.4674145204    0.4202555538    2.5776524745
 C   -0.0266019580   -0.5731784179    3.5659974433
 N    1.1620032009    0.2450141397    3.8558376687
 H    0.4225129726    1.8160254775   -0.6421782921
 H   -1.1157490731    1.3198653788   -0.8230782563
 H   -0.8026214989   -0.5953130118    0.4741649364
 H    1.4353989499   -1.0996291907    1.4299968802
 H    2.7746605121    0.4457553317    0.1648816558
 H    2.1319809099    1.7140941745    0.9988505422
 H   -0.0564949460    1.3679808453    2.4825880612
 H   -0.8971778942   -0.3501920858    4.1762675827
 H    0.1054814924   -1.6285968355    3.3381739574
 H    2.0127947907   -0.2932532007    3.7071930452