19

 C   -0.0145953133    1.4960796890    0.0800162656
 C    0.0396450355   -0.0201831902    0.0342007484
 O    1.0976096907   -0.6159561698   -0.0024724239
 C   -1.2610575788   -0.7510197557    0.0424627639
 C   -1.3528889163   -2.0846049446   -0.0398924086
 C   -2.7818125304   -2.5679786621   -0.0419633090
 O   -3.0206785829   -3.7111167137    0.7638450440
 C   -3.5753099384   -1.3021597320    0.3792294493
 C   -2.6358822814   -0.1062608053    0.0925217402
 H    0.9971924856    1.8985288852    0.0263886027
 H   -0.6158918451    1.8899041523   -0.7472495209
 H   -0.4938980620    1.8336124225    1.0064357999
 H   -0.5042032334   -2.7533085864   -0.1234027234
 H   -3.0643832522   -2.8923427129   -1.0528033099
 H   -2.7044446960   -3.5116722856    1.6523698112
 H   -4.5442805071   -1.2237197568   -0.1182484639
 H   -3.7692561671   -1.3736420631    1.4558235914
 H   -2.7160635057    0.6845967426    0.8458093483
 H   -2.8756581419    0.3640697464   -0.8706747155