18

 N   -0.0290251812    1.4796504805    0.0454947069
 C    1.2916472897    0.8011760786   -0.0342319834
 C    0.0354420835    0.0102629344   -0.0258070785
 C   -0.1542567986   -0.7272453258   -1.3440723229
 N    1.0184950564   -1.6561241236   -1.4695771406
 C    1.7458212483   -0.5943047579   -2.1642381279
 C    1.9303892969    0.8306009189   -1.4261648737
 N    0.9840980522    1.3925600463   -2.4236530392
 C    0.4301012807    0.0542374909   -2.6137376974
 H   -0.2099859958    1.7578157557    1.0063874700
 H    1.9350366862    0.8282975051    0.8395703435
 H   -0.2482411144   -0.5500923937    0.8634148247
 H   -1.1275004453   -1.2127572412   -1.4497995347
 H    1.4081701909   -1.9618957670   -0.5785177487
 H    2.5627582106   -0.8866231659   -2.8239865926
 H    2.9258936277    1.2814222467   -1.4306560701
 H    0.3431402484    2.0667744317   -2.0123913011
 H   -0.0828767062   -0.1584074538   -3.5526308843