19

 O   -0.0241099508    1.4382447194    0.0637113981
 N    0.1088409329    0.0415816137    0.1241157211
 C   -1.0203938056   -0.5596380479    0.0365691505
 C   -0.9928257797   -2.0493407771    0.0295726325
 C   -0.7972457045   -2.8063423033   -1.2791734457
 C    0.2817891174   -2.8039596272   -0.2330152888
 C   -2.3231207359    0.1588781043   -0.0454376554
 C   -3.2108087262   -0.0210155049   -1.2349771532
 N   -3.6148003830   -0.5424183651    0.0724721714
 H    0.8815551307    1.7313062009    0.2074301693
 H   -1.6761637783   -2.5100454101    0.7380219590
 H   -1.3758627317   -3.7099817509   -1.4367662343
 H   -0.6285122719   -2.2148890538   -2.1722981198
 H    1.1688062590   -2.2128146362   -0.4191040646
 H    0.4469208787   -3.7116348964    0.3359084995
 H   -2.3125973821    1.1356991834    0.4237300634
 H   -3.7844206045    0.8268103104   -1.5982009425
 H   -2.8931619672   -0.7233335740   -2.0002204947
 H   -3.4686918573   -1.5483658250    0.0914598442