15

 O   -0.1055381407    1.3528871567    0.0153598469
 N    0.0447250860   -0.0466666155    0.0253175185
 C   -1.0679350731   -0.6262641288    0.0856786134
 C   -2.5631156017   -0.3396204570    0.0285764566
 N   -2.5817764299   -1.5295854519   -0.9181286160
 C   -1.5070962950   -2.0739327524    0.0095785688
 C   -2.2658341181   -2.2197650144    1.3637434020
 O   -1.9735770512   -1.1956500837    2.3262388307
 C   -3.0265565610   -0.9657167746    1.3768961507
 H    0.8086324737    1.6516346426   -0.0385406482
 H   -2.9952798202    0.5975799898   -0.3114791328
 H   -3.4533824690   -2.0600070764   -0.8325373907
 H   -0.8801014042   -2.8872778598   -0.3482830235
 H   -2.5978485770   -3.1763928211    1.7526169695
 H   -4.0236873786   -0.8237946735    1.7795177442