18

 O    0.2772959563   -0.0034543325    0.3597058578
 C    0.0943249904    1.1673050646    0.2054825131
 O    1.0965015902    2.0597069888    0.3006617903
 C    0.9086820625    3.4600553289    0.1157633332
 C   -0.0354683684    3.9894411100   -0.9289764465
 C   -0.3502526027    4.1594891332    0.5471197789
 C    2.2252063492    4.1485781695    0.3198483612
 C    3.2297089175    3.6345555966    1.2813336194
 N    3.4728133969    3.5563360511   -0.1732213369
 H   -0.8880981265    1.6109224415   -0.0221411918
 H    0.2824172608    4.8550082820   -1.4999745515
 H   -0.6312159727    3.2819066543   -1.4951016834
 H   -1.1566424510    3.5687502370    0.9669376593
 H   -0.2477005344    5.1425086891    0.9941816127
 H    2.1552926250    5.2233506475    0.1630282488
 H    3.8681369022    4.3310393314    1.8171103409
 H    2.9963280970    2.7167563838    1.8111489132
 H    3.2871406875    2.6042170834   -0.4820510489