14

 N    0.0095405335   -1.0570716843   -0.0779481244
 C    0.0042566046    0.0993854019   -0.0279528833
 C   -0.0209599466    1.5218555185    0.0175384220
 N   -1.0430491884    2.3137869605    0.7465650350
 C   -0.5092296655    3.4878045280   -0.0346307508
 C    0.8699573841    3.7091351453    0.6363495807
 C    1.2615128057    2.3891447402   -0.0226371181
 C    0.1982153327    2.5329794825   -1.0862961901
 H   -1.9445803087    2.0615544459    0.3404379051
 H   -1.2006865732    4.3019379128   -0.2344588384
 H    1.4143894332    4.5413449875    0.1839985585
 H    0.8719152962    3.7839442873    1.7261978774
 H    2.2327824032    1.9202035869   -0.1084584772
 H    0.2199195492    2.4378930869   -2.1633643965