17

 C   -0.0565186531   -1.1180975654   -0.0147363230
 C   -0.0306983055    0.0861817062   -0.0186386997
 C   -0.0445936176    1.5113875733    0.0068838942
 C   -1.3768379201    2.3441463014    0.2355124221
 C   -0.5317221433    3.4681116843   -0.3718014220
 C    0.1599818955    4.2307606196    0.4980014982
 C    1.5701387340    3.6753606144    0.6635981138
 C    1.3624156863    2.2941923998    0.0166212823
 C    0.3947007469    2.4667119864   -1.0863545281
 H   -0.0723863319   -2.1795139610   -0.0180427517
 H   -2.1578158584    1.9064706346   -0.3952955296
 H   -1.7468101123    2.4924751319    1.2534154959
 H   -0.3224365859    4.7395070760    1.3279096586
 H    2.3956910922    4.2043933357    0.1650601086
 H    1.8107285888    3.6479390615    1.7329828882
 H    2.1957174414    1.6030838026   -0.0874260047
 H    0.4973354533    2.2799679387   -2.1471549731