14

 C    0.0054863055    1.5979308503   -0.0292697717
 C    0.0088098850    0.0572159299    0.0458277950
 O    0.7553184566   -0.4048080429    1.1682515515
 C    0.1959934929   -0.2785251013    2.4109269819
 N    0.9398385467   -0.4067735915    3.4137519486
 C   -1.3858575176   -0.4537491711    0.0580235917
 N   -2.4821439002   -0.8152174502    0.0857612502
 C    0.6937690337   -0.4990972107   -1.1400010004
 N    1.2222269703   -0.8878751886   -2.0887914013
 H    1.0396757434    1.9466191820   -0.0313549905
 H   -0.4983351675    1.9350975725   -0.9373523138
 H   -0.5151894916    2.0044337014    0.8404158606
 H   -0.8852865989   -0.1062234625    2.3967870213
 H    0.3957768015   -0.3393997074    4.2717393570