14

 C   -0.1209514901    1.4498852495    0.2230570427
 C   -0.1232145931   -0.0718272225   -0.0363655465
 C    0.5240553137   -0.8302965883    1.1658050715
 O    0.9537692651   -0.2847520375    2.1404154829
 C   -1.4869310560   -0.5995431938   -0.1586265021
 C   -2.6001662441   -1.0500722522   -0.1937706465
 C    0.6791329709   -0.4229586237   -1.2136739892
 C    1.3873210165   -0.7249911371   -2.1360346932
 H    0.9045690793    1.7988316083    0.3556678508
 H   -0.5751442989    1.9710628273   -0.6211133200
 H   -0.6853980170    1.6689542355    1.1310414330
 H    0.5465715855   -1.9296286956    1.0271433646
 H   -3.5871803124   -1.4391705739   -0.2480086942
 H    1.9956558905   -0.9840123661   -2.9675233040