20

 C   -0.2150076248    1.5245783801    0.1274849253
 C   -0.1537846214    0.0119376686   -0.0963400756
 C    0.9165142584   -0.3933436978   -1.1118507234
 N    0.9579497583   -1.8445648427   -1.2506475262
 C    0.1477776463   -2.4522153208   -2.3023232984
 C    1.6364055248   -2.4596140672   -2.3930209672
 C    2.3676768025   -1.6680299219   -3.4561978213
 H    0.7392369788    1.9105804158    0.5036612840
 H   -0.4418910180    2.0579626299   -0.8026107485
 H   -0.9881082907    1.7865148984    0.8561254667
 H    0.0484247428   -0.5065388293    0.8474625515
 H   -1.1282283524   -0.3530106615   -0.4450767071
 H    0.7238427761    0.1290134396   -2.0650833710
 H    1.9014962531   -0.0595555238   -0.7602444707
 H   -0.4076759580   -3.3464517348   -2.0303759753
 H   -0.3791772656   -1.7840197069   -2.9848199456
 H    2.1466421811   -3.3822378692   -2.1164916106
 H    1.8017192104   -0.7976054062   -3.7960266232
 H    3.3408409308   -1.3198591868   -3.0919079769
 H    2.5521026176   -2.3032722933   -4.3291694763