21

 C    0.1658065492    1.4706619361    0.1893783191
 C   -0.1734977452    0.0199432414   -0.1606962425
 C    0.7581696414   -0.5554374409   -1.2174041600
 O    0.3780853472   -1.8991495404   -1.4755509146
 C    1.1167656409   -2.5081754112   -2.4827485576
 C    2.4701823733   -3.2402638999   -2.1838797143
 C    1.6994628629   -4.3043627895   -1.3684034525
 C    0.9303174868   -4.0284577308   -2.6829276313
 O    2.2193290719   -4.0246158532   -3.4123069510
 H    1.1855459277    1.5599212124    0.5799334197
 H    0.0890798049    2.1226404925   -0.6877904087
 H   -0.5155790449    1.8594404406    0.9513133007
 H   -0.1157626903   -0.6107724695    0.7338758820
 H   -1.2033097455   -0.0534833187   -0.5283415067
 H    0.7008807836    0.0356027654   -2.1466208471
 H    1.8040207902   -0.5139830994   -0.8716267828
 H    1.1337868478   -1.9309066639   -3.4157411355
 H    3.4756022371   -2.8431137752   -2.0423434062
 H    2.1819910727   -5.2807454405   -1.3131422693
 H    1.2309890558   -3.9898441404   -0.4353035852
 H    0.0968143426   -4.5680820648   -3.1325353263