23

 C    0.1552824448    1.3784257858   -0.0087893898
 O    0.0590924902   -0.0251473191    0.0041720231
 C   -1.2756337881   -0.4847717246    0.0182520255
 C   -1.2307010430   -2.0098172299    0.0550034796
 C   -2.6051129333   -2.7283350554    0.0710767203
 C   -3.4238315136   -2.4035126546    1.3263515477
 C   -3.4132032749   -2.4278832225   -1.2125530531
 C   -2.2867762250   -4.2208927604    0.0313069470
 O   -2.6356816136   -5.0351236012    0.8451642067
 H    1.2176916478    1.6337273867   -0.0175520595
 H   -0.3220558177    1.8142685377   -0.9012673247
 H   -0.3111218069    1.8293578101    0.8818081681
 H   -1.8058855866   -0.0839363302    0.8975794459
 H   -1.8099729181   -0.1226814877   -0.8754937123
 H   -0.6511755031   -2.3466782411   -0.8137379180
 H   -0.6599754614   -2.3044906388    0.9437008599
 H   -3.7428119514   -1.3574402710    1.3311167347
 H   -4.3160853420   -3.0329051745    1.3749375090
 H   -2.8432990968   -2.5922881009    2.2337127190
 H   -2.8429029253   -2.6779416735   -2.1139141478
 H   -4.3433686321   -3.0050241239   -1.2292173251
 H   -3.6810601539   -1.3694475280   -1.2688441836
 H   -1.6795795261   -4.5235985732   -0.8556275525