20

 C   -0.2183570988    1.5723070725   -0.0137290589
 C    0.0482227974    0.0691150620   -0.0082004324
 C    0.8677275105   -0.4758489373   -1.1769686301
 C    2.3667604915   -0.0636025891   -1.1586771051
 C    2.6033517443   -1.3826155129   -0.4414646215
 C    1.6094919683   -1.6345122251    0.6328966078
 C    0.8390395669   -0.4667960785    1.2247780291
 O    1.7624672039    0.4600136981    1.7902542975
 N    1.2248249236   -1.9098051352   -0.7756491349
 H    0.7121344465    2.1457140649    0.0098881608
 H   -0.7735860531    1.8664859233   -0.9098953725
 H   -0.8210630053    1.8715420137    0.8520830991
 H   -0.9118033142   -0.4640824216   -0.0238081435
 H    0.3636086211   -0.4280681815   -2.1427871359
 H    2.7955507300   -0.0745228094   -2.1631906892
 H    2.6547244473    0.8550711198   -0.6442240869
 H    3.4861867651   -2.0074167183   -0.5400880439
 H    1.7564213043   -2.5253519184    1.2344728323
 H    0.1482678229   -0.8175117828    2.0040039469
 H    1.2582907279    1.1277878459    2.2659711711