19

 C   -0.0532825840    1.4746866358    0.0099805309
 O    1.2358514737    0.8778916713    0.0066201437
 C    0.0736332694    0.0013295828    0.0210407108
 C   -0.1471200266   -0.7131695352    1.3362802469
 C    0.6362057462   -2.0331481084    1.4684721436
 C    0.0132609299   -3.1770583310    0.7194030153
 C   -0.4317632063   -3.1316034020   -0.5451487139
 C   -0.3668785802   -2.0134036253   -1.4783021138
 C   -0.1256557454   -0.7088167272   -1.2618182540
 H   -0.3364264285    1.9894403564    0.9279620961
 H   -0.3398632349    1.9851434149   -0.9093044490
 H    0.1567890193   -0.0287925647    2.1343365213
 H   -1.2181294282   -0.9118787350    1.4638945854
 H    1.6657563873   -1.8648236267    1.1199329514
 H    0.7146646637   -2.2971169159    2.5277104988
 H   -0.0804970244   -4.1181461110    1.2556034873
 H   -0.8474761383   -4.0451720325   -0.9640568720
 H   -0.5269343303   -2.2958150489   -2.5172046053
 H   -0.0670709524   -0.0588084076   -2.1314448637