18

 C    0.0057934632    1.5766104909    0.1488166933
 N    1.4959715681    1.2365120909    0.0800991424
 C    1.1301653435    0.0350638584    0.9959537423
 C    0.0116884879    0.0347049330   -0.0575708962
 O   -1.0511131837   -0.8103639632   -0.3243579627
 C   -1.6316245505   -0.4645773796   -1.5903068190
 C   -0.7314126463    0.2067294948   -2.6115570394
 C    0.5251787110    0.6160386644   -2.4046770612
 C    1.1106282572    0.2546883421   -1.0830771210
 H   -0.3021684834    1.9592264202    1.1244488709
 H   -0.3373357341    2.2152709921   -0.6649270241
 H    1.8618167177   -0.7757511618    0.9700044797
 H    0.8933672791    0.3418739601    2.0169342649
 H   -2.0271550329   -1.3975753678   -2.0091568333
 H   -2.5002441001    0.1940636418   -1.4200154569
 H   -1.2145229184    0.3604064979   -3.5744852421
 H    1.1087532376    1.0877781173   -3.1901175400
 H    1.8794323040   -0.5204583917   -1.1722175277