23

 C    0.1118798058    1.4916913543    0.0854392254
 C    0.0019030770   -0.0056115249   -0.0168289415
 C   -0.0528699371   -0.6478819598   -1.1885772949
 C   -0.1595548694   -2.1475018202   -1.2961991081
 C   -0.8819048924   -2.7730915622   -0.0888354975
 C   -0.4543580069   -2.2143757184    1.2597378678
 C   -1.2724137809   -2.7198642718    2.4313153357
 C    0.9880026009   -1.8693938165    1.5157809302
 C   -0.0285100938   -0.7576323161    1.2692761936
 H    1.0193205926    1.7867430806    0.6279746088
 H    0.1356418437    1.9625813017   -0.9009893691
 H   -0.7340304450    1.9138023096    0.6437796261
 H    0.0008663988   -0.0801973083   -2.1142811227
 H   -0.6927097496   -2.4219826518   -2.2138921734
 H    0.8412322288   -2.5905978271   -1.4030506841
 H   -1.9596926487   -2.5890134922   -0.1942242605
 H   -0.7521351856   -3.8625343021   -0.1020169177
 H   -1.1637106610   -3.8047947914    2.5503040298
 H   -0.9595974389   -2.2505145345    3.3694591136
 H   -2.3387928912   -2.5075187940    2.2898229737
 H    1.3668990104   -1.9942756208    2.5251732328
 H    1.7253108876   -2.0419761997    0.7396846801
 H   -0.3085763654   -0.1726954843    2.1415321421