16

 O    0.3254643307    1.1936317952    0.2981900889
 C    0.0963553994   -0.1467929361    0.0452501038
 C   -1.3370806558   -0.6248301036   -0.0280578828
 O   -2.2745136754    0.4070737790    0.0840081065
 C   -2.9761502411    0.5968192832   -1.1449576608
 C   -2.0348032609    0.9808052153   -2.2644520409
 N   -2.3919448763    1.7927572927   -3.1625967981
 O   -0.7918303919    0.4188992373   -2.2343849081
 C   -0.5003319483   -0.5783639262   -1.2850761565
 H   -0.5395263493    1.5992316613    0.4506146867
 H    0.8389365084   -0.8021848540    0.4908307738
 H   -1.6510057259   -1.5759290388    0.3978106486
 H   -3.5256451817   -0.3178115515   -1.4097199513
 H   -3.6911938409    1.4050839331   -0.9979987158
 H   -1.6476871953    1.9149018150   -3.8527153643
 H   -0.1692461459   -1.5017857119   -1.7494182498