21

 C   -0.6237501092    1.2622866220   -0.5450374495
 C    0.0918456900   -0.0015266142   -0.1005584159
 O    0.7328122827   -0.5715330121   -1.2247352393
 C    1.4264302118   -1.7621362183   -0.9038094674
 C    2.0724106187   -2.3072052492   -2.0899629018
 C    2.6242134568   -2.7714024600   -3.0537105591
 C    3.2621925839   -3.3382270554   -4.2338650243
 C    2.2714574355   -4.0636408693   -5.1510390276
 O    3.0166543741   -4.5673366047   -6.2465330862
 H    0.0887983756    1.9786857804   -0.9632516171
 H   -1.3675122036    1.0314285805   -1.3127734921
 H   -1.1320630620    1.7308258355    0.3030173616
 H    0.8325324194    0.2277195232    0.6850906266
 H   -0.6239106432   -0.7201492824    0.3351104700
 H    2.1833960516   -1.5662274025   -0.1237450151
 H    0.7304645917   -2.5077000683   -0.4798475672
 H    3.7607548005   -2.5519605183   -4.8136549758
 H    4.0454713389   -4.0476242027   -3.9396596152
 H    1.7763544590   -4.8695431699   -4.5888841849
 H    1.4924122810   -3.3584097766   -5.4761335600
 H    2.4103811167   -5.0130156977   -6.8448604597