16

 N    0.0190550499    1.3036712904   -0.1591024242
 C    0.0420239557   -0.0069302566    0.2364603481
 O    0.9986116214   -0.5212735524    0.7644658681
 C   -1.3071458774   -0.7406949337    0.0141446802
 C   -1.1098065669   -2.1698331513   -0.1761365416
 C   -0.9709431393   -3.3477298329   -0.3617208485
 C   -2.2431025402   -0.4028393737    1.1835794572
 C   -3.2610795839   -1.3287371865    1.6899749569
 O   -2.0442733545   -1.0880675529    2.4059105600
 H    0.8776741075    1.8245098820   -0.0762080003
 H   -0.6943849631    1.6665639420   -0.7669457670
 H   -1.7822103583   -0.3256967706   -0.8870392146
 H   -0.8237069260   -4.3885259545   -0.5130268256
 H   -2.4169179702    0.6693958576    1.2889136757
 H   -4.1628712003   -0.9306607779    2.1527510797
 H   -3.3452854144   -2.3182728290    1.2475447159