19

 O   -0.0832455147    1.4779957685    0.0300924649
 C    0.0449572948    0.0657399980    0.0504830362
 C    0.6191932759   -0.5128448326    1.3526974629
 C    0.1112248836   -1.9601049271    1.3512776322
 O    0.1094329795   -2.5998210992    2.6122768032
 C   -1.3551620812   -1.8232175586    0.8603104738
 C   -1.3597424967   -0.5657538224   -0.0661441776
 C   -1.8789544419   -3.0308487007    0.2407808631
 C   -2.3011396330   -4.0224300199   -0.2923348560
 H    0.8002430642    1.8596585587    0.0319272200
 H    0.6655655382   -0.2668410970   -0.7964131616
 H    1.7100836704   -0.4378159832    1.4204128609
 H    0.1826571861    0.0183750329    2.2066416742
 H    0.6762470276   -2.5541770150    0.6171342861
 H    1.0186026683   -2.8066996586    2.8486053083
 H   -1.9428184566   -1.6106316966    1.7614719244
 H   -2.0954691865    0.1654236192    0.2771812672
 H   -1.6070680519   -0.8238732723   -1.0967373768
 H   -2.6806228260   -4.9010056940   -0.7517623656