15

 O    0.0048307770   -0.0276503713   -0.3201763245
 C   -0.0396818100    1.1404112400   -0.0778496589
 C   -1.1717633670    2.1363173901    0.2283013323
 C   -0.0662625842    3.1807269915    0.5929841401
 C    1.0505932268    2.2246644380    0.1043607758
 C    1.9833055448    2.0467980852    1.3110623621
 O    1.2719098894    2.5615688100    2.4463974722
 C    0.1693949282    3.2833535756    2.0951769774
 O   -0.4938483044    3.8668332160    2.9006484535
 H   -1.7367289590    2.4017188598   -0.6706834925
 H   -1.8776909827    1.8544427368    1.0137177604
 H   -0.1723946613    4.1696738798    0.1506480462
 H    1.5821068953    2.4684046717   -0.8170513051
 H    2.2282435102    0.9991364246    1.5038434022
 H    2.9128644768    2.6142009021    1.1996699586