13

 O   -0.7677867535    1.2765383162    1.1681693053
 C    0.1859323225    0.8696593799    0.5576815109
 C    1.1445368978    1.7789436277   -0.2186625090
 O    2.0904443888    1.2889328088   -0.7858088152
 C    0.8090403721    3.2389431456   -0.2231420663
 O    1.8405762644    4.1310837843   -0.6143704361
 C    0.7481145554    3.9903994095   -1.5166847154
 C    0.9887374874    3.3760646805   -2.7911612833
 C    1.1523977091    2.8994682366   -3.8815875212
 H    0.4679101784   -0.2018647098    0.4963287384
 H    0.1599605379    3.5759791113    0.5817297941
 H    0.0686877149    4.8425750872   -1.5320407779
 H    1.3136179646    2.4684201724   -4.8392793942