23

 C    0.0013142916    1.5490610053   -0.0995674225
 C    0.1800227457    0.0296567903   -0.0558799691
 C    0.5544747792   -0.4903945832    1.3381112964
 C    0.7429594099   -1.9955280765    1.3689273044
 O    1.8104109368   -2.4782593708    0.4937027181
 C    2.3590806347   -3.2407193819    1.5708244048
 C    2.8398141321   -2.3382651182    2.6642760237
 C    1.3673867372   -2.7063348379    2.5783417678
 C    0.5952238305   -3.3543947595    3.6894669589
 H    0.9219358583    2.0644682169    0.1963063468
 H   -0.2616298015    1.8905900502   -1.1056177413
 H   -0.7926232801    1.8765502499    0.5814225680
 H   -0.7451309385   -0.4597633870   -0.3882146306
 H    0.9594081582   -0.2765967094   -0.7625777459
 H    1.4713014568    0.0030685341    1.6815180387
 H   -0.2339444049   -0.2310235515    2.0589533853
 H   -0.1932856067   -2.4967227805    1.0799366270
 H    2.7289067430   -4.2366128508    1.3532297063
 H    3.3663784185   -2.8282256298    3.4785546611
 H    3.2039840755   -1.3450478269    2.4175932639
 H    0.2088658488   -2.6100394796    4.3964752773
 H   -0.2588906871   -3.9224559060    3.3032148282
 H    1.2257391117   -4.0457798073    4.2576995827