16

 O   -0.0819978912    1.3302685200    0.0047816010
 C    0.0217676657   -0.0439680877    0.0014035473
 C    0.6671286679   -0.9722305570    1.0783319266
 C    0.0436456495   -1.9177949575   -0.0023001108
 C   -1.2096974711   -0.9756677322    0.0086423006
 C    0.6512856901   -0.9681074739   -1.0883406145
 C    0.0538373083   -3.3486218528   -0.0051336328
 C    0.0610464368   -4.5516544290   -0.0074950341
 H    0.8047864236    1.7065217378   -0.0016844500
 H    1.7585657500   -0.9783749169    1.1451742375
 H    0.1944475132   -0.9891088448    2.0629805303
 H   -1.8124606172   -0.9889241253    0.9194669573
 H   -1.8256747559   -0.9854880303   -0.8933408018
 H    0.1642822209   -0.9812797193   -2.0660424098
 H    1.7416295783   -0.9739658769   -1.1711391862
 H    0.0679765112   -5.6131998341   -0.0091615606