15

 C   -0.0018682894    1.5232742116    0.0106829126
 O    1.2187626564    0.7275146671   -0.0061670710
 C   -0.0153842787    0.0761686754    0.0027290220
 C   -0.5657331142   -1.0272940969    0.9260413357
 O   -1.7391346101   -1.0733709515    0.0138190297
 C   -0.5845137833   -1.0169614680   -0.9214958529
 C    0.1235067470   -2.0399131333   -0.0105234428
 C    1.3407219798   -2.8337051788   -0.0273347516
 O    0.0115334645   -3.4230167025   -0.0171221501
 H   -0.1808993046    2.0658435005    0.9364207794
 H   -0.1996018496    2.0761182280   -0.9051180088
 H   -0.7448789419   -1.0479965558    1.9989086545
 H   -0.7854431610   -1.0256753567   -1.9906626143
 H    1.8940678131   -2.9647807676   -0.9548140773
 H    1.9127757820   -2.9750804215    0.8871920850