11

 O   -0.0339755999   -0.0256450588   -0.0138119052
 C   -0.0387710830    1.1779776141    0.0032254953
 C   -1.2639956627    2.1051261327    0.0464086087
 N   -0.6644615046    3.4205796932   -0.0063701679
 C    0.7065870719    3.3922873981    0.0180938188
 O    1.4777428423    4.3177119308    0.0500464286
 N    1.0488890800    2.0240942968   -0.0095327202
 H   -1.9182042253    1.8922983575   -0.8062867210
 H   -1.8294236283    1.9189648257    0.9674633795
 H   -1.1535895620    4.2857779685    0.1424970094
 H    2.0075201316    1.7147237315   -0.0307771660