25

 C   -0.3836521442    1.4848062914    0.0075216221
 C    0.0077277243    0.0094028868    0.0672115975
 C    0.7253550179   -0.5138564786   -1.1926646210
 C    1.3947564841   -1.8481517635   -0.7741478316
 C    2.7965872642   -2.0281303094   -1.3636509505
 C    1.3489353999   -1.8395633059    0.7987365523
 O    2.5504780419   -2.2303609352    1.4452309093
 C    0.9602469110   -0.4035844911    1.2157990703
 C    2.1726440288    0.5197685642    1.3982660069
 H    0.4871914064    2.1257223691   -0.1635933083
 H   -1.0906380650    1.6665863483   -0.8092438390
 H   -0.8620735361    1.8110361295    0.9376170044
 H   -0.9144993608   -0.5767892314    0.1934492687
 H    0.0443269776   -0.6314908052   -2.0414449473
 H    1.4914113270    0.2068265738   -1.5061901160
 H    0.7760316033   -2.6825449967   -1.1257713636
 H    3.4815768593   -1.2494764725   -1.0162312621
 H    3.2361206035   -2.9939075524   -1.0928608725
 H    2.7556096138   -1.9824705247   -2.4572103235
 H    0.5347872606   -2.5088810688    1.1166300009
 H    2.7046971390   -3.1609330794    1.2582323943
 H    0.4184669501   -0.4332748899    2.1684926584
 H    2.7282479522    0.6713534106    0.4673226022
 H    1.8577212566    1.5025773538    1.7611606849
 H    2.8647486144    0.0919576271    2.1260520630