20

 N    0.3296574715    0.2236409689   -0.9163097746
 C   -0.2632149969    0.1395013091    0.3078113146
 O   -0.0880983109    0.9572856344    1.1917122380
 C   -1.2222771312   -1.0443899550    0.4805317256
 C   -0.6637009452   -2.4230158247    0.0990041401
 C   -1.6669844451   -3.5729568640    0.3320916685
 C   -2.2756413536   -3.7944388804   -1.0614720209
 C   -1.0774865661   -3.5024363155   -1.9633591614
 O   -0.3501061379   -2.4617100526   -1.3098117117
 H    1.0347732007    0.9319194914   -1.0405584088
 H    0.2890833697   -0.5655200753   -1.5446110165
 H   -1.5048736468   -1.0477279801    1.5357665187
 H   -2.1273587194   -0.8515816860   -0.1094300194
 H    0.2678838314   -2.5967595318    0.6518663885
 H   -1.1379605974   -4.4731092893    0.6604736879
 H   -2.4091602360   -3.3260869904    1.0941798516
 H   -2.6779493783   -4.8002069390   -1.2020116956
 H   -3.0801063414   -3.0770532405   -1.2531123209
 H   -0.4391450005   -4.3922911053   -2.0728851754
 H   -1.3499841766   -3.1526046239   -2.9635501083