20

 O    0.1509603296    1.5165534668   -0.0287425859
 C    0.1745370433    0.0975987461   -0.0692534919
 C   -1.2742419580   -0.3883695557    0.0204839679
 C   -1.4746579184   -1.8753427988   -0.2514964037
 C   -0.7679192961   -2.6304851480   -1.3133062135
 N   -0.4849976511   -2.9100743941    0.1087922656
 C   -1.8623270609   -0.0433748339    1.3777113274
 C   -2.5648631720    1.2158470079    1.6288307881
 O   -3.2890181293   -0.0066812992    1.4535766708
 H    1.0584806121    1.8338235186   -0.0474982662
 H    0.6391692703   -0.2588976613   -1.0003332915
 H    0.7629831595   -0.3066765783    0.7712571339
 H   -1.8491700522    0.1671988364   -0.7316707887
 H   -2.4933213146   -2.1857143385   -0.0279719617
 H   -1.2855151867   -3.4266733377   -1.8412846538
 H   -0.0111784976   -2.1241816368   -1.9059096473
 H    0.3995979586   -2.4798919112    0.3666009271
 H   -1.3883157396   -0.5464303226    2.2238825265
 H   -2.5900262647    1.6325219347    2.6345431704
 H   -2.6593844122    1.9390519354    0.8215894066