16

 C   -0.0003046660    1.5591426644    0.0667726911
 C   -0.0182145690    0.0300788258    0.0833223827
 C   -1.4420621364   -0.5350746798   -0.0921483318
 O   -2.0532750709   -0.1266665054   -1.2970369595
 C   -1.4322702811   -2.0322988265    0.0331952767
 N   -1.6117186841   -2.8612512700   -0.9527279124
 O   -1.4796147967   -4.0907398584   -0.3970851675
 N   -1.2168965238   -3.9414930842    0.9595094730
 N   -1.1860708496   -2.7114166565    1.2152409634
 H    1.0235642631    1.9363677980    0.1371693387
 H   -0.4474821183    1.9394464348   -0.8548645127
 H   -0.5675500413    1.9684228869    0.9097197642
 H    0.6111501708   -0.3697014696   -0.7230070056
 H    0.3957497388   -0.3525270804    1.0234813607
 H   -2.0758621574   -0.1401988709    0.7113488685
 H   -1.6472263879   -0.6119506682   -2.0250328695