18

 C   -0.1953174200    1.4997807346    0.0084797098
 C    0.1102160469    0.0014383576   -0.0494326340
 C    1.0641579094   -0.3788908284   -1.1829426084
 O    1.2646111431   -1.7950018906   -1.2567756068
 C    1.5759069196   -2.4577496163   -0.1035145913
 N    1.7330564797   -3.7116393578   -0.0701473455
 C    1.7230956178   -1.6117680622    1.1375490797
 C    0.6594421828   -0.5258915039    1.2773250576
 O    0.3021696720   -0.1082990383    2.3504650082
 H    0.7262789093    2.0869985517    0.0834863492
 H   -0.7358664560    1.8263311617   -0.8843537264
 H   -0.8010046999    1.7179866452    0.8896878561
 H   -0.8258228197   -0.5530192341   -0.2173980674
 H    0.6538556678   -0.0951521223   -2.1544113117
 H    2.0306283871    0.1322924563   -1.0665803250
 H    1.6081604787   -4.1076963918   -1.0043236829
 H    1.7483799090   -2.2473706815    2.0212474528
 H    2.6877353123   -1.0824908998    1.0882123459