18

 C   -0.0136196009    1.4832178097   -0.1307619635
 C    1.3602756012    2.1110432790   -0.0251474774
 C    2.1602171053    2.0125705024    1.0401739095
 C    1.8450031633    1.3363618505    2.3250419679
 O    0.4749822013    1.3045613944    2.7612268063
 C    1.0809754673    0.0645241973    2.4353392725
 C    0.5890894348   -0.6833627296    1.2352532478
 N   -0.8599501073   -0.6853746331    0.9536693715
 C    0.0602171352   -0.0298801962    0.0092715704
 H   -0.6625935182    1.8672244840    0.6588315877
 H   -0.4737125855    1.7377885508   -1.0905477072
 H    1.7260780540    2.6646065401   -0.8862762984
 H    3.1400511911    2.4823651965    1.0078046322
 H    2.5445088141    1.5524691877    3.1330639988
 H    1.2922035618   -0.5652146840    3.3024491939
 H    1.1273788434   -1.6193111251    1.0879997141
 H   -1.1441152820   -1.5966635600    0.6043081329
 H    0.2768659608   -0.5576127444   -0.9182908791