20

 C    0.0322062695    1.5825869817   -0.0179472592
 C    0.0302482094    0.0507594058    0.0106694284
 C    0.6852254440   -0.5980720873   -1.2143409120
 N    2.1296951128   -0.3146347853   -1.3664593223
 C    1.6886976121   -1.5949072086   -0.7688647878
 C    1.7142470950   -1.6237516776    0.7542731679
 O    1.7605068948   -2.8800853858    1.3612784358
 C    2.2285574142   -0.3919817053    1.4503788239
 C    0.7347594767   -0.5815507733    1.2222979108
 H    1.0543287959    1.9635188696   -0.0892575506
 H   -0.5295073892    1.9612498243   -0.8789691931
 H   -0.4257211293    1.9937376604    0.8872721704
 H   -1.0111262639   -0.2975954831    0.0296894974
 H    0.0919375549   -0.7330569513   -2.1142712233
 H    2.4011168225   -0.4663783363   -2.3349278843
 H    1.8705241706   -2.5275714061   -1.2923318491
 H    2.6857493902   -3.1370275833    1.4386770036
 H    2.5569070145   -0.5257583528    2.4762484580
 H    2.7794185127    0.3348988218    0.8672511378
 H    0.1396214825   -0.7717233474    2.1088622975