17

 O    0.2637975301   -0.0540932514   -0.2242215504
 C    0.1269138267    1.1082123374    0.0444185453
 C    1.2765951252    2.1080074104    0.1483366151
 O    2.5321213090    1.4681301772    0.2089307726
 C    3.0386842099    1.4884385346   -1.1089340662
 O    2.6463088178    2.7273710303   -1.6559366519
 C    1.3769754259    3.0039150674   -1.1123097876
 C    0.2414100404    3.3062017665   -2.0545152943
 C    0.8847621207    4.4060444532   -1.2230114892
 H   -0.8788002885    1.5495305067    0.2386160547
 H    1.1420367591    2.7038276846    1.0598917764
 H    4.1295698369    1.4426308037   -1.0737101790
 H    2.6266917487    0.6501140871   -1.6917860617
 H    0.4771884888    3.2778135340   -3.1120109111
 H   -0.7666974452    2.9917830512   -1.8072667526
 H    0.3216832290    4.8250447088   -0.3954268377
 H    1.5345937156    5.1075878182   -1.7339762124