18

 C    0.0836084145    1.4958527847    0.0742002982
 C    0.0103542447    0.0116532460   -0.0367321871
 C   -0.1031505961   -0.8361024161   -1.1075296766
 N   -0.1259334181   -2.1515162824   -0.7012987365
 C   -0.0317074921   -2.1176513001    0.6102082867
 N    0.0569216356   -0.8313934643    1.0614513622
 C   -0.0123572548   -3.2992502453    1.4920760977
 C   -0.9522660484   -4.4249107190    1.2130416525
 N    0.4788656239   -4.5698009877    0.9327268768
 H    1.0199469068    1.8323063025    0.5365979901
 H    0.0294766488    1.9419571881   -0.9215334088
 H   -0.7417463001    1.9096758048    0.6669232087
 H   -0.1642914701   -0.5681808487   -2.1519923468
 H    0.1394647316   -0.5446363194    2.0229970440
 H    0.2903492325   -3.1106581110    2.5198996964
 H   -1.3257849980   -5.0294020173    2.0355238911
 H   -1.6337298464   -4.2906941794    0.3782144801
 H    0.6341187258   -4.4133613054   -0.0631816384