17

 O    0.9315023095    0.3544858251   -0.1579535592
 C    0.1662878943   -0.7912027609    0.1216888704
 C   -1.3376727046   -0.4320026261    0.0918675576
 O   -1.5962993890    0.2880898702   -1.0919659449
 C   -2.2610774298   -1.6449631456    0.1471633807
 O   -2.9581827573   -1.9115044589   -0.8112962965
 C   -2.3552045642   -2.4775790502    1.3908344870
 C   -1.2259112601   -3.2955651576    1.8793646146
 O   -1.5916521103   -2.0843869780    2.5290517858
 H    0.5147531019    0.7596668274   -0.9302086678
 H    0.3577908536   -1.5940405857   -0.6111356543
 H    0.4522122685   -1.1417221568    1.1163770760
 H   -1.5505207285    0.2038370530    0.9629383432
 H   -2.1859672522   -0.2772216054   -1.6180726282
 H   -3.3640689552   -2.8346945542    1.5931287411
 H   -1.4517899651   -4.2104543293    2.4235110610
 H   -0.2741390115   -3.2840880570    1.3536059537