22

 C   -0.1708823859    1.5347722492   -0.0759037938
 C   -0.0849271687    0.0070723214   -0.1447171226
 C    0.8706987587   -0.5308287463   -1.2285113319
 C    2.3378388222   -0.1526324164   -0.9742501945
 C    0.7256149244   -2.0381847831   -1.3683914021
 O    1.0864097722   -2.6675376932   -0.1617581360
 C   -0.3920236992   -2.6125787049   -2.1964947488
 C    1.0518643182   -2.7053096224   -2.6764495574
 H    0.7843412690    1.9888878770    0.2049475604
 H   -0.4687941120    1.9608793061   -1.0412947639
 H   -0.9117830329    1.8495941637    0.6659413719
 H    0.2225465353   -0.3954836743    0.8268804143
 H   -1.0859267130   -0.3985468428   -0.3377534016
 H    0.5648277776   -0.0997044039   -2.1922648306
 H    2.6817411217   -0.5714535004   -0.0242477361
 H    2.9829581240   -0.5465010053   -1.7662066518
 H    2.4737816467    0.9317610974   -0.9427962673
 H    1.0273857814   -3.6203536803   -0.2772128496
 H   -0.8641786889   -3.5259954447   -1.8469396690
 H   -1.0668325770   -1.9375521572   -2.7131117425
 H    1.3586439247   -2.0919679261   -3.5175984915
 H    1.5301592114   -3.6800281837   -2.6448199156