16

 N    0.0482996691    1.2733373912   -0.0911554103
 C   -0.0516609887   -0.0817163723    0.1584168527
 O    0.8897972104   -0.7601782852    0.5165949206
 N   -1.3247720243   -0.6470507253    0.0089699064
 C   -1.3792812032   -2.1060485593    0.0415893493
 C   -0.9881062612   -2.6800467636    1.3980907017
 O   -0.6716288779   -3.8271277767    1.5544319141
 C   -2.4992398932    0.0929318783   -0.0391215442
 N   -3.6340313875   -0.4547979669   -0.2057739265
 H    1.0067958125    1.5892260625   -0.0688807579
 H   -0.5010870762    1.6699935204   -0.8377232788
 H   -2.4142041574   -2.3866228565   -0.1719157025
 H   -0.7282445583   -2.5367727721   -0.7219502417
 H   -1.0630585180   -1.9611380909    2.2438637532
 H   -2.3311391985    1.1615991027    0.1102084947
 H   -4.3735543778    0.2432953239   -0.1881070108