20

 C    0.0816243802    1.4513462009   -0.1046884302
 N    0.1133569245    0.0053317486   -0.0659716466
 C    0.5038955123   -0.6038687725    0.9728744541
 C    0.9838966411   -0.0417249400    2.2925305426
 O    0.5329737327   -1.9581681091    1.0071599835
 C    0.0992393181   -2.6239365430   -0.1909578444
 C    0.1913005721   -4.0605708761    0.0112354230
 C    0.2544981474   -5.2548334647    0.1433186264
 C    0.3334270351   -6.6983218487    0.3100113770
 H    0.7092656202    1.8077424086   -0.9304174676
 H   -0.9395161417    1.7879460932   -0.3209086001
 H    0.4150232777    1.9543799975    0.8134130921
 H    0.2081749196    0.5729602221    2.7582202177
 H    1.2420624298   -0.8557893264    2.9693273550
 H    1.8644800175    0.5908775771    2.1480614338
 H   -0.9258598183   -2.3137931414   -0.4248820008
 H    0.7201339738   -2.2937281859   -1.0319040396
 H   -0.6489691967   -7.1688761399    0.1932124165
 H    1.0094307673   -7.1494654228   -0.4246037500
 H    0.7077498873   -6.9569881075    1.3066248074