14

 O   -0.0422732278    1.3433271174    0.0098452713
 C    1.1391433033    1.9916635532    0.0018063025
 C    2.3307631392    1.3412784482   -0.0131994297
 N    2.4532644160   -0.0283472742   -0.0216206973
 C    1.3283035985   -0.6850859950   -0.0141953477
 C    1.0504758360   -2.0886482850   -0.0187855329
 C   -0.3163793673   -2.2169487818   -0.0062618956
 C   -0.9888805512   -0.9244578719    0.0069333095
 C    0.0038523459   -0.0043010800    0.0022725845
 H    1.0154169688    3.0656880765    0.0086690409
 H    3.2481768127    1.9177600124   -0.0190577608
 H    1.7902205333   -2.8734816756   -0.0300096585
 H   -0.8528601024   -3.1578465469   -0.0059944533
 H   -2.0548293548   -0.7591773174    0.0180665570