19

 C   -0.2647688904    1.4377247311    0.1000079610
 C    0.0314247705   -0.0511141150   -0.0473288743
 C    1.2905219259   -0.4061980184   -0.9046853661
 C    2.0788097994   -0.7665957560    0.3916328638
 C    0.7549739889   -0.6768154324    1.1565154688
 N    0.5191505081   -0.3212771089    2.5418985279
 C    0.2262546157   -1.7067376310    2.1030448997
 C   -1.1620307405   -2.0963973377    2.0814130265
 N   -2.2692711912   -2.4252138549    2.0240137885
 H    0.6363271484    1.9995420801    0.3706163426
 H   -0.6475638723    1.8485760921   -0.8397114640
 H   -1.0095566851    1.6095073557    0.8819516345
 H   -0.8777183202   -0.5855059408   -0.3379283938
 H    1.1352972316   -1.2665836293   -1.5584516173
 H    1.7014866892    0.4143961101   -1.4963090015
 H    2.5966180794   -1.7287068543    0.4101831719
 H    2.7852170615    0.0136789029    0.6923478833
 H    1.3856166909   -0.3129320007    3.0765204685
 H    0.9050533602   -2.5007571125    2.4037421501