20

 C   -0.0813099228    1.3587092964    0.0246765059
 O    0.0578026950   -0.0519610968    0.0068882781
 C    0.7054854684   -0.5365037992   -1.1086383236
 C    2.1410915405   -0.3330079589   -1.6115814290
 C    3.3381595910   -0.7918090544   -0.8041187616
 N    1.5812670457   -1.3364208839   -2.6247218438
 C    0.7397453187   -2.0310043210   -1.5160743798
 C   -0.5281303579   -1.9488773350   -2.3724191973
 C    0.2088272748   -0.6260711724   -2.5985030430
 H    0.8944332931    1.8638505708    0.0147594222
 H   -0.6687629812    1.7165573707   -0.8323977037
 H   -0.6039795741    1.6174434966    0.9476420437
 H    2.3400099348    0.6306027176   -2.0978357106
 H    3.1499563836   -1.7429330988   -0.2975741436
 H    4.2104681789   -0.9194135170   -1.4532131578
 H    3.5922510454   -0.0505391212   -0.0391548588
 H    1.1434326145   -2.8721491372   -0.9530089328
 H   -0.5745122819   -2.6270749594   -3.2280330026
 H   -1.4777785119   -1.8995699797   -1.8363418685
 H    0.0058431955    0.1877833329   -3.2965799235