16

 O   -0.0306235240    1.3942089355   -0.0291052499
 C    0.0438909799   -0.0092299453   -0.0234576754
 C   -1.3843698541   -0.5622773089   -0.0169122758
 C   -1.3140990149   -0.8514502728   -1.4809781434
 C    0.2218512807   -0.6286964657   -1.4741607341
 C    0.8068954642   -2.0138563097   -1.2758974021
 O    1.8898413459   -2.4242592738   -1.5995965889
 C   -0.2783815409   -2.7787705996   -0.4916658801
 N   -1.4811516489   -1.9391626969   -0.5177885218
 H    0.8641418483    1.7446296355   -0.0903668230
 H    0.7413913526   -0.3665217729    0.7482543300
 H   -2.1938743703   -0.1813336411    0.5947645871
 H   -2.0207566583   -0.7020443301   -2.2871994204
 H    0.7188169550    0.0049596753   -2.2038959754
 H   -0.4937408192   -3.7354968474   -0.9779763328
 H    0.0568892139   -2.9929677921    0.5287086761