20

 C   -0.1227171613    1.3891205406    0.2488202205
 C    1.3722881200    1.7360189694    0.0388141499
 C    1.6267417778    0.2040798381    0.0810211891
 N    0.1604088633   -0.0610352002    0.0403623514
 C   -0.3974980716   -0.6525025455   -1.1652919508
 C    0.2162434219   -0.2206031510   -2.5135521489
 O    0.3199408369    1.1905778045   -2.6669580433
 C    1.5649194475    1.7797113541   -2.3909143273
 O    1.6565854133    2.4422329382   -1.1567193358
 H   -0.4881310945    1.5841574281    1.2645459897
 H   -0.7962664647    1.8477329956   -0.4774730550
 H    1.8494280386    2.3204715489    0.8287477636
 H    2.2206067776   -0.2278350544   -0.7280549620
 H    2.0669671329   -0.1249922960    1.0291532065
 H   -0.3206994196   -1.7485231571   -1.1123401786
 H   -1.4676242115   -0.4163091683   -1.1668878829
 H    1.2043703976   -0.6805510379   -2.6575152679
 H   -0.4241127903   -0.5869754491   -3.3248686395
 H    2.3585517041    1.0220275966   -2.4946033417
 H    1.7244670421    2.5730232954   -3.1271347870