13

 N   -0.0801527888    1.2104873747    0.7544373210
 C   -0.0044982092    0.1326975473    0.0703938788
 C    1.2341483541   -0.5009785451   -0.3504154359
 C    1.4862241274   -1.6120482210   -1.0581968328
 O    0.7148847651   -2.5565029940   -1.6440778375
 N   -0.6612343040   -2.6242029399   -1.6656271813
 C   -1.4275935617   -1.7626002011   -1.1080740962
 C   -1.3287696485   -0.4969889686   -0.3080710002
 O   -2.3788587924    0.0002799251    0.0230189808
 H    0.8550742005    1.5682392865    0.9665947078
 H    2.1355583682    0.0184003303   -0.0356568557
 H    2.5158344373   -1.8948072931   -1.2535563927
 H   -2.4746667680   -2.0232797610   -1.2570025361