20

 C    0.1359951381    1.5470703892    0.0948690986
 C   -0.0012913370    0.0544121302    0.0327716750
 C   -0.1252477946   -0.7317826187   -1.0995941017
 N   -0.2235739207   -2.0423770491   -0.6794349292
 C   -0.1650560482   -2.1067602858    0.6909387800
 C   -0.0276738805   -0.8251538631    1.1586562906
 C   -0.1585122859   -0.3575679853   -2.5262357452
 C    0.4694600174   -1.2234301116   -3.6016014226
 C   -1.0280365297   -1.0885118515   -3.5312872743
 H    0.1312818291    2.0014670175   -0.8998317216
 H   -0.6817931240    2.0052941775    0.6641724746
 H    1.0706981681    1.8473811294    0.5837243818
 H   -0.3235443537   -2.8367453869   -1.2859773039
 H   -0.2260204161   -3.0520798986    1.2056526982
 H    0.0472439806   -0.5340187440    2.1959918051
 H   -0.0696061650    0.7112084004   -2.6833223546
 H    0.9964453041   -0.7320238626   -4.4121053476
 H    0.9190703326   -2.1615851581   -3.2921324323
 H   -1.6070124981   -1.9339936308   -3.1735127999
 H   -1.5319488666   -0.5042293078   -4.2933872310