16

 C    0.0247929260    1.4954244734   -0.2099382801
 C   -0.0532074356   -0.0025878058    0.1326250457
 C   -1.4422294056   -0.5535772396    0.0390674279
 N   -2.1409430078   -0.8661107483    1.1219826713
 N   -3.3335211497   -1.3052822260    0.6590734465
 C   -3.4269286586   -1.2883729523   -0.6819290733
 C   -2.2123555521   -0.8020962621   -1.1400568493
 C   -1.8221557743   -0.6022951263   -2.4842253747
 N   -1.4818186639   -0.4297430923   -3.5784303979
 H    1.0545537247    1.8532348619   -0.1201799170
 H   -0.3090584826    1.6850111637   -1.2342156456
 H   -0.6017061420    2.0830165588    0.4676826160
 H    0.6015875630   -0.5633310459   -0.5444436756
 H    0.3075698564   -0.1757226220    1.1504213839
 H   -4.0303732400   -1.6066982682    1.3195898655
 H   -4.3088039378   -1.6108482788   -1.2114237132