19

 C   -0.0037772894    1.4604160069   -0.2301944399
 C    1.4159668528    1.9747349533    0.1589051840
 C    2.0448193338    0.6904471306    0.6460862679
 O    3.4194345853    0.4370556257    0.8787394471
 C    2.4922114425    0.3216391378    1.9887294788
 C    2.0316353049   -1.0809674598    2.3277424480
 C    1.4673401453   -1.6537636646    0.9958292488
 C    1.2324123964   -0.4535604908    0.0669027045
 O   -0.0862635392    0.0787999982    0.1482746458
 H   -0.8073915571    1.9879779040    0.2893592931
 H   -0.1695113956    1.5644323849   -1.3119845726
 H    1.9506124226    2.3724547298   -0.7087921736
 H    1.3884299871    2.7539716042    0.9236486915
 H    2.6423551873    1.0613188743    2.7714579220
 H    2.8307049008   -1.7026756129    2.7427687691
 H    1.2499193892   -1.0047322507    3.0919588104
 H    2.1965099048   -2.3203433843    0.5292683547
 H    0.5465276543   -2.2234678305    1.1396038181
 H    1.4896947744   -0.6823774760   -0.9795360878