18

 C   -0.4293676537    1.5387713389   -0.0251082231
 C    0.0737742112    0.1109290624   -0.1023790378
 O    1.1581499400    0.0264831438   -1.0600967940
 C    2.1370656804   -0.7133627527   -0.4765952667
 C    3.3084752325   -1.0082941267   -1.3494604099
 N    1.9929726094   -1.0861517690    0.7312432761
 C    0.7067126844   -0.5165424444    1.1938374802
 C    0.9161301619    0.4189734801    2.2977794313
 C    1.0787758650    1.1835461841    3.2105496849
 H    0.3574910361    2.2089464071    0.3281364075
 H   -0.7663838787    1.8719425320   -1.0104662473
 H   -1.2712314283    1.6050727028    0.6699649931
 H   -0.7198450712   -0.5504498356   -0.4685822259
 H    3.7622203872   -0.0742817291   -1.6954400394
 H    4.0432842592   -1.5893556294   -0.7937597134
 H    2.9904947622   -1.5640959772   -2.2369521057
 H    0.0705052327   -1.3317946802    1.5567578119
 H    1.2305792897    1.8533905032    4.0205584183