21

 C    0.0556773097    1.5304105735   -0.0345668100
 C    0.0178728758    0.0040077200    0.0449142916
 C   -1.4253792305   -0.5115922399   -0.0275712041
 O    0.7773526870   -0.5000370342   -1.0872040534
 C    1.2679034465   -1.8068520135   -0.7661851719
 C    1.5338081053   -1.7846963658    0.7275424600
 C    2.2617475384   -0.5605171203    1.2180940953
 O    3.0208928945    0.2609296836    0.3812194722
 C    0.7521733113   -0.5812297752    1.2489963933
 H    1.0771787895    1.9025053402    0.0633702612
 H   -0.3591974060    1.8716292775   -0.9877873972
 H   -0.5438970486    1.9626546868    0.7722439332
 H   -1.8959899434   -0.1798778061   -0.9577687947
 H   -1.4613984103   -1.6041234376    0.0084267193
 H   -2.0145161228   -0.1294750937    0.8121126565
 H    0.5343374483   -2.5840712947   -1.0241483656
 H    2.1640522189   -1.9681928066   -1.3750722973
 H    1.5967736601   -2.7261758556    1.2615476497
 H    2.7522648534   -0.6473034882    2.1821462513
 H    2.5585141869    0.3046080324   -0.4676614962
 H    0.2329844661   -0.6005231724    2.2011129867