13

 N   -0.0107243944    1.2264896006    0.6465867643
 C   -0.0070031746    0.0917578207    0.0663609711
 C   -1.2922995762   -0.5771207353   -0.1643524314
 C   -1.5856827203   -1.4679138962   -1.1159722792
 C   -0.6994034006   -1.9411532808   -2.1843558146
 O   -1.0907822653   -2.6316628124   -3.1008660570
 N    0.6720116067   -1.5966219118   -2.1661923237
 N    1.5603940572   -1.2189200552   -1.1893304334
 N    1.2661126100   -0.5147080626   -0.2081153775
 H    0.9559347858    1.5379686140    0.7837130696
 H   -2.0703298813   -0.2543368245    0.5203605706
 H   -2.5890910341   -1.8695111518   -1.2002003231
 H    1.1694828770   -2.0891293648   -2.8985824658