14

 O   -0.0147739490    0.0649231658    0.0387570078
 C    0.0537258653    1.2522830545    0.0166931008
 O   -1.0370960897    2.1017405441    0.0469697212
 C   -0.4084463175    3.4057705800   -0.0154361587
 C    0.6598215136    3.2231242585   -1.1143078288
 C    1.2288564116    2.2222027932   -0.0486034516
 C    0.7280830353    3.2480570572    1.0500357475
 C    1.5818077112    4.4029010237    1.2554456146
 N    2.2572280573    5.3257542985    1.4253964884
 H   -1.1603602323    4.1890945284    0.0157970704
 H    0.3222248268    2.8154255795   -2.0679086707
 H    1.2978502166    4.0955738281   -1.2553373768
 H    2.2287826947    1.8005677408   -0.0606565838
 H    0.4151670564    2.8285800478    2.0092288697