18

 O   -0.1045026934    1.2885769442    0.6970614382
 C   -0.0022760044    0.0624178984   -0.0279254496
 C   -1.3528785167   -0.5717950887   -0.0494156819
 C   -1.7652905990   -1.8895761574   -0.0956416181
 C   -0.9012675819   -3.1082080679   -0.1101127727
 O   -1.4027984621   -4.0410030992    0.8453080275
 C   -3.1913513198   -1.8782045324   -0.1578130416
 C   -3.5972234349   -0.5666039945   -0.1438797104
 N   -2.4732178120    0.2176835912   -0.0996562823
 H    0.7079647989    1.7840465641    0.5582466586
 H    0.3576823148    0.2633463482   -1.0514436084
 H    0.7198650936   -0.6250154327    0.4370226626
 H   -0.8976612529   -3.5641296011   -1.1146255635
 H    0.1429441334   -2.8334614583    0.1134698914
 H   -0.9429681842   -4.8749722570    0.7076103438
 H   -3.8299269456   -2.7470252084   -0.1859324185
 H   -4.5819269259   -0.1273964451   -0.1466546333
 H   -2.4378038779    1.2150508766    0.0233323382