21

 C    0.0389534185    1.4934919876   -0.0861486396
 C   -0.0581126570   -0.0038820253   -0.0222356904
 O    0.4189076400   -0.6760007954   -1.2031456781
 C   -0.4755852225   -1.7860987035   -0.8764133014
 C    0.3390031764   -2.8135225523   -0.0952393365
 C    1.1623159174   -2.0194238866    0.9515946477
 C    0.3841583815   -0.7469475051    1.3163892582
 C   -1.1144425846   -1.0959426876    1.5603574374
 C   -1.3384307822   -0.8657920052    0.0563568945
 H    1.0891226201    1.8053232139   -0.1201050838
 H   -0.4613626706    1.8769389881   -0.9803413972
 H   -0.4201334462    1.9493276345    0.7970618703
 H   -0.9621605182   -2.1837718244   -1.7705492737
 H   -0.3297918562   -3.5408487701    0.3791235210
 H    0.9947161860   -3.3719309327   -0.7702757283
 H    1.3558408021   -2.6224966611    1.8448635104
 H    2.1308850078   -1.7439279015    0.5254826091
 H    0.8943643286   -0.1440344099    2.0711684360
 H   -1.3396676654   -2.0769572544    1.9898161186
 H   -1.6319055713   -0.3316100144    2.1471641339
 H   -2.3065521841   -0.5574505146   -0.3413791181