17

 O    0.0398448922    1.4090467419    0.0566109239
 C    0.0229462950   -0.0067274376    0.0522223858
 C   -1.3856518619   -0.5456673688   -0.1399334090
 C   -1.5025871594   -0.7205402616   -1.6237821117
 O   -0.2892917855   -0.3846936374   -2.2361540172
 C    0.7188855844   -0.6031121407   -1.2002070829
 C    0.9122265118   -2.0841886432   -1.0407948068
 C   -0.2169795529   -2.7585703956   -0.7995436631
 C   -1.4609426433   -1.9654754567   -0.7233337709
 H   -0.3159195371    1.6919279980   -0.7945670397
 H    0.5090043257   -0.3290729090    0.9749939493
 H   -2.1846137914   -0.1809219775    0.4917172992
 H   -2.3654139877   -0.4956477468   -2.2364653730
 H    1.6103543975   -0.0500544482   -1.4924899829
 H    1.8840946540   -2.5455580252   -1.1643810651
 H   -0.2617710667   -3.8395803811   -0.7207212045
 H   -2.3995602148   -2.4860034403   -0.5745227315