12

 O    0.0104989580    0.0070656173   -0.1886169788
 C   -0.0457247868    1.1843012712    0.0252976274
 C   -1.3005717676    2.0361637975    0.2369975797
 C   -0.7643269292    3.3731851175    0.7075289329
 O    0.0642098614    3.2374966750    1.8567610562
 C    0.7104028511    3.4491780488    0.5828663749
 C    1.1991173504    2.1344233003    0.0502286751
 O    2.2957926186    1.8452508818   -0.3402876049
 H   -1.8398172060    2.1228874566   -0.7143248931
 H   -1.9753884863    1.5744041279    0.9629018252
 H   -1.3708544910    4.2733955308    0.6659921743
 H    1.2726115673    4.3688933853    0.4638686212