19

 C    0.2478422719    1.4759289910    0.1535555671
 C   -0.2531556671    0.0558046092   -0.0958760242
 N    0.5421200479   -0.5706595570   -1.1505296281
 C    1.7861119075   -1.2578982152   -0.9183122166
 C    1.8058886826   -2.0870857488    0.3804411589
 C    0.5331511050   -2.8487456147   -0.0988140513
 C    0.5384331696   -1.9983858448   -1.3923856591
 C    0.1842526696   -2.4888628168   -2.6910603402
 N   -0.1063499853   -2.9227787943   -3.7234448411
 H    1.2803513717    1.4692500062    0.5179206471
 H    0.2183645259    2.0618267255   -0.7688235795
 H   -0.3719209390    1.9732509796    0.9053400149
 H   -0.2499621385   -0.5107655285    0.8461091320
 H   -1.2882479636    0.0763503227   -0.4530800061
 H    2.6527801647   -0.9633417681   -1.4997921705
 H    2.6790105493   -2.7390912802    0.4363654210
 H    1.7326198432   -1.5207508968    1.3124179058
 H    0.7327039268   -3.9008104153   -0.3058981120
 H   -0.3693244221   -2.7739919238    0.5125479519