14

 O   -0.0268955055    1.4414815809    0.0203599809
 C    1.2630561906    0.8180081203    0.0051709401
 C    0.0510438712    0.0108172125    0.0130981420
 C    0.0930124664   -0.6765992296   -1.4012539310
 O    1.5151342524   -0.8890503433   -1.5213919993
 C    1.8683365578    0.5057502288   -1.4128657680
 C    0.9626232740    1.1324854890   -2.4680431785
 C   -0.1457361691    0.3943319476   -2.4607909445
 H    1.9030909247    1.0005649866    0.8615234382
 H   -0.3563340100   -0.5041926246    0.8763009023
 H   -0.4470263428   -1.6185611767   -1.4771526873
 H    2.9449384988    0.6404554333   -1.4993378154
 H    1.1658769829    2.0465741732   -3.0069525021
 H   -1.0723818114    0.5559193520   -2.9923083571