20

 C   -0.0254853951    1.5141403302    0.1057622325
 C   -0.1626491316   -0.0001696815    0.2825566783
 C   -1.4614376768   -0.5541315591   -0.3206730344
 C   -1.5752658340   -2.0575838666   -0.1905272261
 C   -1.8895843914   -2.7694096686    1.0958371813
 O   -2.5516670865   -2.0090728933    2.1030432840
 C   -3.7552680257   -1.6763099456    1.5644687184
 N   -4.0465217632   -2.0940918787    0.3995566120
 C   -2.8859580056   -2.8249879834   -0.0573999502
 H    0.9054084119    1.8850589933    0.5458036348
 H   -0.0265892226    1.7912134756   -0.9543771910
 H   -0.8551681822    2.0452668454    0.5855467583
 H    0.6974793388   -0.5031397664   -0.1788551622
 H   -0.1303360911   -0.2545793750    1.3488779100
 H   -2.3191687137   -0.0639203301    0.1508867384
 H   -1.5159408857   -0.2912082990   -1.3851727146
 H   -0.8455405544   -2.6095834862   -0.7800177058
 H   -1.2927257147   -3.5736168190    1.5067414017
 H   -4.3832819700   -1.0652620019    2.2013114955
 H   -3.0765754865   -3.6878249602   -0.6840191010