21

 C   -0.0602563833    1.5686685721    0.0024078274
 C    0.0224895996    0.0332895738    0.0121218740
 C    0.6969165640   -0.5066530616   -1.2339318744
 C    1.7539015569   -1.3108232547   -1.1200212741
 C    2.2207588138   -1.6753819223    0.2716327241
 C    2.2830210720   -0.3698500488    1.1268462065
 C    0.7496136994   -0.5213841391    1.2644759800
 O    0.2215145120   -0.0226020780    2.4695679522
 C    0.9657104601   -2.0579028750    1.1153008916
 H    0.9362442172    2.0173789797   -0.0542569544
 H   -0.6325204227    1.9183499312   -0.8628703632
 H   -0.5444598487    1.9380318554    0.9097696649
 H   -1.0120714439   -0.3517360795    0.0425898203
 H    0.3023518858   -0.2004916077   -2.1991559837
 H    2.2730030914   -1.7078200224   -1.9869350365
 H    3.0808397659   -2.3442875707    0.2840899916
 H    2.7592863861   -0.5384923024    2.0958391013
 H    2.6857941519    0.5301368450    0.6581648209
 H   -0.7309697484   -0.1723525090    2.4667261827
 H    0.1900072459   -2.6545098075    0.6278950974
 H    1.2337222451   -2.4914939485    2.0823842115