19

 C   -0.2919061790    1.4480579975   -0.0059412666
 C   -0.3163065582   -0.0330380430   -0.3335962298
 O   -1.2724439850   -0.6624950020    0.5238408252
 C   -1.4161927632   -2.0149289011    0.3136903527
 C   -2.7365384564   -2.6009112102    0.7167939989
 N   -3.8088104379   -1.8201398183    1.2626980809
 C   -2.4097951696   -2.4937103645   -0.7742206470
 C   -3.0785893629   -1.5069024077   -1.5665729469
 N   -3.6104656492   -0.6976223340   -2.2013737395
 H    0.4422268507    1.9599803700   -0.6347458155
 H   -1.2734353937    1.8944070905   -0.1865138469
 H   -0.0239110202    1.6083041520    1.0422103348
 H   -0.5961257879   -0.1982048730   -1.3822901857
 H    0.6719348027   -0.4903145669   -0.1711399687
 H   -0.5066238289   -2.6097206723    0.4144848668
 H   -2.7150603182   -3.6160301257    1.1020647563
 H   -3.6802228975   -1.7309568735    2.2668573683
 H   -3.7769893456   -0.8766013008    0.8872598819
 H   -2.1775022001   -3.4133029670   -1.3004714791