14

 N    0.1043994705    1.4028823203    0.1361719971
 C   -0.0492781062    0.0197005947    0.0391549161
 C   -1.1546471809   -0.8193769181    0.0345627728
 N   -2.5425203022   -0.8624943777    0.0334540701
 C   -2.8027212413   -2.1424672915   -0.0044731035
 N   -1.6826351512   -2.9672220095   -0.0356571925
 C   -0.6001949513   -2.1146916629   -0.0052008299
 N    0.7207596106   -2.1723890653   -0.0334714643
 N    1.0235756395   -0.8239766331    0.0037120164
 H    0.6663619332    1.8006101897   -0.6082423017
 H   -0.7965599486    1.8633631492    0.1525668573
 H   -3.7956046855   -2.5703456423   -0.0119322083
 H   -1.6809207538   -3.9718721508   -0.0534400617
 H    1.9894373972   -0.5560708328    0.0828584322