17

 O   -0.2153303618    1.5122384718   -0.1540607768
 C    0.0752303114    0.1259039928    0.0195756460
 C   -1.2096642977   -0.7756255132    0.1477320670
 C   -1.3781491171   -1.6044612497   -1.1713658360
 C   -0.0381111612   -1.3819421741   -1.7801204073
 C    0.7694652982   -0.4900569094   -1.1586983507
 C    1.9715654291   -0.4293261600   -1.9401762304
 C    1.7751828076   -1.3046362418   -2.9646347214
 O    0.5390145037   -1.9012417677   -2.8848695180
 H   -0.5311342695    1.6266053591   -1.0572863182
 H    0.6565998445    0.0927070693    0.9460521503
 H   -1.0873743930   -1.4611308737    0.9909181972
 H   -2.0750007741   -0.1447574936    0.3629524632
 H   -1.5958741427   -2.6575835355   -0.9648501773
 H   -2.1931736647   -1.2334552043   -1.8054639199
 H    2.8566909395    0.1651260746   -1.7755659122
 H    2.3817741178   -1.6159879946   -3.7990557555