16

 C    0.0529117886    1.5961057174   -0.0398397104
 C   -0.0041886957    0.0713507271    0.0690066156
 N    0.6945949674   -0.5839217882   -1.0830396686
 C    1.5358742324   -1.7343649428   -0.6664726230
 C    1.6181842760   -1.5094946905    0.8068499375
 C    0.7697078530   -0.5236163112    1.2011489331
 N    0.9059658321   -0.4034908037    2.5510500680
 N    1.7274669672   -1.1882052331    3.0303498960
 O    2.2841475129   -2.0274440794    1.7891577935
 H    1.0911639360    1.9329528238   -0.0949968674
 H   -0.4678344559    1.9331817969   -0.9411787364
 H   -0.4270961393    2.0611232189    0.8273850315
 H   -1.0616609266   -0.2365960204    0.1196823145
 H    0.0413348394   -0.8463255166   -1.8084540934
 H    1.0888219629   -2.7172153898   -0.8837874835
 H    2.5177055497   -1.7087812083   -1.1554951069