22

 C    0.1590175622    1.6436173104    0.0436719902
 C    0.2339408499    0.1129720767    0.0246572156
 C    0.7211102258   -0.4935405343   -1.3113892723
 C   -0.2005092263   -0.1153328459   -2.4755646314
 N    2.0945308042    0.0124688983   -1.5742484320
 C    2.8709364156   -0.9796834958   -1.4527494770
 O    2.3717007703   -2.2063103932   -1.1837443197
 C    0.9240677115   -2.0523379979   -1.2525385975
 C    0.2880263752   -2.8514582443   -0.1293321718
 H    1.1121214067    2.0788841956   -0.2660841786
 H   -0.6209980446    2.0242275363   -0.6222947438
 H   -0.0717825170    1.9992301766    1.0526164920
 H    0.9181440206   -0.2137843578    0.8162290717
 H   -0.7491955248   -0.3086359889    0.2678194895
 H   -0.2455352166    0.9677750673   -2.6045408658
 H    0.1688572065   -0.5460195272   -3.4108117279
 H   -1.2177687041   -0.4863321424   -2.3038177034
 H    3.9522833146   -0.9458752742   -1.5390777067
 H    0.6197314349   -2.4850217548   -2.2143804062
 H    0.6045306872   -2.4958397525    0.8536365256
 H   -0.8029837937   -2.7884866401   -0.1887102010
 H    0.5697676321   -3.9043515417   -0.2182065995