16

 O   -0.0058339954    1.3687990608   -0.1204388475
 C    0.0144605051   -0.0243005181   -0.0104768629
 C    0.0290077443   -0.6247321119    1.4714143409
 C   -1.4781839758   -0.1977917982    1.5198831866
 C   -1.4296611312   -0.6361720996    0.0210156366
 C   -1.0447921841   -2.1146034441    0.1687692891
 C   -0.0904584988   -2.0927099208    1.1219403826
 C   -1.5570796736   -3.1958514349   -0.5780192279
 N   -1.9981138733   -4.0671944365   -1.2030794885
 H    0.9011134812    1.6883409553   -0.1540722264
 H    0.7192089053   -0.4870764198   -0.7124736190
 H    0.7577161091   -0.3169842772    2.2198205115
 H   -2.1360642466   -0.7583888804    2.1868619036
 H   -1.6047285914    0.8785881818    1.6384384813
 H   -2.1875130699   -0.3639451438   -0.7104656393
 H    0.4943219951   -2.9135688323    1.5112177391