15

 N    0.0846662728   -1.1505053743    0.0586925963
 C    0.0354439551    0.0018138449    0.0065059306
 C    0.0134155025    1.4698498382   -0.1045867030
 O   -0.8622592228    1.9517188712    0.9270384217
 C   -0.6613721701    3.2193285270    1.3929083767
 N    0.3681956167    3.9427733765    1.3016001309
 C    1.5185251935    3.3963161527    0.6509858648
 C    2.1620602369    2.1558057194    1.2394155742
 C    1.4084584239    2.0676680276   -0.0573990086
 H   -0.4424898242    1.7235633826   -1.0713333173
 H   -1.5520007900    3.5584409353    1.9154654080
 H    2.1749947764    4.1511566968    0.2335891423
 H    3.2416539641    2.0681200367    1.2017666185
 H    1.7034090085    1.7446899732    2.1322887321
 H    1.9723402567    1.9133804923   -0.9714370971