16

 C   -0.1020569803    1.5665906225    0.0214913392
 C    0.0193702167    0.0702072331   -0.0239273538
 C    0.7396020292   -0.7906070956   -1.0649684683
 O    1.5583315441   -1.4102075133   -0.0237093458
 C    0.9503021862   -0.6542897464    0.9677050082
 O    1.1848499432   -0.6688900673    2.1315095476
 C   -0.5928922046   -1.4894415225   -1.3496375016
 C   -1.1931768678   -2.0728428350   -0.1375189395
 N   -1.3233085644   -0.6156421789   -0.3287946381
 H    0.8823170561    2.0434251736    0.0458927308
 H   -0.6548988161    1.9293954605   -0.8490907847
 H   -0.6508540693    1.8623275506    0.9210304444
 H    1.3380513030   -0.4179940889   -1.8928459473
 H   -0.9971029798   -1.6421044607   -2.3442167293
 H   -2.1449836235   -2.5793915212   -0.2642979218
 H   -0.5708699628   -2.4789718905    0.6538676999