17

 O    0.2999437189    1.2110626446   -0.9170504147
 C    0.1932208562   -0.1575624772   -0.6226461875
 C   -1.0260266572   -0.4631541934    0.3023224509
 C   -2.2651393174   -0.0283175348   -0.3315793671
 C   -3.2467550720    0.3694820668   -0.9019652565
 C   -0.9924136277   -1.9396586158    0.7133069628
 O   -0.0121287333   -2.3960159149    1.2614453831
 C   -2.1766481756   -2.8396797035    0.4197730376
 O   -1.9433346875   -4.1449117933    0.8502113341
 H   -0.5018968214    1.4739932403   -1.3843419457
 H    0.1120309136   -0.7723409369   -1.5316797586
 H    1.0997797423   -0.4488405555   -0.0893027145
 H   -0.8673111176    0.1143093100    1.2223602107
 H   -4.1336349310    0.7055132629   -1.3812797677
 H   -3.0657797409   -2.4018194755    0.9028090008
 H   -2.3775603476   -2.7947394582   -0.6638242277
 H   -1.0542278218   -4.1333133357    1.2387769800