21

 C    0.2755114613    1.4767105438    0.3548470679
 O    0.8526205928    0.2084394333    0.1236757418
 C    0.7195130918   -0.6747734529    1.2092676458
 C   -0.6396960642   -1.3775877139    1.4977979831
 C    0.1497975090   -2.7069473643    1.7137580248
 C    1.3364787670   -2.0522550049    0.9943598360
 C    1.9514430731   -2.4797196535   -0.3215258300
 C    2.8049666481   -2.3125514984    0.9090633150
 O    3.6976598781   -1.2402734591    1.0312905423
 H    0.7183700302    1.9690361183    1.2343862286
 H    0.4678345188    2.0885686330   -0.5295763156
 H   -0.8109197584    1.4075442267    0.5084381004
 H    1.1194029535   -0.2012512932    2.1219445911
 H   -1.2451566561   -1.0029029402    2.3258698123
 H   -1.2458562393   -1.4180851246    0.5890379824
 H    0.3469961516   -2.9116960528    2.7705993024
 H   -0.2686519844   -3.6051098938    1.2541349550
 H    1.7453582994   -3.4865712439   -0.6731740929
 H    2.0274992628   -1.7304012049   -1.1035756603
 H    3.2231423301   -3.1983444416    1.3769605233
 H    3.3100187948   -0.4841433732    0.5743435167