12

 C   -0.1313610628    1.5448437634    0.0123633891
 C    0.1871513507    0.0545336684    0.0008407818
 O    1.3074720106   -0.3860878842   -0.0127861493
 N   -0.9666575216   -0.7368183474    0.0077878383
 C   -1.0849252020   -2.1252662712    0.0010753154
 N   -0.1095038556   -2.9328352446   -0.0122823771
 H    0.8067772216    2.0979689343    0.0071126944
 H   -0.7221135861    1.8272865610   -0.8658226580
 H   -0.7063150437    1.8171263820    0.9041300941
 H   -1.8419472836   -0.2379085892    0.0190806361
 H   -2.1454378382   -2.4111770358    0.0092199164
 H   -0.4608145993   -3.8893672568   -0.0144054111