19

 C    0.0925187846    0.9650755931   -0.7671880260
 C   -0.2621375623    0.5186831191    0.6632498503
 C   -1.5077225362   -0.2381958219    0.7279591731
 C   -2.5365849704   -0.8620300427    0.7468129111
 C   -3.7700616054   -1.6283940577    0.7683812895
 C   -3.8989220511   -2.6616273082   -0.3676023195
 O   -3.2360426774   -2.6356516792   -1.3673539326
 C   -4.9661877330   -3.7223237296   -0.1068395527
 O   -5.1699504558   -4.4843521041   -1.2651861609
 H    1.0354422904    1.5201281226   -0.7704348989
 H    0.1953121017    0.1002766429   -1.4275957572
 H   -0.6896123370    1.6094240076   -1.1774433454
 H    0.5551795553   -0.0905934909    1.0701631548
 H   -0.3347088387    1.3984497742    1.3158144119
 H   -3.9015556471   -2.1416953671    1.7311427537
 H   -4.6422579791   -0.9626706859    0.6783156815
 H   -4.6109746375   -4.3285802845    0.7461028479
 H   -5.8822511379   -3.2109163337    0.2382459868
 H   -5.8122222131   -5.1707255441   -1.0627447374