17

 C    0.1109247052    1.4494468677   -0.0220785704
 C   -0.0752321795   -0.0245072058   -0.0160734295
 C   -1.1741128008   -0.8299884270   -0.1269484300
 C   -0.6824762353   -2.1732211137   -0.0456652746
 C    0.6509691445   -2.0686663377    0.1052948813
 C    1.3353813505   -3.3852899336    0.2083517816
 O    0.2342031792   -4.2994363824    0.1000823520
 C   -1.0356561548   -3.6244344841   -0.0587855790
 O    1.0679888829   -0.7852862344    0.1291802544
 H    0.7625375481    1.7714795201   -0.8425244177
 H   -0.8567556903    1.9416608404   -0.1419617046
 H    0.5616916382    1.8038714359    0.9120604863
 H   -2.1896050905   -0.4863260410   -0.2500450747
 H    2.0576911671   -3.5762250096   -0.5997141060
 H    1.8564040062   -3.5430129375    1.1647748293
 H   -1.7009029360   -3.9247136651    0.7632941691
 H   -1.4983610846   -3.9580512522   -0.9985595976