17

 C   -0.1851787038    1.7063038850    0.2196554039
 C   -0.1332116655    0.2003984194    0.1301777758
 C   -1.3630492376   -0.4863969366   -0.4682475382
 C   -1.6792190529   -0.0270694654   -1.8163315099
 C   -1.9332514774    0.3614148781   -2.9245864668
 O    1.1134625674   -0.3589045023   -0.2823005198
 C    0.6910305746   -0.5957934701    1.0739822836
 C    1.4632932444   -0.0038271015    2.1325488228
 C    2.0992161101    0.4599526166    3.0412777695
 H    0.7224073321    2.0947183917    0.6832695398
 H   -0.2873435193    2.1337545410   -0.7816035021
 H   -1.0479174844    2.0256403607    0.8138758814
 H   -1.1893600691   -1.5681783079   -0.4797366656
 H   -2.2221328165   -0.3079632311    0.1920589998
 H   -2.1575596010    0.6951178604   -3.9074025278
 H    0.3834429770   -1.6250347631    1.2626426723
 H    2.6656308920    0.8734762851    3.8390807612