21

 C    0.1412773961    1.3468669690   -0.1817116373
 N   -0.1101979905   -0.0786255327   -0.0009702549
 C    0.6036073046   -0.6130789800    1.1533397602
 C   -1.5243290359   -0.4447675086    0.0006192456
 C   -2.2687585421    0.1642108538    1.1399232220
 N   -2.7914289617    0.6702586325    2.0388894539
 C   -2.2391312355   -0.1299168884   -1.3040205629
 C   -1.9425603953   -0.9751748091   -2.5127894969
 C   -3.2785939957   -1.0908447065   -1.8249135724
 H    1.2209895498    1.5067047728   -0.2489724152
 H   -0.3050241670    1.6946693380   -1.1161710769
 H   -0.2465076407    1.9671790735    0.6450379873
 H    0.2867945868   -0.1665839037    2.1117959660
 H    0.4514841637   -1.6956729033    1.2137079922
 H    1.6744503881   -0.4281575270    1.0288273548
 H   -1.5636748921   -1.5311556834    0.1496216860
 H   -2.4383300787    0.9229498352   -1.4707913028
 H   -1.8958158328   -0.4858225715   -3.4788326514
 H   -1.2313935452   -1.7846704650   -2.3905718980
 H   -3.4791902217   -1.9867396489   -1.2465516122
 H   -4.1530022241   -0.6755364867   -2.3122977973