19

 O    0.1250710608    1.4176642095   -0.0087187482
 C    0.0901096645    0.0054461266   -0.0356333968
 C   -1.3490241217   -0.5079106961   -0.0406198513
 O   -1.9550327482    0.0583988416    1.1207178555
 C   -2.1235123677   -0.0523733768   -1.2884400460
 O   -3.4528462956   -0.5658408479   -1.2271260849
 C   -3.4375904432   -1.9704886976   -1.1700214626
 O   -2.7990615558   -2.4500060133   -0.0162065499
 C   -1.4340167072   -2.0399129851    0.0311055056
 H   -0.4730852171    1.6747265868    0.7047388390
 H    0.6131241474   -0.3138979746   -0.9430984154
 H    0.6171908796   -0.4284631193    0.8295217388
 H   -2.8990397949   -0.1326628246    1.0591721927
 H   -2.1946695341    1.0352415046   -1.3169543016
 H   -1.6221123980   -0.4026314232   -2.2047860137
 H   -4.4756909180   -2.3044279465   -1.1252528896
 H   -2.9397137127   -2.3732037131   -2.0726082863
 H   -0.8684029780   -2.4999386956   -0.7961252417
 H   -1.0333320901   -2.4009030455    0.9809750464