23

 C    0.0930950426    1.5263584733    0.2884405696
 C    0.0015293348    0.0445173002   -0.1168612307
 C   -1.4047676817   -0.5058618987   -0.1106737700
 C   -1.9939290074   -0.9440711288   -1.2272884848
 C   -3.3962618574   -1.4923920483   -1.2929717199
 C   -4.2088849914   -1.1567491568   -0.0370476896
 O   -5.3946448046   -1.9358422152    0.0592012965
 C   -3.3737885271   -1.4265526428    1.2089153483
 C   -2.1218363328   -0.5395852544    1.2237609532
 H    1.1293633347    1.8759282652    0.2468732060
 H   -0.5031211316    2.1519085729   -0.3838500696
 H   -0.2697190261    1.6906883489    1.3077522767
 H    0.4355710522   -0.0839172749   -1.1146121417
 H    0.6232448368   -0.5447727992    0.5727867545
 H   -1.4394776801   -0.9158085600   -2.1636260088
 H   -3.9068015889   -1.1066041636   -2.1871118629
 H   -3.3774355401   -2.5864658922   -1.4064095522
 H   -4.4623375992   -0.0827038574   -0.0595918670
 H   -5.9049622096   -1.8001862668   -0.7456630948
 H   -3.9825322183   -1.2579345596    2.1026196760
 H   -3.0872923017   -2.4854111476    1.2093360066
 H   -1.4292050432   -0.8859899148    2.0023463368
 H   -2.3954743298    0.4840983506    1.5173224079