19

 C   -0.0232513295   -1.1709867620   -0.1234570539
 C   -0.0150617802    0.0311589725   -0.0574097026
 C   -0.0194412362    1.4601740308    0.0342486418
 C    0.4307024343    2.2663526381   -1.1745043357
 C    1.2805681846    2.2801493293    0.0633293599
 C    1.1255620186    3.3814727623    1.0899357668
 C    0.1327177819    4.4958262374    0.8589903936
 C   -0.2710516884    3.2956492704    1.6770386775
 C   -1.0046488521    2.1221843130    1.0214109966
 H   -0.0267017718   -2.2306046847   -0.1850087882
 H    0.7959394250    1.6929645156   -2.0190094720
 H   -0.1410943277    3.1441682793   -1.4521174924
 H    2.2345958711    1.7683255617    0.0247174520
 H    1.9857049684    3.5839161904    1.7172924824
 H    0.3002744883    5.4214019234    1.4001970178
 H   -0.2908884990    4.6467969293   -0.1275342969
 H   -0.4368940854    3.4491701494    2.7378025175
 H   -1.9344497742    2.4232355217    0.5257162343
 H   -1.2744051077    1.3889083122    1.7861562713