15

 C   -0.0092302305    1.4722652454    0.0043420448
 C   -0.0005512927   -0.0375076525    0.0376374966
 O    1.0525829898   -0.6882896803    0.0743931281
 C   -1.2358797939   -0.7610803143    0.0280893272
 C   -1.3710873650   -2.1387109411    0.0573597687
 O   -0.3682430190   -3.0104388769    0.0987210074
 C   -2.7677042911   -2.4179731854    0.0347379407
 C   -3.3736775420   -1.1957812697   -0.0069888856
 O   -2.4858946723   -0.1821308352   -0.0121218189
 H    1.0176084563    1.8386190987   -0.0098922942
 H   -0.5475336962    1.8333692624   -0.8780444172
 H   -0.5324477970    1.8689166862    0.8809037154
 H    0.4461791817   -2.4556440710    0.1022808019
 H   -3.2459316671   -3.3836206809    0.0473522512
 H   -4.4122999411   -0.9060052554   -0.0358486562