19

 C   -0.1103109020    1.5590285250   -0.0036685318
 N    0.0340251966    0.1268408703    0.1077232799
 C   -1.1846181591   -0.6838936674    0.3172526707
 C   -0.4313865760   -1.5415670266    1.3487847313
 O    0.4048517554   -2.5628786312    0.7784449859
 C    1.5700428500   -1.6996755024    0.7956811388
 C    0.7214009174   -0.5015100629    1.2761709251
 C    1.2219202953    0.3759902397    2.3974891651
 H    0.8727457724    2.0387429165   -0.0470107713
 H   -0.6297240224    1.7937151374   -0.9394879757
 H   -0.6850312596    2.0266829752    0.8187657905
 H   -2.0073310234   -0.1176641185    0.7857184095
 H   -1.5609166325   -1.1982936303   -0.5735131790
 H   -0.9562638024   -1.8744268770    2.2473383457
 H    2.3160011543   -2.0610687894    1.5171826941
 H    2.0228460587   -1.5856702351   -0.1943169459
 H    2.0548141880    1.0060320340    2.0640562168
 H    0.4370205755    1.0346273975    2.7812540029
 H    1.5836557837   -0.2383443547    3.2276882074