17

 C    0.0243794032    1.5375140404    0.1194571131
 C    0.0014975608    0.0500328618    0.0009834590
 C    0.0139614622   -0.6952286774   -1.1127747757
 C   -0.0328009683   -2.1834138583   -0.8389029801
 O    0.8446200415   -2.9630823275   -1.6141192963
 C    0.3610828490   -2.1573867586    0.6371161342
 O    1.1073085750   -2.9447387225    1.1660996978
 C   -0.0664011001   -0.8249277090    1.2459802537
 O    0.7717778042   -0.4234684557    2.3015071816
 H    0.8457586714    1.8489668922    0.7731665879
 H    0.1437744585    2.0157539037   -0.8559147081
 H   -0.8998867892    1.9104788336    0.5787574295
 H    0.0331356345   -0.3084310570   -2.1255223819
 H   -1.0609541027   -2.5734687208   -0.9424646768
 H    1.3888577926   -3.4633475869   -0.9900593432
 H   -1.1077575722   -0.8958443607    1.6077306642
 H    1.3314865695   -1.1855734572    2.5078563708