15

 C   -0.0180472666    1.4849367580    0.0729624241
 C   -0.0028182030   -0.0006955961   -0.0559590006
 C   -0.0448593864   -0.8025633266   -1.1708394435
 C   -0.0026571987   -2.1621613123   -0.7106377386
 C    0.0631118636   -2.0983178344    0.6626187193
 N    0.0649583338   -0.8136994790    1.0926107226
 O    0.1095448933   -3.2819314926    1.2617363171
 N    0.0722954783   -4.2502301429    0.2015636469
 C    0.0074472697   -3.5667277856   -0.9214175802
 H    0.8872225260    1.8670810358    0.5613853096
 H   -0.0764482074    1.9394072521   -0.9183626812
 H   -0.8785515084    1.8409011704    0.6533846183
 H   -0.0994047541   -0.4423490588   -2.1861892247
 H    0.1061906560   -0.4886626429    2.0426656668
 H   -0.0290085664   -4.1327730353   -1.8423572661