15

 N    0.1468222268    1.4216948972   -0.0968572243
 C   -0.0220832796    0.0271790858   -0.0374036982
 C   -1.1016355796   -0.7993636791   -0.1024443658
 C   -0.6191138369   -2.1618958435   -0.0834648902
 C   -1.3868808769   -3.3773388338   -0.1218867043
 O   -2.5969553512   -3.4619137915   -0.2001056515
 C    0.7666014093   -2.0786768722    0.0043489223
 O    1.7450262020   -3.0019946199    0.0614397765
 N    1.1245056126   -0.7720753248    0.0305317562
 H   -0.6929964757    1.8664117344   -0.4462380510
 H    0.3605492180    1.8291497166    0.8096820972
 H   -2.1396886978   -0.5115068391   -0.1446675029
 H   -0.7689524847   -4.3136543278   -0.0714054234
 H    1.3466132272   -3.8790815415    0.0359963799
 H    2.0703105165   -0.4300476608   -0.0121281905