20

 C   -0.0214612676    1.5523739937    0.0589543023
 C    0.0321538065    0.0197330692    0.0343127231
 C    0.7787894449   -0.5510936580   -1.2020721497
 C    1.9285567016   -1.3185253352   -0.6154203148
 C    1.9558479270   -1.3270119600    0.7285098615
 C    2.9880943187   -2.0116366396    1.5752063303
 C    0.8040367637   -0.5509295858    1.2249689047
 N    0.3759245075   -0.2979224809    2.4035182936
 O    1.1677320594   -0.8669698446    3.4193956018
 H    0.9875358434    1.9767142524    0.0097400761
 H   -0.5926560945    1.9363854435   -0.7927769182
 H   -0.4900897002    1.9024543287    0.9820419403
 H   -0.9933857471   -0.3621273329    0.0659044461
 H    0.1354981230   -1.1965138725   -1.8139194600
 H    1.1259303285    0.2476366368   -1.8711337945
 H    2.6668404371   -1.8186340264   -1.2347897513
 H    3.7357169752   -2.4998262956    0.9431819818
 H    3.4945231943   -1.3015589757    2.2348626670
 H    2.5325367732   -2.7625424874    2.2265203909
 H    0.7030734956   -0.5822961397    4.2127464892