18

 C    0.1305607659    1.5725784529   -0.1143432893
 C    0.0850781015    0.0633438531    0.0154429969
 O    0.7377654183   -0.5331642608   -1.1216898730
 C    1.1976403284   -1.8051125180   -0.7502849103
 C    2.5689998504   -1.8182292087   -0.1418938864
 C    1.3310289783   -1.8580706368    0.7447264964
 C    0.7800521714   -0.5344698178    1.2758466517
 O    1.7333149008    0.3140169069    1.8925727574
 H    1.1614783337    1.9322966744   -0.0962314609
 H   -0.3366521061    1.8845406415   -1.0521655946
 H   -0.4065282775    2.0396652746    0.7161840063
 H   -0.9628147876   -0.2792055278    0.0257373924
 H    0.8274283091   -2.6272384009   -1.3555200047
 H    3.1607857841   -2.7262034100   -0.1884429449
 H    3.1447542369   -0.9023798575   -0.2401150561
 H    1.1451872495   -2.7654561575    1.3055571069
 H    0.0283734517   -0.7195053670    2.0493562995
 H    2.5661630513    0.2235279495    1.4190153527