23

 C    0.3739396229    1.1026794508    0.5210921450
 O    0.2712637780   -0.2574222096    0.1758465686
 C    0.4859866814   -0.5265709085   -1.2032026039
 C    1.9866931822   -0.5972532827   -1.5577145134
 C    2.4100525325   -2.0772779179   -1.3232724775
 C    1.1180468999   -2.8180182700   -0.9096195085
 C   -0.0234121379   -1.9570754121   -1.4782920569
 C   -1.4046795073   -2.2640544777   -0.9123056762
 O   -0.0356718075   -2.0366166768   -2.9115384506
 H    1.3787338419    1.5112214345    0.3364167084
 H   -0.3514556525    1.7173099693   -0.0348754958
 H    0.1590263549    1.1826730645    1.5898270008
 H   -0.0613089313    0.2020196028   -1.8176036131
 H    2.1315850641   -0.3134102899   -2.6023537875
 H    2.5620093558    0.1037079593   -0.9473022873
 H    2.8204847157   -2.5013463146   -2.2427760360
 H    3.1846188739   -2.1680140283   -0.5576386513
 H    1.0726955553   -3.8489403297   -1.2783547217
 H    1.0239671851   -2.8544473007    0.1802003331
 H   -1.4343568269   -2.0888627201    0.1645001892
 H   -2.1582243579   -1.6318443043   -1.3917489946
 H   -1.6718287654   -3.3109660878   -1.1009569186
 H   -0.2297744070   -2.9492979402   -3.1488083622