15

 O    0.5865520840    0.5491387752   -0.8210823165
 C   -0.1218364871    0.2748424067    0.3641406890
 C   -1.4765476033   -0.3372397530    0.1189040274
 C   -1.9538846785   -0.7655118399   -1.0691951129
 C   -3.2798311316   -1.3068574587   -1.0534471304
 N   -4.0126138451   -1.4134141449    0.0088702936
 C   -3.4922729909   -0.9868271276    1.2231235495
 N   -4.0561974895   -1.0398138901    2.3529481593
 O   -2.2008668945   -0.4214011241    1.2402208593
 H    0.1687972294    1.3009947919   -1.2538721796
 H    0.4831277829   -0.4362204840    0.9394685829
 H   -0.2530431903    1.1601185379    1.0039525569
 H   -1.3523069791   -0.7082971940   -1.9633924136
 H   -3.7218206093   -1.6574278400   -1.9864426311
 H   -4.9774801073   -1.4554298954    2.2266387161