21

 C    0.9972986642   -0.5151915391    0.3690570529
 N   -0.0673721487   -0.2652971114   -0.5952550418
 C    0.1648004779   -0.9114030431   -1.8787992594
 C    1.3099875566   -0.3211960774   -2.5862299937
 N    2.2154730762    0.1294332352   -3.1443073815
 C   -1.4079402886   -0.4765721899   -0.0856986898
 C   -1.8048362214   -1.8919092048    0.3092640794
 C   -1.9597301613    0.6725357562    0.7189391279
 C   -2.4619993346    0.4232253183   -0.6845075346
 H    1.9466826798   -0.1468847583   -0.0307635653
 H    0.7795501737    0.0297641916    1.2906127558
 H    1.1272039875   -1.5827935513    0.6193106806
 H    0.3472574903   -1.9999836160   -1.8061570473
 H   -0.7251624821   -0.7785542010   -2.5027704843
 H   -1.1577506386   -2.2851815968    1.1005495361
 H   -2.8323598515   -1.9145158037    0.6828393075
 H   -1.7517357244   -2.5806594293   -0.5418382814
 H   -2.6150120206    0.4443608605    1.5524095757
 H   -1.3139284479    1.5301753485    0.8652787905
 H   -2.1442602811    1.1209707144   -1.4506308755
 H   -3.4620609955    0.0241350873   -0.8146424418