20

 C   -0.6011094306    1.3251072543    0.1700967331
 C   -0.0910312455   -0.0976873146   -0.0358068739
 C    1.2146261418   -0.1589700206   -0.8958709134
 O    2.0134060382   -0.3777103620    0.2834085392
 C    0.8444501136   -0.5816193878    1.0973829608
 N   -1.1724520999   -1.0249677283   -0.3273577892
 C   -1.9220872010   -0.7826507145   -1.5540486850
 C   -3.1190034381    0.1340668907   -1.3316183635
 O   -3.5736206290    0.8704774930   -2.1667562462
 H    0.2245766686    1.9774994647    0.4679777856
 H   -1.0326973018    1.7411290121   -0.7459640500
 H   -1.3645886086    1.3495455683    0.9537265245
 H    1.2524586510   -1.0161362197   -1.5843747974
 H    1.5150795267    0.7481864614   -1.4325608862
 H    0.8635791164    0.0166876474    2.0152645098
 H    0.7039583096   -1.6396926094    1.3644181504
 H   -0.8094211711   -1.9703926295   -0.3278715390
 H   -1.3308908799   -0.3895124039   -2.3956814290
 H   -2.3481163534   -1.7389568876   -1.8875582717
 H   -3.5601935870    0.0422614759   -0.3132884090