18

 C   -0.0241410766    1.4404614912    0.0395102216
 C    1.4968571993    1.4664456420   -0.0264091764
 C    1.9730237166    0.4522844027    1.0837200778
 C    0.6821343040   -0.3434791415    1.3468792130
 C    1.2190885199   -1.7971849910    1.5479040204
 C    2.1314170435   -1.8535748082    0.3282901666
 C    2.3951426695   -0.5751197580   -0.0109825961
 C    1.4339601557    0.1868590363   -0.8844542780
 N    0.0563572766   -0.0717581030   -0.0264921623
 H   -0.5416481163    1.8367611807    0.9189990536
 H   -0.5015772740    1.8232207415   -0.8672126967
 H    2.1176223615    2.3330410995   -0.2554118809
 H    2.6367538379    0.7400935957    1.8979849897
 H   -0.0195043850   -0.0119707953    2.1184553931
 H    1.6880911469   -1.8903303058    2.5371452484
 H    0.4511980203   -2.5735566430    1.4728900232
 H    2.0677439931   -2.6673460718   -0.3878342500
 H    1.2480025171    0.1076732680   -1.9534162471