19

 C   -0.0736238167    1.5433817114    0.0792066890
 C    0.0144877381    0.0187179058   -0.0032798261
 C    0.7203677145   -0.5008594797   -1.2778973603
 C    0.8803381153   -2.0350419461   -1.2625393678
 C    1.6545290924   -2.5880449412   -2.4535302226
 O    1.7835502127   -3.9862548360   -2.2551079644
 C    0.0016132110   -0.0614340852   -2.4808962187
 N   -0.5750412609    0.2792274303   -3.4235333916
 H    0.9221903757    1.9999854839    0.0683350533
 H   -0.6405444299    1.9551633101   -0.7611176363
 H   -0.5708875258    1.8513393918    1.0033626068
 H    0.5707303647   -0.3726493410    0.8559967331
 H   -0.9882978309   -0.4208165301    0.0452103713
 H    1.7195715818   -0.0452677013   -1.3250925210
 H    1.4060499209   -2.3149173469   -0.3433732134
 H   -0.1057327119   -2.5102853430   -1.2267133651
 H    1.1185429217   -2.3604173439   -3.3866236341
 H    2.6418586531   -2.0995687401   -2.5142776633
 H    2.1832350043   -4.3667314087   -3.0424520389