18

 O   -0.1069544820    1.4071770437    0.0216480275
 C    0.0576739230    0.0254072391   -0.0180946498
 C    1.1559000155   -0.7116432482    0.7487630519
 N    1.1570592649   -1.7753470943   -0.3200961933
 C    0.1769265946   -2.8138889710    0.0503049738
 C   -1.1810042945   -2.1852016444   -0.2183622949
 C   -1.0577438947   -1.2835926436   -1.4100094631
 C   -1.3191122637   -0.6826089767   -0.0297213097
 C    0.4097744857   -0.8288224524   -1.2747617219
 H    0.7545809213    1.8159998993   -0.1169354378
 H    2.1140581067   -0.1756385231    0.7494066878
 H    0.9465667346   -1.0683085083    1.7629541314
 H    0.3087514655   -3.7009981270   -0.5819826913
 H    0.3399991399   -3.1186238132    1.0889132693
 H   -2.0910342671   -2.7647459761   -0.0986159574
 H   -1.6702511185   -1.3135756967   -2.3010601301
 H   -2.2215200301   -0.2337971523    0.3668254952
 H    0.9881485291   -0.4890432946   -2.1323568275