19

 C    0.0278308708    1.5295579383    0.1184684160
 C    0.0084445256    0.0327841292    0.0106031500
 C    1.2116405300   -0.8139197991   -0.3758077861
 C    0.6142598545   -1.0055333025    0.9854411307
 O    1.3792935843   -0.7914283362    2.1134238679
 C   -0.6618189179   -1.8087370398    0.9002928922
 O   -1.7658096977   -0.9547054955    1.2807346479
 C   -1.2376038996   -0.8417179840   -0.0560780427
 C   -2.1717751749   -1.0448012282   -1.2063421978
 H    0.9779964280    1.8739735303    0.5403176570
 H   -0.0965317675    2.0152391092   -0.8563691557
 H   -0.7767885020    1.8778170699    0.7749404431
 H    1.1412190753   -1.5868500273   -1.1372693011
 H    2.1593743053   -0.2829463136   -0.3691382535
 H    0.7855777484   -0.4940273692    2.8133204249
 H   -0.8194460571   -2.8785336350    0.9845220395
 H   -2.7845485541   -0.1513729110   -1.3702362962
 H   -1.6117046727   -1.2390269774   -2.1268085654
 H   -2.8431533585   -1.8857939783   -1.0160070207