17

 C   -0.1502452532    1.3883085132    0.0844736908
 C    1.4183057005    1.2908666499    0.0420116916
 O    1.9549771479    0.5482882729    1.1462266587
 C    2.3687772838   -0.7435585771    0.7442483424
 C    1.3166238994   -1.7695488286    0.2530347963
 C   -0.0374547958   -1.1619501923    0.2704372281
 C   -0.0407389233   -0.0322535423   -0.4537212317
 C    1.3225458668    0.2228813389   -1.1008647981
 C    2.1906429733   -0.9493116241   -0.7178219858
 H   -0.6185142097    1.5357929997    1.0580630331
 H   -0.4999575702    2.1391980670   -0.6321610198
 H    1.9810154269    2.2223584704   -0.0957755222
 H    3.2324655785   -1.0957814722    1.2959861182
 H    1.5161965235   -2.8188174198    0.4447283908
 H   -0.7482282304   -1.3838628586    1.0594793167
 H    1.3475830690    0.5986280561   -2.1230728357
 H    2.9332972129   -1.3880454231   -1.3696300534