19

 C    0.5107370934    1.6062921716   -0.3014420256
 C    0.0464210340    0.1712379435   -0.1221060582
 C    0.7981481972   -0.9487559251   -0.9045002678
 C    1.0739736739   -1.6046660181    0.4621612306
 C    2.4090573457   -1.1990161952    1.1644247337
 C    1.5529982377   -0.1275935267    1.9221944426
 N    0.3151325874   -0.5235925263    1.1956836655
 C    3.0574558219   -2.2105909258    1.9792093779
 N    3.5552571344   -3.0218061443    2.6362601363
 H    1.5999785559    1.7080882878   -0.2557568377
 H    0.1910507941    1.9722388535   -1.2826955968
 H    0.0715655029    2.2618171993    0.4582576850
 H   -1.0335902054    0.1317377217   -0.2980649861
 H    0.1776440452   -1.5397769727   -1.5808404458
 H    1.6897012012   -0.6216954700   -1.4483735966
 H    0.7568356470   -2.6392263095    0.6105012893
 H    3.1425067713   -0.7748133364    0.4729969354
 H    1.4615987893   -0.3311827611    2.9919726870
 H    1.8765800129    0.9072339738    1.7910465811