21

 O    0.0433376590    1.4785895378   -0.1010654146
 C    0.0709142662    0.0770110750    0.1309406622
 C   -1.3187985269   -0.5401929724    0.0517987144
 C   -2.0238758344   -0.5579897260   -1.3225377571
 C   -1.3377828161   -1.4846519246   -2.2943931804
 C   -2.2146757988   -2.0751366716   -1.2267212103
 C   -1.4849573567   -2.0796457360    0.1027324907
 C   -0.5285089031   -3.1201993467    0.6181040126
 C   -1.8559002205   -2.8867588409    1.3075498511
 H   -0.3094024198    1.6114561856   -0.9872947799
 H    0.7570956316   -0.4282314723   -0.5661050623
 H    0.4861666774   -0.0502797654    1.1372370773
 H   -1.9593210020   -0.0581517003    0.7978559736
 H   -2.7433147919    0.1797743314   -1.6566398631
 H   -1.7570133893   -1.4851719233   -3.2957966208
 H   -0.2623473124   -1.6390778127   -2.2647734483
 H   -3.0974497271   -2.6600438993   -1.4574233403
 H   -0.4036207260   -4.0300731463    0.0395939936
 H    0.3713436740   -2.7914061530    1.1279793913
 H   -1.8510193119   -2.3963051710    2.2762161844
 H   -2.6275310813   -3.6424083679    1.1969408758