16

 C   -0.0538698579    1.5670090953    0.0348306449
 C    0.0850799686    0.0628982969    0.0410415301
 C    1.3665150414   -0.6677770512   -0.2186175126
 O    2.5672015035    0.0582304989   -0.0087303060
 C    2.5761681385    0.3775175688    1.3202260859
 C    3.7625274477    1.1721608360    1.7532448036
 O    3.9350813173    1.5621068874    2.8769435031
 N    1.6213678504   -0.0516288287    2.0508177147
 C    0.7200002358   -0.7414309733    1.1743231209
 H    0.7730199372    2.0631885891    0.5464963120
 H   -0.0873226781    1.9450800128   -0.9919212490
 H   -0.9778017043    1.8656645446    0.5388928963
 H   -0.7653065384   -0.4669492100   -0.3818890078
 H    1.4764512778   -1.4607908102   -0.9472706294
 H    4.4816936360    1.3644801288    0.9309796218
 H    0.1988351943   -1.5954720051    1.5888432514