14

 O   -0.2296588067    0.1067990865   -0.5169590416
 C   -0.0318834124    1.1800756055   -0.0152518000
 C    1.2721347495    1.9352871652   -0.0879590732
 O    2.4060087199    1.1757949308   -0.5255948676
 C    2.6814241477    2.0873927266   -1.6103656317
 C    1.4139904234    2.9274205486   -1.2945025852
 N    0.8640169725    2.4755893115   -2.5622731583
 C    1.9368318108    1.6574844577   -2.9096386882
 O    2.1318369997    0.9198210036   -3.8286766432
 H   -0.8331293580    1.7373465825    0.5255432699
 H    1.4715956474    2.4311030868    0.8730105783
 H    3.7120066081    2.4390347197   -1.6430459794
 H    1.3798770980    3.9978510781   -1.1023469477
 H   -0.0965822397    2.4274071470   -2.8747138721