20

 C   -0.0848510928    1.4296989534   -0.1771114449
 N    0.0283446495   -0.0047848420    0.0227049088
 C   -1.2195803512   -0.6879833460    0.3179573705
 C   -1.1157048393   -2.1714112422    0.5265846341
 C   -2.4125550470   -2.8679460541    0.8315623151
 C    0.0548165258   -2.7973394550    0.4413056006
 C    1.3405279491   -2.0977844122    0.1376631289
 C    1.2612115264   -0.5927562815   -0.0781451936
 O    2.2730579860    0.0415525546   -0.3300275516
 H    0.9078083038    1.8222303025   -0.3896436001
 H   -0.7566330020    1.6518020644   -1.0162073804
 H   -0.4887739344    1.9149097595    0.7207320255
 H   -1.6735363218   -0.2282469534    1.2130184425
 H   -1.9363996878   -0.4871954878   -0.4971667720
 H   -3.1415074460   -2.7286361832    0.0228446463
 H   -2.2614392762   -3.9410465923    0.9704486665
 H   -2.8766502078   -2.4687585634    1.7426459350
 H    0.1033849104   -3.8730597374    0.5966992125
 H    2.0763633679   -2.2572062039    0.9370384848
 H    1.8154144377   -2.5144032900   -0.7605396483