20

 C    0.1276904578    1.6199629493    0.1098772970
 C    0.1101264065    0.0896625626    0.0398035068
 C    0.7112420869   -0.4915946788   -1.2614366025
 C   -0.0891810828   -0.1022670719   -2.5061698030
 O    2.0649650898   -0.0382249810   -1.2770209864
 C    2.8333818003   -0.3909305438   -2.4110956788
 C    0.7304596539   -2.0133504659   -1.0697070386
 O   -0.0557432688   -2.7883222513   -1.5470723501
 H    1.1403160025    1.9993352461   -0.0430240673
 H   -0.5249198593    2.0697326057   -0.6441358670
 H   -0.2221247543    1.9556839167    1.0906396887
 H    0.6858688246   -0.3143549884    0.8814024257
 H   -0.9131303387   -0.2886600207    0.1418632643
 H   -0.0482325553    0.9769054045   -2.6702725142
 H    0.2863474965   -0.6068487730   -3.3994095968
 H   -1.1312463065   -0.4046578712   -2.3821590266
 H    2.7935943624   -1.4688168264   -2.6283618736
 H    2.5219925420    0.1533757084   -3.3122176003
 H    3.8674046154   -0.1225826489   -2.1815373248
 H    1.5576683972   -2.3471555121   -0.4002435725