15

 O   -0.1425867496    1.4235720775   -0.1930399992
 C   -0.0000834989    0.0241940434    0.0137237110
 C   -1.3754104477   -0.5673979805    0.0095755884
 N   -1.6843554943   -1.8357462177   -0.0330059051
 C   -3.0665920063   -1.8757969926    0.0132030696
 C   -3.8645101901   -3.1005102148   -0.0108680797
 O   -3.4359390762   -4.2287987414   -0.0697087002
 C   -3.5766732924   -0.5937683752    0.0803731526
 N   -2.4885973369    0.2293776577    0.0818000803
 H    0.7124573909    1.8407922418   -0.0592373779
 H    0.5978436397   -0.4543698751   -0.7739140970
 H    0.4895824731   -0.1925027147    0.9750418053
 H   -4.9616754208   -2.9019604799    0.0321251884
 H   -4.5863601943   -0.2189252580    0.1201885088
 H   -2.4630609761    1.2363597695    0.0971340648