19

 C   -0.0201310422    1.5942795192   -0.0487887352
 C    0.0179824176    0.0634732011   -0.0374363238
 C    0.7784493520   -0.4905030054   -1.2628128140
 O    1.0004062862   -1.8842545313   -1.1619691258
 C    1.8586438357   -2.2306521806   -0.0922195843
 C    1.5412996062   -1.4967161954    1.1792660264
 C    0.7003157469   -0.4649391860    1.2101216960
 C   -1.4012221343   -0.5135241721   -0.0371148547
 O   -2.3987098561    0.1157531119    0.2066883927
 H    0.9889105621    2.0073453477    0.0401501746
 H   -0.4697834143    1.9672925962   -0.9744555559
 H   -0.6269401649    1.9657099839    0.7800597635
 H    0.2061425583   -0.3394617975   -2.1837045914
 H    1.7315529166    0.0535932863   -1.3617424900
 H    1.7487021520   -3.3120965663    0.0486912667
 H    2.9137154631   -2.0522849360   -0.3703834467
 H    2.0500349700   -1.8343680191    2.0782783305
 H    0.4690149418    0.0424780561    2.1430582107
 H   -1.4376226865   -1.5994843926   -0.2671264192