16

 C    0.0308334162    1.4553607192   -0.0206025156
 N    0.0277137794    0.0132470279    0.1340540748
 C   -1.1889368124   -0.6705288202    0.0487730752
 C   -2.4078296738   -0.0734776059    0.0386449991
 O   -3.5709657450   -0.7693421848    0.0356876244
 C   -3.6273033761   -2.1599539163    0.0028450906
 O   -4.7090262702   -2.6883684139   -0.0151552203
 C   -2.3305048478   -2.8150116600   -0.0019481641
 C   -1.1796955800   -2.1086395092    0.0279768891
 H    1.0618431780    1.8138123661    0.0028011918
 H   -0.4412520250    1.7989224985   -0.9558202644
 H   -0.5038320110    1.9195568027    0.8157494507
 H    0.7638172183   -0.4428324880   -0.3865508774
 H   -2.5823759764    0.9930138504    0.0500826262
 H   -2.3469186281   -3.8971797314   -0.0221189673
 H   -0.2205928059   -2.6205217950    0.0422349173