12

 O   -0.0018776239   -0.0435100196   -0.0006213435
 C    0.0023926517    1.1613716541    0.0087425615
 C    1.2151716107    1.9940379410    0.0024203815
 C    1.3708870784    3.3477854382    0.0117098824
 C    2.7844263729    3.5251953966   -0.0024419784
 N    3.4072845259    2.3539487842   -0.0179958902
 O    2.4240617289    1.3978448258   -0.0151693328
 C    3.5087647557    4.7428494961   -0.0004956856
 C    4.0908580852    5.7944018259    0.0016860458
 H   -0.9314496068    1.7614388546    0.0237195950
 H    0.6090104141    4.1088855300    0.0260600412
 H    4.6177029471    6.7170020032    0.0034259530