21

 O    0.0014685434    1.3835321697    0.0665943434
 C   -0.0084289863   -0.0290553338   -0.0170653964
 C   -1.4200637822   -0.5806683286   -0.0852722212
 C   -2.3140921282   -0.0438058099   -1.2307426841
 C   -3.7329836387   -0.1608349503   -0.6008536179
 C   -3.3922573779   -0.7570368523    0.7826859927
 C   -2.9952054497   -2.2431439853    0.6374753766
 C   -1.5746689975   -2.1161965690    0.0064189170
 O   -2.1363632210   -0.1348415137    1.0905536451
 H   -0.6117896411    1.6078617945    0.7768892278
 H    0.5452859619   -0.3004872582   -0.9222300541
 H    0.5090226293   -0.4849421399    0.8420987832
 H   -2.0481142772    0.9924446205   -1.4457396864
 H   -2.2011308438   -0.6249604834   -2.1494516064
 H   -4.2026515126    0.8197120936   -0.4915876381
 H   -4.4126426040   -0.7966403680   -1.1741951897
 H   -4.1111606246   -0.5432822429    1.5741755667
 H   -2.9511057922   -2.7260113214    1.6164025722
 H   -3.6956764505   -2.8063671877    0.0155273995
 H   -1.4926439865   -2.6017735455   -0.9690108147
 H   -0.8091972308   -2.5426593283    0.6608035149