17

 C    0.0243029999    1.4887473406   -0.0075160122
 C   -0.0219953377   -0.0462403145   -0.0041540120
 C    0.7957731956   -0.6739792481   -1.1665481773
 O    1.7770265404   -1.5095570017   -0.4976178729
 C    1.5501517335   -1.3497397207    0.8187728318
 N    0.6183780656   -0.5849764448    1.2173895901
 C   -1.5032274504   -0.4753881877   -0.0874179507
 N   -2.0748823310   -0.7441600384    1.1105636029
 O   -2.0877286334   -0.5076308359   -1.1548908446
 H    1.0623868033    1.8333355537    0.0144464683
 H   -0.4613396541    1.8747971375   -0.9083006992
 H   -0.4910596662    1.8893606620    0.8691002116
 H    0.1856041090   -1.2929104904   -1.8253284496
 H    1.3362877607    0.0685428055   -1.7588213732
 H    2.2131932107   -1.9174527111    1.4628408115
 H   -1.4882150098   -0.8261750943    1.9258237938
 H   -3.0306528461   -1.0590786415    1.1317616916