18

 O   -0.3064690917    1.5170375162   -0.3820851628
 C   -0.0511871118    0.1576908093   -0.0392291351
 C   -1.4206737416   -0.5095754602    0.0959980288
 C   -1.3786801704   -1.9382472969    0.6356332717
 O   -0.9029323032   -2.8922527772   -0.2940259398
 C    0.5003111176   -2.9440308143   -0.4525368041
 C    1.1299517355   -1.7901109731   -1.2025687967
 C    0.8807885781   -0.4918947211   -1.0411618519
 H    0.5360234228    1.9809915174   -0.4155090712
 H    0.4367755101    0.1140951529    0.9533546792
 H   -2.0174775176    0.1072935276    0.7778651165
 H   -1.9222496164   -0.5052582037   -0.8771046279
 H   -0.7821294980   -1.9806997394    1.5640662307
 H   -2.3951249326   -2.2573973261    0.8874238921
 H    0.9859070523   -3.0514249595    0.5355582913
 H    0.6929365380   -3.8718486081   -0.9999480952
 H    1.8781759512   -2.0776244730   -1.9381733633
 H    1.4219761276    0.2168145893   -1.6667332924