14

 C    0.0740455521    1.4786009578   -0.0277798153
 O    0.0431508242    0.0550895705    0.0238627014
 C    0.5903684420   -0.5859764805   -1.0187986611
 C    0.6712050514   -1.9378745196   -1.1789731636
 N    0.2634085605   -3.0135609804   -0.4094917802
 O    1.3170032974   -2.1327825939   -2.4064278208
 C    1.5611800411   -0.9007840240   -2.8651802289
 N    1.1593065921    0.0644788618   -2.0961719388
 H    1.1016990802    1.8535838475   -0.0702470826
 H   -0.4710789156    1.8576807312   -0.8981965463
 H   -0.4085078067    1.8162890352    0.8905494671
 H   -0.4329657619   -3.5965101237   -0.8610707368
 H    1.0276170334   -3.5996144880   -0.0913330841
 H    2.0625005697   -0.8158788540   -3.8172928202