24

 C   -0.0545074725    1.5492404341   -0.0021547186
 C    0.0792900325    0.0189280499    0.0076006844
 C    0.6949542392   -0.5142861343   -1.2948517484
 N    0.7854928265   -0.4770980344    1.2088646140
 C    2.0840963395   -0.1373732918    1.4200275954
 O    2.7724177482   -0.4794839331    2.3654279718
 C    0.0740841928   -1.3426723837    2.1779428010
 C    0.6998153243   -2.7422964619    2.2654055764
 C   -0.0488837358   -0.6796812634    3.5575677061
 H    0.9180703252    2.0386929836   -0.1120801118
 H   -0.6827687085    1.8680137682   -0.8401108749
 H   -0.5105870145    1.9059577550    0.9254272881
 H   -0.9306070225   -0.3946508397    0.0822099006
 H    1.6997808953   -0.1134951205   -1.4598134835
 H    0.7643200716   -1.6053737809   -1.2745146505
 H    0.0774263322   -0.2239921585   -2.1509216988
 H    2.4858989398    0.5111080956    0.6181751627
 H   -0.9359624225   -1.4536319092    1.7698619263
 H    1.7110384062   -2.6844608257    2.6703029028
 H    0.0939060195   -3.3791646898    2.9179801293
 H    0.7440852580   -3.2124011039    1.2780770605
 H   -0.5312466008    0.2995423744    3.4785156653
 H   -0.6581460043   -1.3061668668    4.2170069743
 H    0.9359465408   -0.5486756331    4.0078673273