16

 C   -0.0940702460    1.4152730425    0.0468392818
 C    1.3470000460    0.8723526467    0.0081692945
 C    2.0343699297    0.5260804765    1.2891708845
 C    1.4473904748   -0.4952700726    1.9225827432
 C    0.2055826433   -0.9590520697    1.1905179723
 N    0.2110583432   -2.3128998393    0.5856705983
 C   -0.0265492815   -2.1289213439   -0.6464780753
 O   -0.1804743301   -0.8634791724   -1.1396951556
 C    0.1507394118   -0.0414543439   -0.0321740536
 H   -0.4899615131    1.8304445554    0.9694492461
 H   -0.4223531178    1.9138044753   -0.8595268197
 H    1.9239576356    1.1012152791   -0.8808927273
 H    2.9124247000    1.0545850944    1.6431585145
 H    1.7509439691   -0.9146617155    2.8738109359
 H   -0.6718573778   -0.8927831812    1.8490424289
 H   -0.1401641671   -2.9080478614   -1.3915320286