19

 C   -0.0177547078    1.5650175663   -0.0527781906
 C   -0.0019976025    0.0359403157    0.0175857036
 C   -1.4059474128   -0.5755662927   -0.0025882844
 C   -1.4085225542   -2.1071112588    0.0423091526
 C   -2.8317423636   -2.7321510267    0.0497758355
 O   -2.8448802307   -3.6125494923   -1.1012865363
 C   -1.6291017588   -3.4597156242   -1.6773757930
 N   -0.7695377554   -2.6884325643   -1.1597083380
 H    0.9970247457    1.9744572849   -0.0342274172
 H   -0.4995847822    1.9141962461   -0.9729492847
 H   -0.5666797767    1.9985860692    0.7911258006
 H    0.5720966119   -0.3745548278   -0.8193831100
 H    0.5166470267   -0.2845196984    0.9311334224
 H   -1.9863816348   -0.2013951473    0.8525893460
 H   -1.9399618589   -0.2531564386   -0.9068940303
 H   -0.8356788542   -2.4327839175    0.9199276263
 H   -3.0477211187   -3.3311146207    0.9377832381
 H   -3.6248980877   -1.9888510115   -0.0819306190
 H   -1.4891519053   -4.0449047812   -2.5799426417