18

 O   -0.1213553905    1.4092519674   -0.2275982718
 C    0.0092466095    0.0437901339    0.1444917314
 C   -1.3711402376   -0.5757947908    0.0396297545
 C   -2.0236636867   -0.7115748267   -1.3618097038
 C   -1.1803354605   -1.9815807198   -1.5989803590
 C   -1.4651910848   -2.1484639818   -0.0619128117
 C   -2.9676489345   -2.2707313811   -0.1213181590
 N   -3.7366502458   -3.0647967991    0.4805695090
 O   -3.3252948421   -1.2791447072   -1.0163566537
 H    0.7199437431    1.8481803835   -0.0707473051
 H    0.7414954774   -0.4720300094   -0.4931551799
 H    0.3604113523   -0.0569509924    1.1834151009
 H   -2.0291219946   -0.1119922304    0.7798373806
 H   -2.1532859504    0.1049705780   -2.0667067632
 H   -1.5967433796   -2.7295192223   -2.2763477560
 H   -0.1341329175   -1.7913472796   -1.8325103033
 H   -0.9358759942   -2.8380123679    0.5899695814
 H   -4.7092952936   -2.8864315542    0.2215253589