20

 C    0.0531248774    1.5450978973    0.0546628399
 C   -0.0762053371    0.0224977312   -0.0694522575
 C    0.7280993906   -0.5522511681   -1.2064807767
 C    2.2763893529   -0.4679098178   -1.3492606699
 C    1.9890915197   -1.5267594082   -2.4576684113
 C    0.8724330879   -2.0687112309   -1.5130707262
 C    1.1400530666   -0.6836555802   -3.4158597531
 O    0.2695322049   -0.0224957373   -2.4736656594
 H    1.0880789168    1.8393296377    0.2590780603
 H   -0.2572188243    2.0328747555   -0.8725762908
 H   -0.5687126909    1.9250600993    0.8705951190
 H    0.2441828896   -0.4632069999    0.8598830157
 H   -1.1275450706   -0.2510857465   -0.2224805110
 H    2.7025290038    0.4932761513   -1.6477538348
 H    2.8112429531   -0.8845407721   -0.4936942771
 H    2.7633162310   -2.1613331413   -2.8870091038
 H    1.2685489509   -2.6430890648   -0.6735381807
 H    0.0099104806   -2.5703672253   -1.9599615691
 H    1.7212104577    0.0565802559   -3.9793930370
 H    0.5494616293   -1.2827381059   -4.1196804065