16

 C   -0.0756641446    1.3696949553   -0.0455088183
 C    1.3410188796    0.8095791006    0.0187009000
 C    1.8678943852    0.5079774633    1.4459707170
 N    1.0280081730   -0.5595463427    2.0474880478
 C    0.1876572653   -0.8608391239    1.1508137785
 O   -0.6533105678   -1.9107659438    1.0520358268
 C   -1.1700267712   -1.8609766338   -0.2974835197
 O   -0.3271601850   -1.0155722950   -1.0666371997
 C    0.1607241178   -0.1074424183   -0.1163719716
 H   -0.5289897043    1.8098566309    0.8389344754
 H   -0.3421861817    1.8437335973   -0.9850726354
 H    2.0309988845    1.0506559181   -0.7801791513
 H    2.9024539175    0.1472047641    1.4200302176
 H    1.8569215389    1.4067175874    2.0738022387
 H   -1.1451361296   -2.8676096696   -0.7186343621
 H   -2.1968022176   -1.4709965500   -0.2589713236