19

 C   -0.3145689470    1.3163721965   -0.0506013599
 O    0.1605196808   -0.0146746601    0.0959012191
 C    0.7749171844   -0.4955016980   -1.0377421311
 C    0.0032440783   -1.0040006233   -2.2206048542
 C    0.8954557697   -1.9618658190   -1.4574269543
 C    2.3455541251   -1.7487977062   -1.8594861282
 O    2.5861234505   -1.9047303424   -3.2508162655
 C    2.2470293054   -0.2454781931   -1.3946667099
 O    2.5860127187    0.7175805933   -2.3577546522
 H    0.5014594672    2.0126605055   -0.2843543905
 H   -1.0697048658    1.3844901383   -0.8458197901
 H   -0.7670406270    1.5984215429    0.9025543046
 H   -1.0545864251   -1.1427844792   -2.0222211963
 H    0.2389055180   -0.7177843368   -3.2403566648
 H    0.4996224609   -2.8451957455   -0.9734485045
 H    3.0531590466   -2.3395441052   -1.2686587000
 H    3.5383573002   -1.8775147386   -3.3916928338
 H    2.8331852227   -0.0490983042   -0.4915983337
 H    2.4643166363    0.2844351550   -3.2136986845