20

 C   -0.0474503801    1.5665175066    0.0762684320
 C   -0.0027157310    0.0363523786    0.0992924338
 C   -1.3880873045   -0.5957113702   -0.0758494088
 C   -1.3802387744   -2.1199832013   -0.0799961129
 O   -0.5594594484   -2.5374856208   -1.1442277244
 C   -1.1585630794   -2.7792988810    1.3102936554
 O   -2.5599614178   -3.0937780703    1.4183234088
 C   -2.7891487569   -2.7602597433    0.0353768499
 H    0.9513287990    1.9957294019    0.2024185257
 H   -0.4502914963    1.9358223881   -0.8734319700
 H   -0.6824974388    1.9596067297    0.8783235435
 H    0.6560462894   -0.3322204540   -0.6931443164
 H    0.4372567008   -0.3010013011    1.0470617979
 H   -2.0605377604   -0.2598000657    0.7233176027
 H   -1.8286089940   -0.2581710196   -1.0232176314
 H   -0.5266429620   -3.4999355312   -1.1476539464
 H   -0.5317749485   -3.6834781883    1.2660826143
 H   -0.8109835166   -2.1439923980    2.1324113598
 H   -3.6585367166   -2.1064257561   -0.0981160801
 H   -2.9107045536   -3.6551578338   -0.5941700733