10

 O    0.1915110310    0.0895763010   -0.1024184227
 C    0.3298198467    1.2666031621   -0.2313845612
 O    0.6102673929    2.0810966678    0.8095646285
 C    0.7925633933    3.4741771913    0.5035420005
 C    2.1456416215    3.7742013403    0.0543513572
 C    3.2596081305    4.0165282825   -0.3229218865
 H    0.2341291402    1.8099162032   -1.1914913060
 H    0.0590812229    3.7930797123   -0.2484706909
 H    0.5643015960    4.0034864567    1.4320953841
 H    4.2461828949    4.2315917328   -0.6534817430