17

 O    0.0815036538    1.2384149131   -0.4584625079
 C    0.0267951089   -0.1616869846   -0.2279392350
 C   -1.4045847704   -0.5175131409    0.1361230627
 C   -2.4000080486   -0.4297414256   -1.0566996119
 C   -2.2700077710   -1.9660064226   -1.2570666234
 C   -1.6864330247   -2.0547447674    0.1761968672
 O   -0.6532259723   -2.9662731241    0.4684789268
 H    0.9911580310    1.4747226985   -0.6620964679
 H    0.3448503922   -0.7157117279   -1.1294092222
 H    0.6972002675   -0.4628040611    0.5915007498
 H   -1.6789370961    0.0414887373    1.0350194582
 H   -3.4027238123   -0.1374975270   -0.7365144752
 H   -2.0991185979    0.2131373848   -1.8855640013
 H   -3.1705249696   -2.5439504987   -1.4767263675
 H   -1.5122174194   -2.2140945047   -2.0087871263
 H   -2.4744162356   -2.2689603079    0.9041261821
 H   -0.0127994257   -2.9359029212   -0.2493108681