13

 C   -0.0303132779    1.3390481836    0.0396536044
 O    0.0118596948   -0.0950393637   -0.0145785566
 C    0.6141514161   -0.6205221421   -1.0692805630
 N    1.1570535940    0.0805644127   -2.0359661946
 O    1.6717891680   -0.8716567235   -2.9304982945
 C    1.4207058752   -2.0924758296   -2.4713563326
 C    0.7480667764   -2.0361046800   -1.2864251137
 C    0.2929923083   -3.0947507561   -0.4700313932
 N   -0.0824163611   -3.9580537027    0.2033415333
 H    0.9829140427    1.7500992950    0.0542532115
 H   -0.5672407448    1.7377764198   -0.8255202282
 H   -0.5559576847    1.5807503816    0.9624789237
 H    1.7675618031   -2.9194195748   -3.0716679765