23

 C   -0.0390040629    1.4683307544    0.1552068076
 C   -0.0363855513   -0.0553548689   -0.0066930331
 C    0.7068100133   -0.5490359298   -1.2504803047
 C    2.2265218078   -0.2330983378   -1.2763937799
 C    2.8578616963   -1.3119568934   -2.1548600768
 C    3.1369227604   -2.6513974401   -1.5103475700
 O    3.0474379154   -2.8161465310   -0.1244002643
 C    1.8594297362   -2.4600296347   -2.2731995604
 C    0.6156685092   -2.0817321299   -1.4696121489
 H    0.9772102777    1.8636613025    0.2565520547
 H   -0.4980577722    1.9572952522   -0.7117605871
 H   -0.6015346487    1.7725307653    1.0435955578
 H    0.4143596196   -0.5211790949    0.8803643837
 H   -1.0728856912   -0.4154647703   -0.0446513361
 H    0.2630998196   -0.0658006969   -2.1330711605
 H    2.4326769227    0.7654371665   -1.6706452886
 H    2.6333768899   -0.2660347803   -0.2571651060
 H    3.4772744690   -1.0125299140   -2.9935027760
 H    3.8986554373   -3.2708546593   -1.9847023187
 H    3.8137846059   -2.3927130761    0.2766748909
 H    1.7385667553   -3.0082477417   -3.2008431494
 H    0.6040443204   -2.6040254771   -0.5070374274
 H   -0.2988767497   -2.3580174147   -2.0021381066