23

 C    1.8696403122    1.9327480437   -1.7823510730
 C    1.4101129594    0.5254604859   -1.3904556422
 C    2.3372440112   -0.6350533153   -1.7470875211
 C    3.2201656369   -0.5862701450   -2.9752518572
 C    3.8344398654   -0.5323243226   -1.5982897141
 C    1.6835825627   -1.9646093474   -1.4727749404
 O    2.5139672873   -3.1062213373   -1.2479405200
 C    1.6730827778   -2.6603596283   -0.1723983836
 C    2.3398752548   -2.1556730563    1.0815037238
 H    2.8290280344    2.1950322943   -1.3254649430
 H    1.9704653018    2.0427392097   -2.8661054699
 H    1.1364457291    2.6721993540   -1.4463728948
 H    1.2312153953    0.4989835406   -0.3070169961
 H    0.4321276628    0.3359958528   -1.8554497430
 H    3.3400289194   -1.5048967293   -3.5398205046
 H    3.2299070475    0.3143629121   -3.5780332649
 H    4.2574731662    0.4086048377   -1.2641628607
 H    4.3583693834   -1.4162909042   -1.2557804935
 H    0.8378099962   -2.1698010957   -2.1360417685
 H    0.8305682826   -3.3319454502    0.0089685162
 H    3.1087310996   -1.4142058295    0.8626813507
 H    1.5941778307   -1.7012897372    1.7433288228
 H    2.8029447430   -2.9861358224    1.6252910971