17

 C   -0.0983555715    1.5701714319    0.2238835514
 C   -0.0921191860    0.0702996190   -0.0691501686
 N   -1.4207795682   -0.5107100847   -0.0544039372
 N   -2.1557154344   -0.6190111205    1.1129043733
 C   -3.2620005115   -1.1557572125    0.7355633127
 C   -4.4249766058   -1.5075151947    1.5829687870
 O   -3.3235652547   -1.4131466858   -0.5997034518
 C   -2.1037087947   -0.9855036287   -1.1377914050
 O   -1.8025911986   -1.0567869329   -2.2968595003
 H    0.9258195642    1.9547330384    0.2247850427
 H   -0.6698907567    2.1132337497   -0.5342542249
 H   -0.5422088182    1.7691666809    1.2028723174
 H    0.3048989916   -0.1376865619   -1.0659142498
 H    0.5237960191   -0.4638932721    0.6620053072
 H   -5.3221779098   -0.9776016618    1.2474492635
 H   -4.6343665673   -2.5805349527    1.5264404617
 H   -4.2105379175   -1.2356000115    2.6170044407