19

 C    0.1932612466    1.3035898622    0.2884735543
 C    0.0512671468   -0.1768361710    0.0857186137
 C   -0.6589859472   -0.8146378016   -1.1149048231
 C   -1.3487963102   -1.7530090168   -0.0972825566
 N   -0.6871087478   -1.0797080889    1.0793253459
 C    0.7771412038   -1.1897786429    0.8912760793
 C    1.5152644363   -2.4004931674    0.3606009739
 O    2.8862563561   -2.0959140771    0.1354281237
 H    0.9550925207    1.7194506563   -0.3823796500
 H   -0.7497440601    1.8227183775    0.0844914716
 H    0.4893742760    1.5295497172    1.3167563149
 H   -1.3587483433   -0.1291268470   -1.5975996400
 H   -0.0273453472   -1.2604613234   -1.8900450695
 H   -2.4277899055   -1.6018272818   -0.0296523040
 H   -1.1554689209   -2.8267603409   -0.1772903842
 H    1.2882959535   -0.7738226184    1.7584551225
 H    1.5090098005   -3.1954833617    1.1142021527
 H    1.0486607687   -2.8076144935   -0.5453291598
 H    2.9206031732   -1.3823498510   -0.5101841951