18

 C   -0.0697949098    1.6203645250    0.0083938856
 C    0.0194641425    0.0931278578    0.0033737883
 N   -1.2898097836   -0.5458799052    0.0125038995
 C   -2.1005743916   -0.7946949418    1.0983153045
 N   -1.6671473030   -0.5846445273    2.4082761207
 N   -3.2951186833   -1.1577099129    0.7260893342
 N   -3.3064861206   -1.1542347335   -0.6713639590
 C   -2.1181818599   -0.7893147907   -1.0612284762
 N   -1.7060520998   -0.5725155056   -2.3770016969
 H    0.9340900890    2.0560725964    0.0009955157
 H   -0.6082342358    1.9731343533   -0.8748840061
 H   -0.5930406368    1.9683155453    0.9026531165
 H    0.5610620369   -0.2561541948   -0.8802618021
 H    0.5759228401   -0.2611561718    0.8757306535
 H   -0.8806438304   -1.1724757931    2.6663993729
 H   -2.4388987592   -0.7766284119    3.0373986497
 H   -2.4886453550   -0.7591749220   -2.9942384953
 H   -0.9254981499   -1.1608318073   -2.6516205556