21

 C   -0.1185625069    1.5824987546   -0.0418274573
 C   -0.0043455115    0.0388507194   -0.0107685755
 C    0.8078824442   -0.4042915832    1.2224483136
 C   -1.4155698445   -0.5733491297    0.0447441533
 O   -2.0391388874   -0.1433745130    1.2488686356
 C    0.6500308282   -0.4159531425   -1.3269325494
 O   -0.0003002334   -0.8470337768   -2.2482853883
 C    2.1702609937   -0.2836192730   -1.4358967977
 O    2.5589439875   -0.4985409221   -2.7682250237
 H    0.8637536688    2.0628470003   -0.0124576705
 H   -0.6369674532    1.9183688736   -0.9454607246
 H   -0.6925432067    1.9162017556    0.8255754566
 H    0.2591507632   -0.1370750244    2.1280279290
 H    0.9607330056   -1.4890488858    1.2325678300
 H    1.7874510780    0.0803677409    1.2642505366
 H   -1.9820939677   -0.2561889049   -0.8385241464
 H   -1.3388739995   -1.6703538534    0.0074180589
 H   -2.9446884566   -0.4646423675    1.2455460604
 H    2.4694360131    0.7093655753   -1.0622454492
 H    2.6125416807   -1.0212944340   -0.7450636343
 H    3.5194310545   -0.4715364894   -2.8029984971