20

 C    0.2312718297    1.4786553255   -0.1660526691
 C   -0.0856224249    0.0065480267    0.1223703842
 C    0.5495428645   -0.5126626124    1.3813329546
 C    0.5433925620    0.1143290350    2.7720453666
 C    1.7929492793   -0.7492775705    2.9960716214
 C    1.2992655368   -2.2158527428    2.9720032247
 O    0.2256344292   -2.6209985806    3.7879239316
 C    0.9801947210   -1.9375620581    1.5249714543
 N    2.0223698144   -0.8378614162    1.4553111425
 H    1.3124106700    1.6347103226   -0.2274837265
 H   -0.2144564771    1.7934687654   -1.1142264150
 H   -0.1608017872    2.1351211987    0.6174483988
 H   -1.1721798187   -0.1387109268    0.1900870183
 H    0.2567195765   -0.6124065706   -0.7158489648
 H    0.7966152372    1.1762527514    2.7261621926
 H   -0.3166152408   -0.0489066258    3.4273209052
 H    2.6101545184   -0.4301785618    3.6407174264
 H    2.1508054880   -2.9050267836    3.0425840085
 H    0.5766301574   -2.9081609431    4.6366299314
 H    0.8666536345   -2.6556950431    0.7205621444