24

 C   -0.5945656556    1.7825245536    0.4030040161
 C    0.0582313709    0.5389606530   -0.1621304949
 C    1.4180080924    0.5902767505   -0.8100156619
 C    1.2361109121   -0.1562847222    0.4969042177
 C    1.8595070704    0.3695625560    1.7528345131
 C    1.8106179814   -0.3652820110    3.0593148150
 C    1.1142099686   -1.6983622960    3.2371517004
 N    3.0791411514   -0.1987457691    2.3426773314
 C    3.7421751778   -1.3379469870    1.7278639249
 H    0.1393438358    2.4950900101    0.7888964637
 H   -1.1702726994    2.2987399471   -0.3731937480
 H   -1.2825277563    1.5386555566    1.2202917731
 H   -0.6494920594   -0.1426582886   -0.6280005270
 H    1.5986037866    0.0223815313   -1.7163366890
 H    1.9524686446    1.5349905349   -0.7659062146
 H    1.2201978333   -1.2361930787    0.4060822869
 H    1.8555731153    1.4578119835    1.8051850813
 H    1.7662295860    0.2466251217    3.9615655334
 H    1.0846539594   -2.3014042398    2.3281700261
 H    1.6078495639   -2.2915927505    4.0151429114
 H    0.0792934796   -1.5347720308    3.5566288407
 H    3.0863466352   -2.1094606848    1.3003101443
 H    4.3924063195   -0.9737933616    0.9259172982
 H    4.3765522465   -1.8200311182    2.4792291577