16

 O    0.0193147669    1.4302864268   -0.0863079528
 C   -0.0680508751    0.0432772909   -0.0596330123
 C    0.1314157111   -0.6629630260    1.3197544943
 N   -0.8391907715    0.1338850041    2.1172842745
 C   -2.0768085161    0.0729421937    1.2591488011
 C   -1.5114169465   -0.6513262696    0.0269120453
 O   -2.3959511018   -0.8266110942   -1.0137410242
 C   -0.7235482680   -1.7849482090    0.7022391533
 O   -0.6916282536   -2.9766887255    0.5905614657
 H   -0.1490075796    1.7246316615    0.8219236495
 H    0.5434012877   -0.3782792989   -0.8604500546
 H    1.1010866436   -0.8087055400    1.7872792302
 H   -0.9999681085   -0.2861767275    3.0260205981
 H   -2.8943743276   -0.4897523064    1.7192213016
 H   -2.4336534313    1.0776871200    1.0122442168
 H   -2.1274746496   -1.6069770801   -1.5127045164