18

 C   -0.0793057627    1.5478535036    0.0528457060
 C    0.0464610935    0.0516892359    0.0280806955
 C   -0.8463866125   -0.8714705474    0.8162057931
 C    0.6359174131   -0.9422116290    1.0399600383
 C    1.2685139991   -1.7708166083   -0.0779704571
 C    0.6671557667   -0.7553916271   -1.1285881264
 O   -0.2907485248   -1.2290158528   -2.0494366888
 C    1.7298014063   -0.0180090482   -1.8302942599
 N    2.5670295366    0.5382776912   -2.4017561834
 H    0.8603305237    2.0371103874   -0.2230612232
 H   -0.8532241014    1.8881987493   -0.6444576218
 H   -0.3593788648    1.8920013303    1.0531633926
 H   -1.4177011241   -0.3698830975    1.5907398566
 H   -1.3701628242   -1.6881074950    0.3284936687
 H    1.0973366171   -0.7294876794    1.9957026450
 H    2.3594168382   -1.7738370045   -0.0789631870
 H    0.8975079517   -2.7941325574   -0.1915935933
 H    0.1613987585   -1.7263621410   -2.7407816448