21

 O    0.2404193780    1.0919684382    0.7348333081
 C    0.0562840431   -0.1737173119    0.1056238737
 C   -1.4302395116   -0.4696237110   -0.0280192293
 C   -2.2421976804    0.4675406859   -0.8826090229
 C   -1.7437081778   -0.8315445471   -1.4665662104
 C   -0.4549014212   -0.8225685868   -2.2828879922
 C   -0.2005445671    0.3693614459   -3.2563364243
 C    0.7354359926    1.0258978627   -2.1999221512
 C    0.6482872166   -0.2646168024   -1.3298469852
 H    1.1870649090    1.2354977822    0.8353739044
 H    0.5095463998   -0.9591616399    0.7297523391
 H   -1.9211357415   -0.9671931359    0.8007775752
 H   -3.3027433625    0.5362923841   -0.6655777044
 H   -1.8001462984    1.4063383126   -1.1931528098
 H   -2.4829351100   -1.5930141402   -1.6909678859
 H   -0.2737188006   -1.8121473011   -2.7099078696
 H    0.3285344349    0.0691820622   -4.1642500147
 H   -1.0843071639    0.9414932233   -3.5489940464
 H    1.7367960522    1.2812133192   -2.5555672538
 H    0.3203727372    1.9040657430   -1.7013038888
 H    1.5808198118   -0.8346627528   -1.3323847914