18

 C   -0.6400905761    1.4385609026   -0.6770480026
 O   -0.8279518964    0.0425029970   -0.7175704669
 C   -0.5881936046   -0.5799558576    0.5267127035
 C   -0.7972392421   -2.0560872153    0.3752491984
 C   -0.4979730628   -2.8379737066   -0.9076171385
 C   -1.8815502618   -2.8453445309   -0.3322570096
 N   -1.9801381066   -3.7427287184    0.8259382716
 C   -0.9294666068   -3.0841423409    1.4951519312
 O   -0.3880389890   -3.2960970453    2.5430298144
 H   -0.8448680314    1.8236957263   -1.6785740621
 H   -1.3247756750    1.9207999711    0.0376714943
 H    0.3913970133    1.7023165506   -0.3965986723
 H    0.4408310706   -0.3789421592    0.8702304296
 H   -1.2677411051   -0.1790646873    1.2978105388
 H   -0.3405702092   -2.1986839466   -1.7704125628
 H    0.1079963358   -3.7390070859   -0.8739924277
 H   -2.7693982584   -2.4715456318   -0.8234039662
 H   -2.0329379844   -4.7531693216    0.7519123169