19

 C   -0.2541170389    1.5583213414    0.0195960221
 C    0.0496727742    0.0662793901   -0.0107634936
 C    1.1934077155   -0.4950742519   -0.9165135677
 C    1.7924085650   -1.2329174819    0.2846289036
 C    2.1629585321   -0.2674832286    1.3610552858
 O    2.6226465758    1.0281919438    1.1003770115
 C    0.7021716991   -0.5998322880    1.2259039400
 C   -0.0353761469   -1.1837751171    2.2946731532
 C   -0.6815168562   -1.6718808524    3.1861891697
 H    0.6464998969    2.1403178900    0.2206059898
 H   -0.6762604907    1.8826319438   -0.9384978158
 H   -0.9903856846    1.7844937072    0.7986523364
 H   -0.8671176528   -0.4885128996   -0.2312297749
 H    0.8297141352   -1.1606852737   -1.7006720346
 H    1.8513095298    0.2548994652   -1.3651542094
 H    2.1502599570   -2.2558827891    0.2848308333
 H    2.6112485335   -0.7310113224    2.2401858752
 H    3.5144592319    0.9584108897    0.7418358446
 H   -1.2473076558   -2.0992263364    3.9760876510