21

 C    0.0678840627    1.5824434389   -0.0987176735
 C   -0.0222900032    0.1044306284    0.3021080452
 C   -1.4185234693   -0.5052840123    0.1246993666
 C   -2.4687695914    0.1324263585    1.0332132010
 C   -1.8960224832   -0.6759313800   -1.3430228975
 O   -2.1001376725   -2.0921674292   -1.1720427248
 C   -1.5189408441   -2.0789087379    0.1302110891
 C   -0.2140495180   -2.8365069687    0.2341180196
 O    0.3914166453   -3.3054047169   -0.6928837582
 H    1.1010662662    1.9346155264   -0.0289831958
 H   -0.2626995226    1.7362084154   -1.1318504978
 H   -0.5413889130    2.2222322132    0.5460375152
 H    0.6945642999   -0.4661485476   -0.2995137169
 H    0.2931694528   -0.0076312121    1.3478590985
 H   -2.5850772803    1.1996257337    0.8207250051
 H   -3.4450033347   -0.3417858434    0.8922427914
 H   -2.1909532433    0.0286578827    2.0883167714
 H   -2.8236044416   -0.1575594174   -1.6123510039
 H   -1.1316418248   -0.4687986946   -2.1025853060
 H   -2.2004675781   -2.4767187734    0.8986958544
 H    0.1611589631   -2.9223251036    1.2826466969