22

 C   -0.3097095632    1.5368732533   -0.0329772143
 C   -0.2554351979    0.0155021353   -0.1913522489
 C    0.9374923469   -0.4586680856   -1.0339634179
 C    0.9839051376   -1.9672002941   -1.1760464167
 C    0.2287705936   -2.6751307100   -2.2773456159
 C    1.7371612079   -2.6880044110   -2.2716442498
 C    2.5287137906   -1.9394758108   -3.3350026332
 C    2.7123995595   -2.7373842874   -4.5492483172
 N    2.8556335965   -3.3779004064   -5.5002961120
 H    0.5954252732    1.9179144641    0.4530405483
 H   -0.3956271852    2.0341500723   -1.0056578364
 H   -1.1670245718    1.8440854915    0.5736697241
 H   -0.2053940372   -0.4563973689    0.7985972659
 H   -1.1835408097   -0.3448082815   -0.6522975150
 H    0.8816055937    0.0169079867   -2.0211960010
 H    1.8688929615   -0.0998443226   -0.5738630179
 H    1.0006121134   -2.4849154781   -0.2192563349
 H   -0.3008190549   -3.5954397404   -2.0592941286
 H   -0.2579188669   -2.0515508397   -3.0220709725
 H    2.2045134990   -3.6244046331   -1.9818280846
 H    2.0287773789   -1.0068733665   -3.6146015617
 H    3.5195783343   -1.6607149870   -2.9557695696