19

 O   -0.3259779060    1.3298807664    0.7061043980
 C    0.0477134772    0.0458942458    0.2673724169
 C    0.8628837354   -0.0495273366   -1.0728172888
 C    1.9030755692   -0.9900342565   -0.3821600092
 C    1.3215950327   -0.4970810301    0.9457269279
 O    1.7643910748   -0.2986310490    2.0429169478
 C   -1.1278490611   -0.9163215903    0.3042344817
 C   -2.1367241453   -0.8452396770    1.4187267580
 C   -2.5195818054   -0.4063567001    0.0264951311
 H    0.1480369703    1.4921264051    1.5316935988
 H    0.3230392469   -0.4568272449   -1.9281309691
 H    1.2919475404    0.9204752856   -1.3287388193
 H    1.7018016331   -2.0509680777   -0.5584543682
 H    2.9671650056   -0.8013409158   -0.5358657634
 H   -0.8941341914   -1.9075477770   -0.0750917487
 H   -2.5391217504   -1.7745952588    1.8055801547
 H   -2.0053165875   -0.0631706334    2.1571467971
 H   -2.6317861587    0.6586730780   -0.1370973271
 H   -3.1853704098   -1.0342602535   -0.5548144881