18

 C   -1.3379849969    0.3695005613    0.3698566795
 C    0.0533136862   -0.0178575288   -0.0617058778
 N    1.1402721670    0.9469854086    0.0651066985
 C    1.2159537726   -0.2940486809    0.8591101937
 C    1.2323077648   -0.1623430524    2.3465160267
 O    1.5176113774   -1.0956138529    3.0658229147
 C    0.9570233904    1.1982050507    3.0280216213
 C    2.1327302188    1.7641734941    3.7865068429
 O   -0.1430681861    1.6965419276    3.0204321636
 H   -1.3235110859    0.9547675193    1.2891143712
 H   -1.8173448887    0.9597528712   -0.4186687792
 H   -1.9429094477   -0.5294494832    0.5295168143
 H    0.0808725493   -0.6535307266   -0.9477726267
 H    1.7771845732    0.9018774014   -0.7251672870
 H    1.8758586288   -1.0977953597    0.5372146478
 H    2.5140107533    1.0116725940    4.4833132203
 H    2.9433605972    1.9971559372    3.0856372613
 H    1.8325922063    2.6677362693    4.3185402950