16

 C    0.0238550698   -1.2342796318   -0.1353147347
 C   -0.0218228870   -0.0335102299   -0.1174171378
 C   -0.0385067704    1.4224416076   -0.0866576668
 C    1.3722068415    2.0191505516    0.1574781440
 C    1.3613601282    3.5088660709    0.1955078798
 C    1.6508876240    4.4284433729    1.1569459011
 C    1.4144788752    5.6714325560    0.5121878371
 N    1.0155767272    5.5214454291   -0.7259249212
 O    0.9810388278    4.1428894112   -0.9309756107
 H    0.0468501286   -2.2956259474   -0.1570881869
 H   -0.4321270116    1.8145111080   -1.0309999970
 H   -0.7183338961    1.7715228164    0.6999469317
 H    1.7719856235    1.6449792177    1.1030928502
 H    2.0428092569    1.6737185895   -0.6367901121
 H    1.9829221743    4.2478456887    2.1654855293
 H    1.5223117782    6.6712611193    0.9088690141