18

 C   -0.0274329007    1.5062124354   -0.1589715269
 C    1.3087665503    0.8197188401    0.0293408673
 C    0.0165606919    0.0034295482   -0.0186482557
 C    0.3282784920   -0.7586193711   -1.2874458041
 C   -0.0741711092   -1.6939266139   -2.4393198308
 C    1.3393369181   -1.1553101090   -2.7851072943
 C    1.8403217999   -1.1908129627   -1.3261505439
 C    2.0504058189    0.3326366892   -1.2347608220
 N    0.9471369349    0.2534351787   -2.2897160569
 H   -0.4072710340    2.0629637481    0.6917882857
 H   -0.2677317839    1.9259803063   -1.1277723603
 H    1.8606203793    0.9596141016    0.9516412813
 H   -0.3847099886   -0.4993478081    0.8521673060
 H   -0.1579531817   -2.7586559799   -2.2086446164
 H   -0.8886517859   -1.3486434326   -3.0811940260
 H    1.8995419174   -1.2858297057   -3.7113095952
 H    2.3148344900   -2.0135112706   -0.7799716750
 H    2.9788015610    0.8386796259   -1.5084287230