19

 C   -0.0481322804    1.5040427281    0.0088592029
 C    0.0094601601    0.0002901462    0.0123635643
 N    0.0789474856   -0.7174212150    1.0696175176
 O    0.0948811213    0.0728043410    2.2282857792
 C   -0.0132690568   -0.7458340334   -1.2743146915
 C    0.9746027912   -0.6771511871   -2.4730422698
 N   -0.0432546628   -1.7202660960   -2.9607789254
 C    0.0348789931   -2.2658208075   -1.5196243119
 C   -1.0955046198   -0.7560199693   -2.3906600026
 H    0.8340232132    1.9209977483    0.5052183549
 H   -0.1031777257    1.8965097896   -1.0083293644
 H   -0.9178172826    1.8540721343    0.5741571240
 H    0.1478826716   -0.5895310480    2.9255069203
 H    0.9926220911    0.2318406349   -3.0808776670
 H    1.9800235161   -1.0803555201   -2.3245985900
 H    0.9679778742   -2.7896173945   -1.2996985458
 H   -0.8353301134   -2.8583193565   -1.2279321749
 H   -2.0524267498   -1.2339952252   -2.1641249635
 H   -1.2306973961    0.1471330503   -2.9923996766