14

 O   -0.0414618568   -0.0417249184    0.0328288323
 C   -0.0140652858    1.1636892802   -0.0028542450
 N    1.1516102662    1.9032241613   -0.0212082653
 C    2.4477092157    1.3714730210    0.0006728453
 N    3.4040866271    2.2053230147    0.0142859270
 C    2.8280307796    3.5516064695   -0.0040950251
 C    1.2597559445    3.3694696227   -0.0204009964
 C    0.6145238135    3.9813981495   -1.1849345985
 N    0.1082634883    4.4798818744   -2.0960435066
 H   -0.9151020809    1.8026909453   -0.0272717780
 H    2.5492255981    0.2938636870    0.0058295749
 H    3.1462994371    4.1097196931    0.8803075643
 H    3.1745866819    4.0968737739   -0.8856461139
 H    0.8033665014    3.7896457058    0.8815880649