14

 N   -0.0124514239    1.3128721463    0.0095421347
 C    1.1488202986    2.0230611467    0.0024016124
 C    2.3540771834    1.3529686684   -0.0130552386
 N    2.4749166349    0.0055038427   -0.0219219240
 C    1.3450845181   -0.6788922113   -0.0149373717
 C    1.0322493614   -2.0613790454   -0.0198019588
 C   -0.3511851005   -2.1112712486   -0.0067635351
 N   -0.9896653711   -0.8774257923    0.0064329276
 C    0.0175366436   -0.0362950306    0.0015402966
 H   -0.9108896179    1.7801704334    0.0208749670
 H    1.0637501481    3.1003624616    0.0093772967
 H    3.2736528949    1.9276540593   -0.0186391241
 H    1.7256625281   -2.8867120715   -0.0311898138
 H   -0.9609177877   -3.0066534088   -0.0059993589