16

 C   -0.0058519293    1.6611728141    0.1677735569
 C    1.4387611810    1.1671879324    0.0096939670
 O    1.1084376749    0.0117091361    0.9207636175
 C   -0.0093140429    0.1178493439   -0.0324178104
 C   -1.1557178420   -0.7959894839   -0.3124641669
 O   -1.5948996688   -0.4591138042   -1.6608458980
 C   -0.7955794296    0.2213956896   -2.5316485740
 N    0.4054629889    0.6307489418   -2.4278844372
 C    0.9972944091    0.2395008735   -1.1701073171
 H   -0.2764874787    1.9907156664    1.1711803569
 H   -0.4189125200    2.2876580566   -0.6236197232
 H    2.3831410959    1.6763280323    0.1988394203
 H   -0.8414200208   -1.8450799258   -0.2972082450
 H   -2.0331721494   -0.6701708590    0.3268353633
 H   -1.3670407688    0.4040463719   -3.4396531776
 H    1.6615799709   -0.6214649458   -1.2807938425