16

 C   -0.3200891433    1.5209315147    0.0231502441
 C    0.0612046301    0.0629841631    0.0110228980
 C   -0.6760227091   -0.9626852359    0.8943643403
 C    0.7712513934   -0.6896914529    1.1051363242
 O    1.6548451741   -1.6565725850    0.5463006494
 C    1.5670675054   -1.6468323455   -0.8184451158
 N    2.1760956384   -2.4185232941   -1.6062862248
 C    0.6209278264   -0.5247688146   -1.2454317024
 O    0.4380122110   -0.1531042369   -2.3733925966
 H    0.5305085278    2.1520893882   -0.2516014784
 H   -1.1186435200    1.7065598842   -0.7010101801
 H   -0.6723971994    1.8303801491    1.0111495281
 H   -1.3884810643   -0.5361193056    1.5920848053
 H   -0.9583788441   -1.9240450719    0.4780745171
 H    1.1706991747   -0.2312911004    2.0009008856
 H    2.7575623589   -3.0837970865   -1.0914323040