16

 C   -0.0404636476    1.5030196515    0.0800300056
 C   -0.0050100675    0.0162034648   -0.0196011364
 C    0.0376890588   -0.7629997313   -1.1283695236
 N    0.0472503271   -2.0903265479   -0.6657797007
 C   -0.0352765751   -3.2346797022   -1.4463269289
 O   -0.0250290985   -3.2279743408   -2.6501004822
 C    0.0333072978   -2.0059810191    0.7249812521
 N   -0.0226771061   -3.1349109146    1.5282513986
 N    0.0017528364   -0.7744312242    1.1381787053
 H    0.8164938697    1.8766000345    0.6510708415
 H   -0.0248492841    1.9646546226   -0.9102416079
 H   -0.9431916100    1.8360407601    0.6038059671
 H    0.0584805789   -0.5558846366   -2.1833527483
 H   -0.1217724598   -4.1494805551   -0.8357749779
 H    0.7031510600   -3.8183564136    1.3523999595
 H   -0.0187892000   -2.8587435781    2.5023268861