21

 C    0.0175066961    1.5417785535   -0.2425358135
 C    0.0254335478    0.0399088141   -0.0673581005
 O   -1.0918068918   -0.6012176335   -0.6353940129
 C    1.3262614543   -0.7235770168   -0.0706849846
 C    0.5061395804   -0.5887437269    1.2158188274
 C    0.9962049168    0.2304265625    2.4212414795
 C    0.9084195418   -0.7405993205    3.6319358895
 C    0.0412302140   -1.8653763840    3.1163255126
 C   -0.1639891391   -1.7806072570    1.8021618837
 H    0.8846872769    2.0088887234    0.2316691700
 H    0.0411099513    1.8035733327   -1.3078092993
 H   -0.8902625765    1.9755275631    0.1895427243
 H   -1.0030237117   -0.5488406513   -1.5937180768
 H    1.3318281656   -1.6936620935   -0.5571172056
 H    2.2579983601   -0.1693077085   -0.1386425959
 H    2.0042158455    0.6294425232    2.2788520937
 H    0.3308263011    1.0848574278    2.5856824298
 H    1.8984343678   -1.1157906502    3.9266775744
 H    0.4910271428   -0.2546839187    4.5213105969
 H   -0.3302254347   -2.6582185973    3.7558848919
 H   -0.7340330785   -2.4717168220    1.1952783652