19

 O   -0.1154331832    1.3906391374   -0.0630646388
 C    0.0165035598   -0.0251025873    0.0669386573
 C   -1.4023334478   -0.5821169047    0.0241068610
 O   -2.0611457740   -0.1469159702   -1.1527343673
 C   -1.4195258259   -2.1158072082    0.0043699090
 O   -0.7452470849   -2.6234373027    1.1585198386
 C   -1.6004400761   -3.5042574789    1.8871018993
 C   -2.9054293801   -3.4838934586    1.1424224639
 C   -2.8019749191   -2.7041152716    0.0732348266
 H    0.7523266276    1.7654072067   -0.2355520319
 H    0.5957143969   -0.4437282494   -0.7698785474
 H    0.5035397611   -0.3057442319    1.0086315351
 H   -1.9387180525   -0.2379697888    0.9235303279
 H   -1.8077525000    0.7786490923   -1.2606190803
 H   -0.8895669761   -2.4413726167   -0.9068512148
 H   -1.1546317507   -4.5111778687    1.9261532394
 H   -1.6964392965   -3.1530358993    2.9259509019
 H   -3.7763567421   -4.0420614551    1.4617361594
 H   -3.5617275163   -2.4814952344   -0.6627266990