20

 C    0.1283620613    1.4999878899    0.1759689793
 C   -0.2132233332    0.0435328591   -0.1559617298
 C    0.6168818448   -0.5240252975   -1.3124031111
 C    0.3552226611    0.1592583465   -2.6461893448
 O    2.0452608825   -0.4874614725   -0.9895482225
 C    2.0977006409   -1.9127394899   -0.7992306314
 C    0.6687275594   -2.0779963488   -1.3561912096
 O   -0.2945616041   -2.7223151402   -0.5586172788
 H    1.2037952854    1.6070811132    0.3434652129
 H   -0.1604759111    2.1867495966   -0.6257214886
 H   -0.3925764238    1.8189358583    1.0836425573
 H   -0.0464569188   -0.5812562611    0.7262827984
 H   -1.2766037978   -0.0596730009   -0.4026522887
 H    0.5952927343    1.2247171721   -2.5961071716
 H    0.9728805655   -0.2861776126   -3.4312785528
 H   -0.6982041957    0.0569484253   -2.9291018235
 H    2.9187120181   -2.3739745549   -1.3608971088
 H    2.1754315685   -2.1943124913    0.2597912462
 H    0.6521074967   -2.4596329501   -2.3849697483
 H   -0.2371933840   -3.6695739510   -0.7140217037