15

 O    0.0022944889    0.0067254389   -0.0059486280
 C    0.0439682017    1.2191849568    0.0045645827
 N    1.1943719230    1.9392560256   -0.0011011651
 C    2.5045121072    1.2878419466   -0.0209559309
 C    3.4402995821    2.4569628903   -0.0203514958
 C    2.7754037384    3.6178314680   -0.0028907960
 C    1.2761105043    3.3986428231    0.0109829505
 C    3.3430891572    4.9189496208    0.0027745896
 N    3.7758708472    5.9930487385    0.0078399955
 H   -0.8581737882    1.8622732359    0.0199399819
 H    2.6417785807    0.6340976124    0.8512291210
 H    2.6230682572    0.6500364294   -0.9075746939
 H    4.5167630615    2.3513360788   -0.0326956905
 H    0.7941914091    3.8523692618   -0.8655302456
 H    0.8128325899    3.8366421832    0.9053585247