24

 C   -2.1782168201   -0.0622708844    1.6721334125
 C   -1.5242867504   -1.4217329657    1.9086000411
 C   -1.1184060352   -2.1609547223    0.5978277973
 C    0.3461661019   -1.6990291469    0.8154784391
 C   -0.0028637051   -1.3997767306    2.3023623453
 C    0.5777036656   -0.1743214200    2.9573673490
 C    0.6621285097   -0.0510285219    4.4447203830
 N    1.8751792201   -0.1562457917    3.6453332165
 C    2.6608876677   -1.3752004219    3.7629164444
 H   -1.6116103383    0.5478363530    0.9599779263
 H   -3.1847494557   -0.1934925628    1.2601196147
 H   -2.2691154771    0.5090064840    2.6018732423
 H   -2.1501963455   -2.0025772956    2.5934259763
 H   -1.2256291168   -3.2457449017    0.6846012068
 H   -1.6157294128   -1.8375556118   -0.3208644510
 H    1.1433702372   -2.4211110977    0.6224157056
 H    0.5759665895   -0.7823332629    0.2634010663
 H    0.2046403524   -2.2839859629    2.9113145750
 H    0.4113323913    0.7434220470    2.3942116970
 H    0.4918841419    0.9009946629    4.9419304555
 H    0.3595317889   -0.9234272111    5.0253721412
 H    2.0802586103   -2.2818268366    3.9944870336
 H    3.2082264601   -1.5470074554    2.8302980769
 H    3.3943385802   -1.2382014429    4.5644114851