15

 O   -0.5118202313    1.3502043185    1.0322128447
 C    0.2268692889    0.9689303299    0.1604953875
 C    1.5207030923    1.6615196261   -0.2115764439
 N    2.3336666290    0.9409390557   -1.2185454656
 C    2.4808849036    2.1538031406   -2.0689282353
 C    1.3935763520    2.8235277487   -1.2277593539
 C    0.2331658836    3.6321994163   -1.5945512070
 O    1.3602704593    4.1794489780   -0.8816044592
 H   -0.0053915323    0.0889346207   -0.4807275661
 H    2.0396416719    1.9945090934    0.6964986204
 H    3.2044797144    0.5602315762   -0.8684860821
 H    3.4406595290    2.6773915076   -1.9721262296
 H    2.2694831440    1.9848066777   -3.1300039815
 H    0.1203167122    3.9789260073   -2.6203029946
 H   -0.6836279066    3.5533692534   -1.0138085838