15

 N    0.2428090758    1.3727662408   -0.0292642939
 C    0.0416965590   -0.0453867193   -0.0584447426
 C    0.0775091883   -0.6925946105    1.3686302212
 N   -1.3987519887   -0.8098950449    1.3310902636
 C   -1.4346226545   -0.6328814045   -0.1352406731
 C   -2.4692168279    0.2707119184   -0.6255203153
 N   -3.2486760495    1.0203689269   -1.0335892367
 C    0.8002991621   -1.9641156028    1.4278647205
 N    1.3367982685   -2.9876476526    1.4703887480
 H    0.1853057512    1.7704726815   -0.9608248107
 H   -0.4572319089    1.8380265271    0.5414731480
 H    0.7191797051   -0.4965276549   -0.7825778631
 H    0.4473456775   -0.0258152085    2.1534675950
 H   -1.7964053136   -1.6709179574    1.6895142799
 H   -1.4642742944   -1.5656838894   -0.7126842007