18

 C   -1.5542546122    0.2929703710    0.6158498957
 C   -0.0850319761    0.2326356175    0.1709122728
 N    0.7246796510   -0.3462724905    1.2433491778
 C    2.1704302284   -0.4181295535    1.0052679899
 C    2.9083172688    0.9303168412    0.8650825911
 C    2.7682550691   -1.2019528888    2.0984505767
 N    3.2531651953   -1.7831152991    2.9708623058
 C    0.0521493699   -0.5895757149   -1.0449119434
 N    0.1691018561   -1.2114748326   -2.0115027010
 H   -1.6465959187    0.9488924877    1.4868973540
 H   -2.1810396460    0.6939318306   -0.1833909743
 H   -1.9077506493   -0.7041541944    0.8855446649
 H    0.2306528735    1.2512584118   -0.1143629390
 H    0.5348719192    0.1495940693    2.1083499256
 H    2.3122854413   -0.9949094207    0.0825868125
 H    2.7832996266    1.5354899475    1.7679335127
 H    3.9776052638    0.7664402468    0.7078999807
 H    2.5236463791    1.4888702110    0.0080209573