19

 C    0.1584427885    1.6178471964    0.1073581899
 C    0.1601997163    0.0970314845    0.0230006726
 C    0.8355978439   -0.6380916994   -1.1425303340
 C    1.2506396767   -1.7789983148   -0.2574102341
 C    2.3196509270   -0.8353838256   -0.7880547426
 C    2.5075299309   -0.2923975373    0.6007422395
 C    3.7041933141   -0.3192923983    1.4336059293
 O    3.1203078767    0.9238336149    0.9920935067
 C    1.0898602174   -0.7581761147    0.9455176392
 H    1.1621209875    2.0330953193   -0.0046715436
 H   -0.4786954119    2.0420830171   -0.6769098246
 H   -0.2379421496    1.9548509862    1.0717256630
 H   -0.8609849577   -0.2895277570    0.1202739703
 H    0.5151123406   -0.6844988930   -2.1762501129
 H    1.1572224271   -2.8512065354   -0.3336270145
 H    3.0674737843   -1.0338521408   -1.5441326243
 H    3.6247044597   -0.5161633129    2.5024067014
 H    4.6713692455   -0.5578871240    0.9920737405
 H    0.8088637531   -0.9904927553    1.9706886181