20

 C   -0.0258010651    1.6586425529    0.0322092869
 C    1.1378210327    0.7592097464   -0.3441733319
 C    2.4069291240    0.7397276376    0.4917943722
 C    3.2370442694   -0.5524680607    0.3501591598
 C    2.7100518814   -1.7463811891    1.1502159371
 O    1.3254374451   -1.9899531070    0.8696078050
 C    0.4497616898   -1.3868896964    1.7278102660
 N   -0.3139420213   -0.4261717109    1.4405745226
 C   -0.1705904608    0.1668722200    0.1308595232
 H    0.0540907340    2.1946346910    0.9732821992
 H   -0.5584953103    2.1938895063   -0.7463958453
 H    1.3275611664    0.6525982566   -1.4105093975
 H    3.0312409070    1.5868566901    0.1816094890
 H    2.1678914019    0.9158852769    1.5474630217
 H    3.2906972292   -0.8316805423   -0.7092374255
 H    4.2690179302   -0.3706121774    0.6771238193
 H    3.2508474884   -2.6593508804    0.8824288788
 H    2.8432410358   -1.5787761506    2.2287101684
 H    0.4233323814   -1.8276549541    2.7284173252
 H   -0.7853990492   -0.3194490788   -0.6220645342