19

 C    0.6301198307    1.4740110407   -0.3620448803
 C    0.0914056796    0.0584612945   -0.0558002206
 N    0.3375205001   -0.9702205633   -1.0583288258
 C   -0.4451425598   -0.9193771712   -2.2530673586
 C   -0.1674068954    0.0266974093   -3.4275124058
 C    0.1679086407   -1.4443231843   -3.5147562729
 O    1.5079939239   -1.8346180232   -3.4059870353
 C    0.6354648836   -0.4055951288    1.2352572903
 N    1.0814903328   -0.7401549695    2.2470574894
 H    1.7147220241    1.4478967684   -0.5031756741
 H    0.1636606226    1.8601057016   -1.2701393059
 H    0.4089877517    2.1584593430    0.4620425751
 H   -0.9972349826    0.1254087690    0.0708853708
 H    1.3214972334   -1.0904983389   -1.2680331327
 H   -1.4903682256   -1.1720430342   -2.0887853363
 H   -1.0019199307    0.4120868414   -4.0042845649
 H    0.6789133392    0.6982935776   -3.3330865841
 H   -0.4412286670   -2.0819036624   -4.1536532956
 H    1.9699264285   -1.5510943299   -4.2014776927