19

 C    0.1374853294    1.4860091256   -0.1766375852
 C    0.0077632755   -0.0048210499    0.0088899137
 C   -1.3948661967   -0.5945091610   -0.1594956749
 C   -1.2529790293   -2.1387289610   -0.1778231042
 C   -0.0337715247   -2.4762660189    0.6742431174
 O   -0.0975377995   -1.6748299811    1.9013891324
 C    0.7089471710   -0.6875485083    1.2569650094
 C    1.2100460929   -1.6384557508    0.1811175329
 O    0.9023225711   -0.7558157401   -0.8958143814
 H    1.1692099654    1.8107399408   -0.0129363720
 H   -0.1539341745    1.7744899843   -1.1918296210
 H   -0.5111191516    2.0143151422    0.5302701939
 H   -2.0225140956   -0.2774089250    0.6787732258
 H   -1.8535327171   -0.2254352175   -1.0818577702
 H   -2.1483744025   -2.6261972553    0.2176077532
 H   -1.0930314437   -2.5010447845   -1.1978471929
 H    0.1015454326   -3.5373320303    0.8948322740
 H    1.2866287444   -0.0590236485    1.9370094011
 H    2.1832047530   -2.1243440907    0.1036614779