19

 C    0.0894106286    1.5172141639    0.0864171338
 C    0.0410627128    0.0306725279   -0.0492426929
 C   -0.0596926778   -0.7889407231   -1.1479111425
 C   -0.2255229516   -0.7736102598   -2.6418552475
 C    0.1016992315   -2.2573486450   -2.9896526416
 N   -0.2495425731   -3.0317342957   -1.7714006763
 C   -0.0707507016   -2.1339077664   -0.6998153159
 C    0.0291741582   -2.1433969374    0.6665020627
 N    0.0906648123   -0.8037077039    1.0479624723
 H    0.9652937606    1.8527439536    0.6562384686
 H    0.1440982179    1.9800673450   -0.9017922637
 H   -0.7993589596    1.9201835483    0.5892157103
 H   -1.2555337265   -0.5301397145   -2.9351701753
 H    0.4348078504   -0.0858003041   -3.1788693635
 H   -0.4620564697   -2.6233131109   -3.8527006112
 H    1.1744805212   -2.3441933081   -3.2217086068
 H    0.2643697232   -3.9001050437   -1.6950591343
 H    0.0672136149   -2.9332618239    1.3975525839
 H    0.2426168482   -0.4907767222    1.9903377199