22

 C   -0.0008940504    1.4330237876    0.8346694502
 C   -0.0596292275   -0.0212376237    0.3975691568
 O    0.7766285550   -0.7788420721    1.2512960167
 C    0.8560222341   -2.1621264910    0.9246207196
 C    2.0508870259   -2.7725952109    1.6837375804
 C    1.4414132926   -3.3827631228    2.9361309728
 C    0.4925051076   -2.5512710237    3.7199240057
 N   -0.0164256724   -3.5500463822    2.7618037450
 C   -0.3516737059   -2.9873010979    1.4421497097
 H    1.0262294731    1.8057931730    0.7894430432
 H   -0.6257768469    2.0518928002    0.1838625504
 H   -0.3589559037    1.5409227581    1.8625756177
 H   -1.0978170841   -0.3880603882    0.4335264168
 H    0.2813968932   -0.1271737758   -0.6463173220
 H    0.9707917457   -2.2616339696   -0.1646096061
 H    2.5195263140   -3.5569583621    1.0799809754
 H    2.8038080794   -2.0067504266    1.8859058915
 H    1.9670696438   -4.2040437806    3.4152859660
 H    0.2967194709   -2.7952495258    4.7604418979
 H    0.4129142016   -1.4995710436    3.4637011671
 H   -1.2656014617   -2.3884032558    1.5002077555
 H   -0.5465564643   -3.8273303664    0.7651340395