18

 O    0.4614356728    0.7826525745   -0.9571129628
 C    0.0179860566   -0.1752315083    0.0070306436
 C    0.6212286119    0.0946587719    1.3614736410
 C   -0.0016195775   -0.1132140939    2.5209330458
 C   -1.4038230366   -0.6465395346    2.6341610154
 C   -2.2090041601   -0.5071032119    1.3536191601
 C   -2.3050756177    0.8341126627    0.6719992494
 C   -1.4955814841   -0.2790292315    0.0413395095
 H    0.0346771492    1.6178972569   -0.7349854788
 H    0.4222531928   -1.1247951601   -0.3704426142
 H    1.6421158397    0.4672054974    1.3371224864
 H    0.5193660969    0.0892492299    3.4539207908
 H   -1.3594954697   -1.7074547682    2.9218763425
 H   -1.9250794389   -0.1443588052    3.4607459714
 H   -3.0999256943   -1.1266436536    1.3141084672
 H   -3.2425790073    1.1121692801    0.2039151823
 H   -1.7682431735    1.6611714881    1.1273274546
 H   -1.9247038403   -0.7374069542   -0.8440691343