23

 C    0.3467216273    1.5590586918   -0.1583090217
 C    0.1233302052    0.0780349426    0.0646604886
 O    0.9291933266   -0.7630001220   -0.8057142389
 C    1.2675736726   -1.6582017190    0.2904063609
 C    0.8286003191   -3.0756328733    0.0245467994
 C    2.6893932756   -1.3734382028    0.8543840197
 C    3.7784874692   -0.9656481706   -0.1259270860
 C    2.0728698327   -0.2814581002    1.7894370470
 C    0.6426097945   -0.6587982049    1.3137382281
 H    1.3901513385    1.8441093437   -0.0026000898
 H    0.0753851914    1.8240974154   -1.1852994398
 H   -0.2820569081    2.1455844368    0.5205441885
 H   -0.9419319895   -0.1505993643   -0.0964750115
 H    1.3821554468   -3.4897750951   -0.8262111236
 H    1.0154300162   -3.7132511254    0.8947569408
 H   -0.2379783570   -3.1182457686   -0.2168814929
 H    3.0211116274   -2.2328667931    1.4486920110
 H    3.4185926085   -0.1730065066   -0.7871077761
 H    4.6657542130   -0.6030933730    0.4044554422
 H    4.0878658550   -1.8086919236   -0.7537660468
 H    2.2432309825   -0.4578402378    2.8538129409
 H    2.3822402667    0.7431429221    1.5672766035
 H   -0.0855713842   -0.9361376019    2.0759042666