21

 C    0.0848964173    1.5549566267   -0.0533653887
 C    0.0666458939    0.0384736452    0.0468619114
 O    0.7640927429   -0.5000019992   -1.0845208777
 C    1.2061083684   -1.8168234584   -0.7659810519
 C    2.3646534943   -2.1881750102   -1.6768022652
 C    1.5040036615   -1.7707414661    0.7332096613
 O    1.5059749956   -2.9748282803    1.4337431848
 C    2.2816065704   -0.5771190631    1.2245245667
 C    0.7636214384   -0.5765641202    1.2523893173
 H    1.1083127758    1.9355512512    0.0092910801
 H   -0.3463722953    1.8773040645   -1.0054065998
 H   -0.5014920159    1.9969150538    0.7581374738
 H   -0.9790251314   -0.3149360289    0.0361837539
 H    0.3852509253   -2.5427466925   -0.9015395296
 H    3.2072822041   -1.5052147575   -1.5346071189
 H    2.6988016164   -3.2093145685   -1.4638912230
 H    2.0583729098   -2.1447868123   -2.7255068991
 H    2.3773220106   -3.3740254889    1.3385826506
 H    2.7726812386   -0.6908221148    2.1846866008
 H    2.7987297721    0.0549716841    0.5097128201
 H    0.2533641171   -0.6103509247    2.2073950631