19

 O   -0.0123459230    1.4672993927   -0.0814877822
 C    0.0660744515    0.0597439203    0.0058992210
 C   -1.3236958453   -0.5606109023    0.0214254623
 O   -1.9545184276   -0.2396875465   -1.2122818300
 C   -3.1009834868   -1.0697975655   -1.2978016558
 C   -2.6401647887   -2.4463225376   -0.7754772954
 C   -1.4348698441   -2.1151863512    0.1502483286
 C   -0.1805824942   -2.8312915522   -0.3065151092
 O    0.5810405362   -3.4093263921    0.4247696818
 H   -0.5690269691    1.6614707297   -0.8444457768
 H    0.6497766203   -0.3630955397   -0.8269981803
 H    0.5906654309   -0.1786182135    0.9363626957
 H   -1.8930261808   -0.1080422388    0.8497665492
 H   -3.9136587113   -0.6687489872   -0.6721463939
 H   -3.4361821368   -1.0805934136   -2.3373564107
 H   -3.4306013069   -2.9799488153   -0.2443278100
 H   -2.3185351998   -3.0800302605   -1.6086573266
 H   -1.6062213741   -2.3949201457    1.1913846838
 H   -0.0035639303   -2.7936335809   -1.4070370015