19

 C   -0.0290303574    1.5157289760    0.0014191797
 C    0.0344507216    0.0028127677    0.0254602871
 C    0.7389973868   -0.6777458300   -1.1958235666
 C    0.9307178075   -2.1525324111   -0.7286085815
 C    0.3185840227   -2.1102997637    0.6829670122
 C    0.7243669420   -0.7262892300    1.2011542401
 O   -1.1193283778   -1.9658198786    0.5112492465
 C   -1.3351109018   -0.6807304214    0.0933385496
 O   -2.4191700411   -0.2521173929   -0.1764334065
 H    0.9722270636    1.9483982803   -0.0915644901
 H   -0.6343199243    1.8585820337   -0.8426477369
 H   -0.4890815819    1.9067831250    0.9137983608
 H    0.1447090040   -0.5895070000   -2.1083931025
 H    1.6977648440   -0.1826850098   -1.3767725053
 H    0.4042441629   -2.8745092391   -1.3558908901
 H    1.9849861767   -2.4403032654   -0.6908759381
 H    0.4917336017   -2.9765981765    1.3188886666
 H    1.8069266661   -0.5749422394    1.2333142429
 H    0.2893627147   -0.4922806447    2.1764679821