20

 C   -0.0683981859    1.3497326379    0.0195113080
 O   -0.0233049360   -0.0625541551   -0.1225136061
 C    0.7668764320   -0.5880978968   -1.1978715428
 C    2.2181290313   -0.1312415693   -1.1495448758
 C    0.5485385352   -2.1058443665   -1.1393872728
 C   -0.7661229447   -2.3313920586   -1.9138561732
 N   -0.7487540741   -1.2332830168   -2.8682044740
 C    0.0633850065   -0.1934041370   -2.5246248176
 O    0.1778384773    0.8622381907   -3.1156120984
 H    0.8947092918    1.7592379108    0.3517162695
 H   -0.3607261649    1.8504067056   -0.9098337473
 H   -0.8153023614    1.5505716498    0.7917462176
 H    2.6431344852   -0.3121742722   -0.1575825663
 H    2.8129451631   -0.6748864654   -1.8891705084
 H    2.2946323831    0.9322726904   -1.3876174308
 H    1.3700504702   -2.6175042031   -1.6483887083
 H    0.4973764311   -2.4582281862   -0.1081281544
 H   -0.7894910567   -3.2991167293   -2.4239113369
 H   -1.6363857448   -2.2716851610   -1.2483520845
 H   -1.4352826482   -1.1203815078   -3.5977451075