16

 C   -0.2884115968    1.3762025412    0.1159444258
 C    0.1654831305   -0.0692733856   -0.1693752594
 C    1.0098137432   -0.1319405997   -1.3679371630
 N    1.6932063823   -0.1629998921   -2.2990106341
 C    0.9195446020   -0.6524452730    1.0194031147
 N    0.1036784764   -1.0100349238    2.1719707484
 C    0.7937246879   -2.0864400082    1.4307703778
 C   -0.0516594774   -3.0119553893    0.7146572263
 N   -0.7155410549   -3.7544101408    0.1281746091
 H    0.5707935175    2.0300532205    0.2908439727
 H   -0.8550847746    1.7756941782   -0.7277657017
 H   -0.9243883309    1.3798331780    1.0040918304
 H   -0.7195624112   -0.6897981924   -0.3494922469
 H    1.8961961644   -0.2050981285    1.1959904029
 H    0.5848826761   -0.8256942095    3.0478303773
 H    1.6703720955   -2.5472401150    1.8773663299