16

 O   -0.0803681475    1.3781984808    0.0329057083
 C    0.0026600915   -0.0073839110    0.0349150297
 C   -0.5368907202   -0.7540098169    1.1941243215
 C    0.9752185445   -0.7967920991    0.9072151618
 C    1.5838016646   -1.8742653582    0.0533423610
 O    2.5671764520   -2.5212889966    0.3219228511
 C    0.9012188626   -1.8679757760   -1.3059380269
 N   -0.5711203137   -2.0949903739   -1.2520908451
 C   -0.0464583281   -0.7242270960   -1.3216700535
 H    0.7192291415    1.7317623098   -0.3732176645
 H   -0.7904370380   -0.1570373566    2.0629829280
 H   -1.1391051267   -1.6354162261    1.0226989447
 H    1.6215786023   -0.3304759712    1.6409749196
 H    1.4650018250   -2.2197739437   -2.1623519967
 H   -0.8809086465   -2.3924229876   -2.1750862735
 H   -0.2268888733   -0.1169523876   -2.2021970255