22

 C   -0.2743296324    1.4510853715    0.5532315767
 C    0.3925464083    0.0936851551    0.4972081110
 C    0.6121332139   -0.6702713774   -0.7720707436
 C    0.1786125881   -0.1723367181   -2.1339982991
 N    1.7484708599   -0.1099224985   -0.0246095689
 C    2.5117836353    1.0043309231   -0.5608699661
 C    3.8429897412    0.5565804807   -1.1788349191
 C    4.5031502653   -0.6742471300   -0.5950924823
 O    4.3390854054    1.2005845384   -2.0742461613
 H    0.1143518241    2.0351658964    1.3948823066
 H   -0.1324186131    2.0421662391   -0.3531543194
 H   -1.3517163664    1.3308892207    0.7090230547
 H    0.2066824790   -0.4982034184    1.3942864600
 H    0.5737292520   -1.7573725923   -0.6961696886
 H    0.0809329773    0.9126990527   -2.1946475354
 H    0.8873105497   -0.4864035156   -2.9085259255
 H   -0.7956560177   -0.6040934145   -2.3860518026
 H    2.0094585569    1.6270103124   -1.3114225073
 H    2.7751638221    1.6679045434    0.2759967002
 H    4.5530976320   -0.6044888906    0.4961324252
 H    3.8963028123   -1.5590515946   -0.8112916416
 H    5.5004447770   -0.7896808636   -1.0213346137