14

 C    0.0059803736    1.4813801576   -0.3068449981
 C   -0.0475563735   -0.0043941329    0.0906125407
 C   -1.4344469061   -0.5610536085    0.0591469016
 N   -2.1002756239   -0.8911660529    1.1318750751
 O   -3.3242483362   -1.3424964889    0.7027488309
 N   -3.4328675531   -1.2995718590   -0.6418695526
 C   -2.2858885852   -0.8222426639   -1.0658997002
 C   -2.0000271497   -0.6276379224   -2.4434738545
 N   -1.7117680959   -0.4479997631   -3.5489045253
 H    1.0374388170    1.8404998610   -0.2657452698
 H   -0.3632498635    1.6361155767   -1.3247007503
 H   -0.5964819364    2.0895980804    0.3734536294
 H    0.5806532416   -0.5906181172   -0.5895706714
 H    0.3474479015   -0.1446466168    1.0999914146