14

 N    0.0077506693    1.3499793203    0.1257872609
 C   -0.0420729641   -0.0136823774    0.0292853351
 N   -1.1812274189   -0.6229733221    0.0173086883
 C   -1.1938363250   -2.0106053329   -0.0042383233
 N   -2.2300756980   -2.7506409453   -0.0006308817
 N    0.0584700407   -2.6587988868   -0.0443663110
 C    1.2813535219   -2.0532206539   -0.0264987580
 O    2.3516584931   -2.6159842559   -0.0245146492
 N    1.1756384457   -0.6557517794   -0.0101193912
 H    0.7920545178    1.8316094459   -0.2852723454
 H   -0.8871672535    1.7955085643   -0.0102658810
 H   -3.0560481893   -2.1555203235    0.0291639843
 H    0.0466122363   -3.6680156381   -0.0573487971
 H    2.0474701239   -0.1623066653    0.1029391491