21

 C   -0.0231561104    1.4394041091    0.0753652614
 O    0.0658510130    0.0269747008   -0.0601272713
 C   -1.1076511890   -0.6360859750   -0.0229980054
 N   -1.1475602023   -1.8825673903   -0.1830436707
 C   -2.4412131015   -2.5339914474   -0.1111330824
 C   -2.7309571179   -3.3716069887   -1.3700785469
 C   -4.0030408356   -4.2044142799   -1.1719218368
 C   -2.8255240805   -2.4932038154   -2.6223918668
 H    1.0016161595    1.8124043765    0.0884264207
 H   -0.5581992295    1.8917455990   -0.7687370858
 H   -0.5195977235    1.7246932092    1.0111402435
 H   -1.9862957931    0.0028019091    0.1637837449
 H   -2.4322556755   -3.2065692360    0.7570697324
 H   -3.2679998611   -1.8157541039    0.0471971171
 H   -1.8812835381   -4.0551051431   -1.4955501932
 H   -4.8783792594   -3.5603096197   -1.0230287566
 H   -4.2021470950   -4.8323195183   -2.0462101756
 H   -3.9211805073   -4.8613497347   -0.2992267910
 H   -2.9904467141   -3.1008963882   -3.5181307310
 H   -3.6622415639   -1.7871090230   -2.5429419977
 H   -1.9086030649   -1.9160685900   -2.7688498887