17

 C   -0.0208981572    1.5550626034    0.2612331101
 C   -0.0186957584    0.0495160112   -0.0297302482
 O    0.7778872997   -0.6402353494    0.9180432462
 C   -1.4324165163   -0.5459580167   -0.0648611380
 C   -2.4599579557    0.1406579733   -0.9347651140
 C   -1.6013123266   -1.9638060597    0.2784282290
 O   -1.8956627654   -0.9359588137    1.2432789925
 H    1.0102091593    1.8977272472    0.3757883841
 H   -0.4872617184    2.1294781122   -0.5446173685
 H   -0.5594891513    1.7674787009    1.1915425130
 H    0.4516809498   -0.1283650006   -1.0054591167
 H    0.2284959832   -0.7093278850    1.7116992198
 H   -2.1122621008    0.1928891460   -1.9724973547
 H   -3.4053911190   -0.4065336740   -0.9150999201
 H   -2.6515049479    1.1611534768   -0.5915391842
 H   -2.4715940319   -2.5018350838   -0.0937567550
 H   -0.7276278831   -2.5680356880    0.5056087647