14

 O   -0.0690820857    1.3690738502    0.0744754025
 C    0.0580928000   -0.0064653672    0.0599553799
 C    1.0682012102   -0.8067849364    0.8785292054
 C    0.5107907340   -2.1675507247    0.4124431797
 O   -0.8748051494   -2.0845817811    0.7372265170
 C   -1.1696415624   -0.8988393130    0.0234731637
 C   -0.2135289667   -0.8955901466   -1.1555877928
 O    0.5555454119   -2.0761058563   -1.0119058414
 H    0.6655800995    1.7476917082   -0.4219691815
 H    2.1048706554   -0.6580602952    0.5667920732
 H    0.9604701338   -0.6590357885    1.9546542407
 H    0.9459980347   -3.0992418287    0.7623635965
 H   -2.1990976603   -0.5740754454    0.0312486918
 H   -0.4246852851   -0.5789394454   -2.1661937446