15

 C    0.0338706035    1.5147136880    0.2400388639
 C   -0.0237874229    0.0426121985   -0.0336895047
 C   -1.1593010059   -0.6068399254   -0.3273091781
 O   -1.1888121835   -1.9524529080   -0.5735112522
 C   -0.0373379591   -2.6986627551   -0.5269807079
 N   -0.0165064801   -3.9454681679   -0.7457708982
 C    1.1718237974   -1.9137828012   -0.1987615743
 O    2.2991788398   -2.6282619966   -0.1511028227
 N    1.1854992124   -0.6510978628    0.0298640479
 H    0.7005939950    2.0132939788   -0.4719596709
 H   -0.9555902914    1.9729702795    0.1683868308
 H    0.4337117867    1.7051452596    1.2420005230
 H   -2.1427403197   -0.1644954579   -0.4011548104
 H   -0.9564618081   -4.2876303227   -0.9530368198
 H    3.0040667760   -2.0013976569    0.0709601635