18

 C    0.0375000314    1.5314709208    0.2533190595
 N    0.0929075572    0.0974350699    0.0474136291
 C    0.2743053019   -0.4642568025   -1.1838092002
 O    0.4113048783    0.2067217902   -2.1952419482
 C    0.2835481172   -1.9850489900   -1.1476184208
 C   -0.5913846096   -2.8605510449   -2.1003640100
 C    0.3150450042   -2.5100636641   -3.3019619741
 C    1.1920993287   -2.8471585124   -2.0746493454
 O    0.3023621813   -3.9997967817   -1.7877643530
 H    0.1725964842    2.0038951047   -0.7200638434
 H   -0.9287273568    1.8372642406    0.6698343734
 H    0.8319673437    1.8673422328    0.9288616063
 H   -0.0128027323   -0.5088305217    0.8432159566
 H    0.2681931572   -2.3802760029   -0.1288741126
 H   -1.6666425410   -3.0359118878   -2.0547507839
 H    0.3305143450   -3.2707303268   -4.0831555301
 H    0.3187259508   -1.4832591870   -3.6593087282
 H    2.2675315185   -3.0095022870   -2.0004126348