13

 O    0.0415513776    1.3543172817    0.2820966003
 C   -0.0154827551    0.0246648967    0.0279006044
 C   -1.1820190385   -0.6177264401   -0.1367227470
 O   -1.1989963696   -1.9687639666   -0.3935247832
 C   -0.0433564931   -2.6918274112   -0.4881431073
 N   -0.0156569048   -3.9376831852   -0.7232918503
 C    1.1857674312   -1.8937041105   -0.2917179759
 O    2.3226995382   -2.5824260910   -0.3805701448
 N    1.1970785701   -0.6301720633   -0.0517481356
 H    0.9774928302    1.5759728362    0.3585675847
 H   -2.1665180531   -0.1806251098   -0.0899920932
 H   -0.9643612237   -4.3018853074   -0.8271591556
 H    3.0430686506   -1.9513878996   -0.2344862566