20

 C    0.0705279668    1.4596176786   -0.3191104821
 N    0.0386823574    0.0250276216   -0.0339606557
 C   -1.0454799129   -0.5005684842    0.8886654064
 C   -0.1323385023   -1.7412855773    1.0834119468
 C    0.7967960142   -0.4911891757    1.1902470977
 C    2.2889971021   -0.4312902898    1.3208986093
 C   -0.3070550552    0.1193884651    2.0874466159
 C   -0.4558562995    1.2541695939    2.9853964162
 O   -0.5228374887   -0.1095952330    3.4609805188
 H    1.0345660414    1.7006427436   -0.7791636434
 H   -0.7075998649    1.6807653253   -1.0571613265
 H   -0.0748949756    2.1283159699    0.5406376958
 H   -2.1018183030   -0.4654743948    0.6219617980
 H   -0.2788118157   -2.3265369047    1.9916863743
 H    0.0172220306   -2.3420412251    0.1856667266
 H    2.7712222052   -0.9815897040    0.5072595578
 H    2.6485116120    0.6031690632    1.2950438436
 H    2.6026604285   -0.8734518212    2.2717216609
 H    0.4191257212    1.8145907866    3.3130749634
 H   -1.3954089815    1.8040964919    3.0251394562