21

 C   -0.0756898196    1.2629699440   -0.3016037035
 O    0.8090282191    0.1674535316   -0.5473279717
 C   -0.4433065512   -0.1042816265    0.0881853416
 C   -0.3775605225   -0.5718599055    1.5260435116
 C   -1.7490698368   -0.4631025290    2.2617856927
 C   -2.2847266114   -1.8808614355    2.3999318180
 C   -2.4005758278   -2.7228981269    1.1530381991
 C   -1.1845510642   -2.8528648919    2.0368423086
 C    0.0613981579   -2.0623082327    1.6652194003
 H    0.2541755275    1.9667392166    0.4621586401
 H   -0.5173460951    1.7167794489   -1.1879239206
 H   -1.1488943112   -0.6279601351   -0.5591169268
 H    0.3616350197    0.0701673090    2.0145398509
 H   -1.6025756497   -0.0335129695    3.2586080573
 H   -2.4396154419    0.2035518507    1.7314202196
 H   -2.9679583166   -2.0875249809    3.2165382736
 H   -3.1158156555   -3.5383517956    1.1727360317
 H   -2.3054857028   -2.2546291449    0.1790671002
 H   -1.0541710188   -3.7790905938    2.5859157414
 H    0.5463066954   -2.4213737553    0.7508701141
 H    0.7999084455   -2.1564088977    2.4686180116