16

 N   -0.3316471906    1.1286979034   -0.6275345918
 C   -0.1671837569   -0.0563310909   -0.2374062647
 O   -1.2367590905   -0.8925794608   -0.1805277574
 C   -0.9714724288   -2.2285617698    0.1866702489
 C   -2.3101942978   -2.9590992749    0.3255381231
 C   -2.5377230406   -3.4856909991   -1.0943226235
 C   -1.1304540052   -3.5937838420   -1.6680977547
 O   -0.7509770431   -4.1673077085   -2.6410032118
 O   -0.2653990019   -2.8951293643   -0.8524134655
 H    0.5527969800    1.6320545188   -0.5992317198
 H    0.7712256533   -0.5234860740    0.0848132646
 H   -0.3331544954   -2.2603115164    1.0748687313
 H   -2.2007571808   -3.7824568003    1.0359511402
 H   -3.0844565715   -2.2829476044    0.6868583091
 H   -3.0415566740   -4.4507015906   -1.1533542540
 H   -3.0981544864   -2.7759783160   -1.7110172940