15

 O   -0.0858239983    0.1031206099    0.5004593085
 C   -0.0744825884    1.1885861081   -0.0079270662
 C   -1.2633681024    2.0718351080   -0.3001332789
 C   -0.7466979983    3.2416116882   -0.7027059058
 N   -0.6472063541    4.5482310457   -0.0621351855
 C    0.8503017311    4.2259124670    0.0118200166
 C    1.2538695090    3.0426639943    0.9625304342
 N    1.1533269333    1.9952965424   -0.1730138928
 C    0.7167934493    3.1192876544   -1.0350952877
 H   -2.2193014630    1.8708079874    0.1624474240
 H   -0.7789927347    5.3439174833   -0.6863476674
 H    1.5108441624    5.0910134377   -0.0324779544
 H    2.2893747269    3.1195763694    1.2964667881
 H    0.6029548836    2.8490653458    1.8174429587
 H    1.0672746736    3.1658121183   -2.0671263013