18

 C   -0.3142008377    1.3794434416   -0.2018994629
 N    0.1594034757    0.0148908550    0.0325994365
 C    0.7940827905   -0.5702314853   -1.1326456485
 C    1.1306186616   -2.0720900235   -1.0124835564
 O    0.1971827814   -2.3859668496   -2.0888293355
 C   -0.1667697333   -1.0534002362   -2.2090575002
 N   -1.0029745249   -0.5000550288   -2.9552019327
 C   -1.7888502431   -1.3150279031   -3.8724615020
 H    0.4825373544    2.0810118933   -0.5062390279
 H   -1.0645660573    1.3623083999   -0.9958219121
 H   -0.7800231514    1.7601650264    0.7112156944
 H    0.8263948559    0.0163443818    0.7986196605
 H    1.6168524125    0.0343995000   -1.5524102214
 H    2.1474517467   -2.3731195900   -1.2752335659
 H    0.8138358365   -2.5299212108   -0.0722965996
 H   -2.8532306398   -1.1473321001   -3.6754669394
 H   -1.5977581087   -0.9832595970   -4.8990382363
 H   -1.5830049490   -2.3894732336   -3.8060879507