17

 C    0.1526790500    1.3105159799    0.6389671233
 C   -0.0193074939   -0.0656481334    0.0322038577
 C   -1.3302107960   -0.5749049850   -0.3854601329
 O   -0.3847997487   -0.1090889328   -1.3514746571
 C    1.4470877467    1.9568452245    0.2408716588
 N    2.3111749921    2.3739352112    1.1657737851
 N    3.3364125022    2.8910714925    0.4607247948
 C    3.1529399557    2.8130141215   -0.8797085355
 C    1.9302501394    2.2083599296   -1.0671405523
 H   -0.6949402698    1.9320972369    0.3256890090
 H    0.1224933266    1.2368530136    1.7312095830
 H    0.7483255014   -0.7914980009    0.3045183031
 H   -1.5201883671   -1.6472278040   -0.3960636717
 H   -2.2131177763    0.0502224537   -0.2556826490
 H    4.1214365133    3.2775497706    0.9558541637
 H    3.8891317177    3.1841056172   -1.5753233579
 H    1.4480717467    1.9685806250   -2.0001767619