16

 O   -0.1245864850   -0.0733669512    0.0390845380
 C   -0.0414624325    1.1325149652    0.1081145651
 C    1.1883536277    1.8748602240    0.0462668476
 C    2.1973697222    2.5384418418   -0.0079400162
 C    3.4208837416    3.3074551503   -0.0701483348
 C    4.1514527606    3.4598179160   -1.4711410371
 C    4.0486107637    4.9782627109   -1.3057356901
 N    2.6000848667    5.2777534110   -1.2189032767
 C    3.3319355388    4.8476311496   -0.0101524923
 H   -0.9446897525    1.7656624899    0.2278502601
 H    4.1314646597    2.9315986069    0.6722347329
 H    5.1701345596    3.0713547735   -1.4348932973
 H    3.6198260497    3.0487793022   -2.3304247475
 H    4.7552059193    5.7283444558   -1.6367350935
 H    2.4991731138    6.2906868247   -1.1616741973
 H    3.3559802667    5.4590393893    0.8830026392