15

 O   -0.1878633844    1.5544703508    0.0479763391
 C    0.0153504393    0.1793977185   -0.0603385577
 C    0.1079879404   -0.7082792990    1.2359109645
 C   -1.3882571152   -0.3591054237    1.5086514968
 C   -1.2706030078   -0.6887752436   -0.0114578203
 N   -0.3421991671   -1.8241038116    0.3383184796
 C   -0.6973617380   -3.0821977968    0.7521997228
 O   -0.1827914545   -3.6836181048    1.6688239025
 H    0.6697608191    1.9854003804    0.1141504188
 H    0.7223949721   -0.0997596890   -0.8484340254
 H    0.9290055920   -0.8379178502    1.9378811488
 H   -1.9377937673   -1.0802499688    2.1148807931
 H   -1.6123166173    0.6753062297    1.7675216616
 H   -2.0505041191   -0.7896072849   -0.7658976727
 H   -1.4580979120   -3.5329561270    0.0818591087