18

 O    0.0323784570   -0.1007305112   -0.0633300640
 C   -0.0178269016    1.1165109373   -0.0499867516
 N   -1.1981022513    1.8000043934   -0.1458427248
 C   -1.3762627980    3.2433169405   -0.0540160686
 C   -0.1079127707    4.0118708643   -0.4103743994
 C    1.0944438835    4.1429905481    0.4953546672
 C    1.2609243265    2.8994355196    1.3689333821
 C    1.2029584124    2.0057375379    0.0747129938
 C    1.1569036176    3.2940886172   -0.7727815373
 H   -2.0207363595    1.2165228441   -0.1814251804
 H   -2.1708986081    3.5278042037   -0.7533515515
 H   -1.7242985713    3.5328287074    0.9492800319
 H   -0.2929429627    4.9089151030   -0.9930571554
 H    1.5376460816    5.1124884882    0.6891195630
 H    2.2463784783    2.8422561435    1.8348199126
 H    0.5014734590    2.7180977490    2.1367918719
 H    2.0892956027    1.3898788300   -0.0622456128
 H    1.6883347246    3.4535300140   -1.7023326266