17

 C    0.0488969499    1.4089463649   -0.0983821735
 O   -0.0085121262   -0.0054371466    0.0167989678
 C   -1.2789694424   -0.5876094805    0.0374942186
 C   -2.1273524242   -0.2746584837   -1.1876535503
 C   -1.0759547784   -2.0915384818    0.3537918388
 N   -1.5246634664   -2.2730715180    1.7407992507
 C   -1.9964112787   -1.1519198659    2.0911207096
 O   -2.0053484757   -0.1157116459    1.2147538843
 H    1.0896434203    1.6868330338    0.0800719368
 H   -0.2385542338    1.7543526667   -1.0996936300
 H   -0.5862452232    1.8970077110    0.6487863858
 H   -1.5922133002   -0.5731955199   -2.0936970791
 H   -3.0695141179   -0.8251162931   -1.1370970132
 H   -2.3632695669    0.7900146365   -1.2517257111
 H   -1.6559854830   -2.7386362309   -0.3123151766
 H   -0.0191940414   -2.3501456738    0.2508934171
 H   -2.4267365119   -0.9247892927    3.0605464843