18

 C   -0.1835136022    1.5940281500    0.1115311235
 C    0.0978832538    0.1115741330    0.0190331493
 C   -1.0745519264   -0.8783348491    0.2441012440
 O   -0.3356746161   -1.5896102503    1.2615555027
 C    0.7759991106   -0.6676855333    1.1830048764
 C    2.0234222775   -1.2851456024    0.5654534469
 C    1.6557986947   -1.3143977776   -0.9267571165
 O    0.8682640575   -0.1435084401   -1.1445311253
 H    0.7527730729    2.1588995423    0.1427948162
 H   -0.7501471454    1.9282608147   -0.7635119241
 H   -0.7655076945    1.8262310699    1.0077236746
 H   -1.9933698884   -0.4317488256    0.6444838229
 H   -1.3202948618   -1.5103639499   -0.6172688887
 H    0.9445488766   -0.1518534795    2.1336270628
 H    2.8845683431   -0.6312137666    0.7407414857
 H    2.2416945796   -2.2733329377    0.9772184484
 H    2.5145401219   -1.2662646855   -1.6005584896
 H    1.0797434868   -2.2206400521   -1.1623287494