18

 C   -0.5048705330    1.3392856520    0.0591200363
 C    0.1077950337   -0.0520425962   -0.0558759491
 C    1.2075168852   -0.2081107951   -1.1142000137
 O    1.9559453373   -1.3676634501   -0.7488305334
 C    1.6906464761   -1.7145591015    0.5985806268
 C    0.8695599938   -0.5494127517    1.1973470605
 O    1.6967224122    0.5149020136    1.6385580137
 C   -0.0214622835   -0.9928972834    2.2834117083
 N   -0.6999565519   -1.3380790888    3.1531021725
 H    0.2570705886    2.0826733327    0.3019608234
 H   -0.9796004335    1.6232400830   -0.8850672071
 H   -1.2711327250    1.3664551005    0.8393307756
 H   -0.6773292096   -0.7893534764   -0.2588982637
 H    0.8020976529   -0.3566872515   -2.1198502517
 H    1.8615404881    0.6744234886   -1.1259417000
 H    1.1270600979   -2.6564186972    0.6512849213
 H    2.6327377234   -1.8465945388    1.1452868380
 H    2.2475154974    0.1987179103    2.3632012022