12

 O   -0.7880158739    1.6966852918    0.3223070403
 C    0.1828297185    1.0537218473    0.0190893118
 C    1.5719746276    1.6770090012   -0.1896589086
 O    2.5131126244    0.9889438398   -0.4935314581
 N    1.5421860309    3.0432229748    0.0159275820
 C    2.6092026434    3.9461424118   -0.0830426518
 O    3.7370576240    3.6401190772   -0.3713390588
 C    2.1915828934    5.3086073196    0.2056664366
 C    1.8682689082    6.4423963802    0.4406926962
 H    0.1770756746   -0.0411114587   -0.1395040948
 H    0.6300352298    3.4087795859    0.2662383473
 H    1.5960788690    7.4496325889    0.6462842878