18

 C   -0.0131528100    1.5719499553    0.1551758424
 C    1.5366011510    1.5454393307   -0.0172048697
 O    2.0120906906    1.7771716229   -1.3324510544
 C    1.7391576551    0.6472007171   -2.1395409413
 C    0.2387377525    0.4073473387   -2.4729630671
 N    0.0983725360   -0.5760714264   -1.3497438787
 C   -0.0417433807    0.0327740648    0.0328204160
 C    1.5107847364   -0.0036490173    0.2235203891
 C    1.6066555007   -0.5813718577   -1.1894697196
 H   -0.2735066568    1.8609799947    1.1788654235
 H   -0.5929827086    2.1865647264   -0.5373388725
 H    2.1122446567    2.1840401225    0.6541914387
 H    2.4530217202    0.6470067276   -2.9657420124
 H   -0.4247285790    1.2751115228   -2.4564310604
 H    0.1075196276   -0.1179699497   -3.4248748004
 H   -0.7577599400   -0.5163276143    0.6457725649
 H    2.0446147820   -0.4363518725    1.0666019076
 H    2.1468536262   -1.5052918256   -1.4010186056