14

 N   -0.0036459145    1.3176229257    0.1449576344
 C   -0.0030352779   -0.0467652103    0.0499147914
 N   -1.1007100801   -0.7652969576   -0.0298202914
 N   -0.5886172230   -2.0593823235   -0.0228575464
 C   -1.3917511475   -3.1915548260   -0.0046406424
 O   -2.5904391140   -3.1925354846   -0.0535953215
 C    0.7908276433   -1.9900962203    0.0285510395
 N    1.6128678253   -3.0847076968    0.0925343209
 N    1.1896836234   -0.7457584874    0.0757769473
 H    0.8434820095    1.7623711223   -0.1714267862
 H   -0.8559536166    1.7667478438   -0.1528044227
 H   -0.7787453456   -4.1093057142    0.0693743032
 H    1.3578903181   -3.8857175832   -0.4647113252
 H    2.5868619196   -2.8328242580    0.0012231191