19

 C    0.0442427058    1.3984722102    0.0149792278
 O   -0.0470431034   -0.0140772397   -0.0448240962
 C    0.6278770290   -0.5685080474   -1.1194321401
 O    2.0584650220   -0.4108074612   -1.0081298061
 C    2.5895541444   -1.7416922847   -0.8987032923
 C    2.1074964886   -2.3378851930    0.4311829273
 O    0.7100036513   -2.5939729641    0.1825590851
 C    0.4590975402   -2.1031086640   -1.1343059456
 C    1.7210135025   -2.5184299466   -1.9038553478
 H    1.0802477374    1.7262173638    0.1593080127
 H   -0.3495548657    1.8642548935   -0.9014149824
 H   -0.5608455623    1.7202538726    0.8650052617
 H    0.3102911413   -0.0856279826   -2.0590962545
 H    3.6681312481   -1.7073245917   -1.0468817130
 H    2.6136359130   -3.2754586748    0.6933212153
 H    2.2182879488   -1.6182892754    1.2486578312
 H   -0.5139229917   -2.4591044594   -1.4685292620
 H    1.7978177480   -2.1155173628   -2.9152388307
 H    1.8696308227   -3.5998395726   -1.9025934706