18

 C    0.1825919831    1.6038677628    0.0417692280
 C    0.0142962972    0.0756585336    0.0230652307
 C    0.7083889305   -0.5925310871   -1.1874411053
 O    0.9339527752    0.2458997628   -2.2893889549
 C    2.0343429967   -1.1197550769   -0.6089260619
 O    2.9988982068   -1.3344340940   -1.3237205105
 C    1.8704284717   -1.2311324588    0.8219206718
 C    0.7255570379   -0.5890077288    1.1924017034
 N    0.1984960922   -0.4868560726    2.4334638115
 H    1.2407709623    1.8778700080    0.0341086914
 H   -0.2818021646    2.0399832151   -0.8443499613
 H   -0.2810895705    2.0444512419    0.9307948996
 H   -1.0559297268   -0.1629016624    0.0567868979
 H    0.1145668570   -1.4722186530   -1.4890619092
 H    1.8156360980   -0.0081066911   -2.6067927449
 H    2.5869074117   -1.6972082345    1.4856866769
 H    0.7198076664   -0.8014857588    3.2347222181
 H   -0.5440539349    0.1676879639    2.6099371685