16

 O    0.0155154810   -0.0020381036    0.0122205307
 C   -0.0027536647    1.1964482513    0.0034181853
 C   -1.2356293524    2.1311514071    0.0154669987
 N   -0.6698324327    3.4977017533    0.0705053334
 C    0.5368996705    3.3448629516   -0.7838921992
 C    1.1949300698    2.1661152863   -0.0064242569
 C    1.1904217922    2.7864560466    1.4042329103
 O    1.9638737459    2.5943165009    2.2995740519
 C   -0.0553511901    3.7039727809    1.4010984500
 H   -1.8158985192    2.0011268980   -0.9044107289
 H   -1.8950323018    1.9185300688    0.8603871264
 H    0.2629851773    3.0946419300   -1.8113613117
 H    1.1361590325    4.2582168019   -0.7862551906
 H    2.1396882161    1.7246349648   -0.3100388313
 H    0.2471432644    4.7502675804    1.5175365402
 H   -0.7384439687    3.4598172819    2.2182169218