17

 N    0.1678308642   -0.9758926505    0.7864300066
 C    0.0856372224    0.1124759346    0.4092174116
 C   -0.0516555210    1.4929009898   -0.0826798302
 N   -0.9092966817    2.2771807329    0.8212506845
 C   -0.0048897566    2.8840352561    1.8138361624
 C    1.3178381525    3.1994549005    1.0788982526
 C    2.5914869786    2.4349034019    1.5027079094
 O    2.4561494669    1.5114984014    0.3963646338
 C    1.3316014421    2.2336343344   -0.1264835344
 H   -0.5120455129    1.4452119799   -1.0737012966
 H   -1.3603444239    3.0061040077    0.2784614891
 H   -0.4785526281    3.7610321893    2.2595486380
 H    0.1685192582    2.1576576986    2.6166280218
 H    1.4454819716    4.2612613494    0.8661580541
 H    3.5221937765    3.0080821381    1.4281679672
 H    2.5537790225    1.9241533594    2.4717947253
 H    1.5350698984    2.6364648067   -1.1243302653