19

 O   -0.1351946347    1.4194591916   -0.3547966781
 C    0.0034591951    0.0704461637    0.0902946944
 C   -1.3780611984   -0.5295636871    0.0598630389
 O   -2.2943543674    0.1764678458    0.8461124672
 C   -1.8890346126   -1.1990659358   -1.2028271309
 C   -1.5814696659   -2.0045187547    0.0303897988
 C   -0.5859682269   -3.1390671649    0.2561886889
 O   -1.5162814831   -3.8083627847    1.1316756836
 C   -2.5310971242   -2.7963666700    0.9207480666
 H    0.6396989570    1.9147078588   -0.0752904492
 H    0.6883421167   -0.4971556048   -0.5565250404
 H    0.3932943402    0.0378998618    1.1182442544
 H   -2.1967881083    1.1020424316    0.5875551550
 H   -2.9347767318   -1.0448077637   -1.4479224706
 H   -1.2214194141   -1.2829187562   -2.0554773258
 H   -0.3504662552   -3.7404767730   -0.6326180406
 H    0.3498410680   -2.8807448687    0.7702500348
 H   -2.8274499578   -2.3028631154    1.8529142098
 H   -3.4204304264   -3.2060112244    0.4247687431