17

 C   -0.9642427821    1.4007729176    0.3564919066
 C    0.1117853154    0.3950915062   -0.0463838204
 O    0.9166503125    1.0428902475   -1.0520094546
 C    1.7728154469    0.2348623897   -1.7502520487
 O    1.5277705860   -0.2235805308   -2.8240140599
 O    2.9562139854    0.0405850737   -1.1458441733
 C    3.1756441804    0.6204410932    0.1558560025
 C    2.2646703908    0.0748930564    1.2287214510
 C    0.9432569020   -0.0457619571    1.1275407984
 H   -0.5052273558    2.2935663791    0.7896936825
 H   -1.5480983887    1.6919558478   -0.5194951073
 H   -1.6362856629    0.9588892600    1.0975104138
 H   -0.3742798684   -0.4782715617   -0.5072036103
 H    4.2129741436    0.3653344662    0.3791460787
 H    3.1012713773    1.7103679789    0.0814047318
 H    2.7545677119   -0.2545891061    2.1405042518
 H    0.3803268956   -0.4878544107    1.9466737573