19

 C   -0.0973719640    1.6105634193    0.0009939622
 C    0.0832274342    0.0886915044    0.0323346943
 C   -1.1199870973   -0.6348096998   -0.5732455841
 C    1.3591135097   -0.6869162879   -0.2332600968
 C    2.6510492055   -0.1481148868    0.4411525834
 N    2.3581136354    1.1173006706    1.1649187782
 C    2.0119705093   -0.1966162277    1.7688461327
 C    0.6943818776   -0.7373670152    1.1477345392
 H    0.6847022376    2.1025922105   -0.5777446084
 H   -1.0640340323    1.8534964017   -0.4555371282
 H   -0.0752921199    2.0449040812    1.0007623529
 H   -1.2666887910   -0.3281705590   -1.6148813476
 H   -0.9991850623   -1.7226302607   -0.5548162270
 H   -2.0335608853   -0.3863402326   -0.0217025037
 H    1.3967506122   -1.4735526567   -0.9781069301
 H    3.6595521238   -0.3978015250    0.1376807196
 H    3.2343044697    1.4118366526    1.5974250053
 H    2.4116508027   -0.4925094924    2.7302095679
 H    0.1587658441   -1.5675087364    1.5938176702