20

 C   -0.0450710222    0.9263182794   -0.9141185526
 N   -0.2503811363    0.0944259609    0.2638609892
 C   -1.4675163115   -0.6481107744    0.2823843122
 C   -1.6718021914   -2.0503968346   -0.2902107657
 N   -0.6787654252   -2.8436426549   -0.9366805628
 C   -0.5761719647   -2.6599965254   -2.3781403707
 C   -1.5973503348   -1.8470321622    1.2249603823
 C   -0.4145524030   -2.2945099217    1.8994687564
 N    0.5714698866   -2.6416034034    2.3989049301
 H    0.8975058021    1.4697499744   -0.8060272590
 H   -0.0226427696    0.3785049350   -1.8703176097
 H   -0.8490643498    1.6684722359   -0.9778844415
 H    0.5561651003   -0.4829895371    0.4659625971
 H   -2.3444540759   -0.0030751463    0.2647358603
 H   -2.6738144624   -2.2642233037   -0.6583639733
 H    0.2228653857   -2.7773104491   -0.4811515237
 H    0.1900622536   -3.3348718641   -2.7691079904
 H   -1.5283308674   -2.9340914521   -2.8466629174
 H   -0.3319029206   -1.6340156564   -2.6986238194
 H   -2.5079064736   -1.9508104002    1.8040257787