20

 C   -0.0947124928    1.4966193194    0.0891266540
 C    0.0051238846   -0.0119002314    0.0441273293
 C   -1.2258676760   -0.7403882684   -0.5163768055
 C   -1.4832144103   -2.0666264979    0.2168939280
 C   -0.2449877508   -2.9823532179    0.2608005344
 C    0.0937423740   -2.0937800478    1.4736311233
 O   -1.3397735565   -1.8421559301    1.6499163439
 C    0.7452847368   -0.7656191984    1.0986055527
 N    1.3620818239   -0.5262359579   -0.2198325848
 H    0.8328329731    1.9284045506    0.4726183510
 H   -0.2676790692    1.9072382607   -0.9128679426
 H   -0.9237718444    1.8132634854    0.7311162013
 H   -2.1018708619   -0.0994797009   -0.3702183992
 H   -1.1345019254   -0.9074472491   -1.5982594553
 H   -2.4537109245   -2.5003367103   -0.0380755881
 H   -0.5072168527   -3.9912905777    0.5821250000
 H    0.4270335332   -3.0381151021   -0.5982680009
 H    0.5381474040   -2.5533517523    2.3588282691
 H    1.2217770033   -0.2278942407    1.9147568458
 H    1.3395338916   -1.3641179831   -0.7931520263