16

 C    0.0741445950    1.4741861611    0.0460965380
 O    0.0659368680    0.0522356381   -0.0187580902
 C    0.6210983241   -0.5934915785    1.0189525494
 C    0.7017602533   -1.9409242040    1.1657161531
 N    0.3010113741   -3.0218927499    0.4087309122
 O    1.3720274639   -2.1346564169    2.4129523146
 C    1.6089178548   -0.8992565160    2.8569268641
 N    2.1919808275   -0.7749114508    4.0941587410
 N    1.2009033638    0.0701042347    2.0884441945
 H    1.0952858475    1.8669179498    0.0865712864
 H   -0.4185699744    1.8128212643   -0.8668489338
 H   -0.4726356405    1.8377077479    0.9221573534
 H   -0.3896181332   -3.6141818365    0.8566101187
 H    1.0602241121   -3.5967751647    0.0599818996
 H    2.8024410211   -1.5368691094    4.3504861742
 H    2.5956212227    0.1369397308    4.2494582448