23

 C    0.0184613392    1.5401918860    0.1669770639
 C   -0.0080041875    0.0390807573   -0.1529164501
 C   -1.3936773192   -0.5453514644   -0.1171258506
 C   -2.0582539099   -1.0132244595    1.1499075411
 C   -1.8582198401   -1.9975324116    0.0270262851
 C   -2.9426606214   -1.7898513636   -1.0239772103
 C   -2.4805495584   -0.2978304650   -1.1798066993
 O   -2.6984244965   -2.5909622676   -2.1541374313
 C   -3.6571849983   -2.4213920457   -3.1724886009
 H    1.0378028905    1.9360914528    0.1226886533
 H   -0.5899678167    2.1070644709   -0.5459147472
 H   -0.3777212078    1.7351012407    1.1689435967
 H    0.4326736467   -0.1310363517   -1.1443269337
 H    0.6277282593   -0.4997630885    0.5614422305
 H   -1.3967366190   -1.1478802074    2.0005626132
 H   -3.0591317626   -0.6785135473    1.4173865905
 H   -1.2808886866   -2.9078757958    0.1366007464
 H   -3.9797411328   -1.9352478244   -0.6774749539
 H   -3.2094295114    0.4923808467   -0.9696018903
 H   -2.0590759419   -0.1470693197   -2.1775169402
 H   -3.3925672812   -3.1017709011   -3.9855123473
 H   -4.6714455659   -2.6659595565   -2.8188832637
 H   -3.6707868984   -1.3928730945   -3.5645028218