23

 C   -0.0230876728    1.5502423590    0.0793528340
 C   -0.0127253749    0.0478934385   -0.0099499311
 C   -0.0101032756   -0.5954735058   -1.1806052983
 C    0.0443464789   -2.0957299469   -1.3417303110
 C    0.9915220646   -2.4919736079   -2.4776623268
 O    0.4676945973   -1.9788178189   -3.6950703209
 C    0.4357823043   -2.7902157340   -0.0289354939
 C   -0.3238348730   -2.1857224152    1.1553669115
 C   -0.0002336022   -0.6941186868    1.3087024434
 H    0.8416353057    1.9188674536    0.6475526664
 H   -0.0018055772    2.0152102070   -0.9099316999
 H   -0.9150830615    1.9111987907    0.6082723729
 H   -0.0355774117   -0.0281841490   -2.1076619128
 H   -0.9519252015   -2.4525183718   -1.6480124330
 H    1.9962478142   -2.0877671149   -2.2742902596
 H    1.0757064477   -3.5904366110   -2.5169311773
 H    1.1154356926   -2.1284556881   -4.3893336790
 H    0.2468681088   -3.8673945786   -0.1017156938
 H    1.5159914958   -2.6695198991    0.1363311647
 H   -1.4018794361   -2.3076076179    0.9888471558
 H   -0.0860439678   -2.7216501738    2.0806582362
 H    0.9862250285   -0.5684618670    1.7817666239
 H   -0.7111363641   -0.2225627121    2.0006493885