19

 C   -0.0417305629    1.5376214092    0.0096090675
 C    0.0327903674    0.0332147758    0.0233866952
 C    0.9736783838   -0.8248625820   -0.8972693437
 C    0.7019667869   -1.9448789426    0.1454374241
 C    0.6493103045   -0.8131755524    1.2077022884
 C   -0.7841715290   -2.2260936539   -0.1111039028
 O   -1.4090233075   -2.9476098605    0.9287860413
 C   -1.2551969159   -0.7500183597   -0.1341064776
 O   -2.3968371650   -0.3654945916   -0.1592783939
 H    0.9399248239    1.9880605923    0.1851668001
 H   -0.4170069063    1.9004156552   -0.9530284413
 H   -0.7292224288    1.8960969473    0.7822549563
 H    0.6730754382   -0.9888369567   -1.9370527604
 H    2.0027970504   -0.4607594197   -0.8577034804
 H    1.3584034071   -2.8067207028    0.2505667753
 H    1.6392317500   -0.4376225916    1.4770357913
 H    0.0424655409   -0.9781188182    2.1002448073
 H   -0.9457562713   -2.7106970403   -1.0871300537
 H   -2.3408943165   -2.6948871178    0.9205585070