21

 C    0.1169129352    1.2798128270   -0.4101200876
 C    0.9553715810    2.5744361909   -0.3661998694
 C    1.1695149670    3.2513727249    0.9936054209
 O   -0.0481586461    3.7633009607    1.5387404424
 C   -0.3805568887    3.2840712473    2.8378642168
 C   -0.4771654986    1.8230962998    2.8130282589
 C   -0.3647671019    0.7000333281    2.3893293126
 C   -0.1166628241   -0.4492577481    1.5304955334
 C    0.7194047588    0.0444460405    0.3136418864
 H   -0.8761677894    1.4980265243   -0.0059110774
 H   -0.0334752807    1.0321939131   -1.4667400969
 H    1.9522928072    2.3775049548   -0.7858103570
 H    0.4845281170    3.3090623674   -1.0309943839
 H    1.6445244239    2.5589555445    1.6973681961
 H    1.8537803821    4.1003956603    0.8565374721
 H    0.3600828302    3.6128777205    3.5845003090
 H   -1.3327777647    3.7591237498    3.0945042503
 H    0.4173798639   -1.2519797630    2.0519682171
 H   -1.0650479288   -0.8786235617    1.1827025515
 H    0.8241426825   -0.7926557735   -0.3852799257
 H    1.7300791641    0.2741487525    0.6700762104