16

 C   -0.4196444500    1.5995280185   -0.2581229046
 C    0.0124232128    0.1650746613   -0.0188328005
 C    0.8037336883   -0.5748262316   -1.1771492972
 C    1.9227188294   -0.6719444647   -0.1575977262
 N    3.0872138373   -1.1309050174    0.2317272626
 C    3.1400375275   -0.7130444400    1.5550913273
 C    2.0028542876   -0.0293814702    1.9465362595
 N    1.2439266322   -0.0068656407    0.7986332916
 H    0.4087548625    2.1952044581   -0.6527257338
 H   -1.2430735909    1.6264981258   -0.9789771248
 H   -0.7683648448    2.0648759799    0.6690903273
 H   -0.8138128006   -0.4355398476    0.3746425588
 H    0.3624983861   -1.5218288817   -1.4972131977
 H    1.0000074744    0.0468826671   -2.0547936358
 H    4.0084444120   -0.9219031765    2.1625252180
 H    1.7181013961    0.4311149196    2.8768159653