18

 C   -0.0430936477    1.5307817023   -0.1259400407
 C    1.4304160448    1.9711354838    0.0401083903
 C    2.0878127628    0.8771435574    0.9023129646
 O    1.9763001486    1.2309718638    2.3057617523
 C    0.8366034703    0.9027947730    2.9475375406
 N   -0.0876555437    0.1136010732    2.5860427396
 C    0.1120108774   -0.6135276438    1.3716924457
 C   -0.0036975869    0.0067510395   -0.0063473254
 C    1.3544159460   -0.4088896100    0.5402390651
 H   -0.6815278266    1.9715756319    0.6469826730
 H   -0.4483833569    1.8373558013   -1.0932017773
 H    1.9219028664    1.9664110948   -0.9393105571
 H    1.5621281899    2.9645007367    0.4771228585
 H    3.1634996830    0.8024473678    0.7394476140
 H    0.7869744565    1.4122746194    3.9083424141
 H   -0.2672466273   -1.6283875453    1.4418594264
 H   -0.4935557267   -0.5925628551   -0.7650875961
 H    1.9208895101   -1.2520026807    0.1650419625