23

 C   -0.2121753507    1.5035245098   -0.2072782110
 O   -0.0369488548    0.1112509083   -0.0762333249
 C    0.6829403597   -0.5792030549   -1.1111138164
 C    0.0087967941   -0.3981790819   -2.4811684341
 C    2.1463070918   -0.1125006108   -1.1638349533
 C    0.6368906211   -2.0522661454   -0.6575060437
 C   -0.7576157825   -2.6128978248   -0.5004081236
 C   -1.3740294125   -3.4974553316   -1.4989614098
 O   -0.8397216726   -4.0263821982   -0.2863593585
 H    0.7400448322    2.0494380325   -0.2577353134
 H   -0.8143924874    1.7756899060   -1.0852237640
 H   -0.7461643819    1.8316257931    0.6884860339
 H    0.1098071363    0.6266083130   -2.8495380696
 H    0.4749869551   -1.0571591122   -3.2200918528
 H   -1.0553223293   -0.6423137573   -2.4280447730
 H    2.6037204522   -0.1840023128   -0.1727066469
 H    2.7206127901   -0.7373323627   -1.8546682987
 H    2.2318785865    0.9212115261   -1.5109419901
 H    1.1991093880   -2.6728511537   -1.3632696969
 H    1.1452031913   -2.1208774648    0.3115643387
 H   -1.4182711400   -2.0275430451    0.1363953772
 H   -2.4586108211   -3.5425870163   -1.5934058187
 H   -0.8223394757   -3.7540582064   -2.4033597204