18

 C    0.4733738075    1.1635599582    0.5000756699
 N   -0.2975193592    0.3511367071   -0.4329980776
 C    0.5034557077   -0.3516523990   -1.4348514448
 C    1.1507737860   -1.6374691705   -0.9038999915
 O    0.1017399765   -2.5565384716   -0.6052685574
 C   -0.5361824503   -2.9503367679   -1.7720256958
 O   -1.0932913846   -1.8680451090   -2.5312503264
 C   -0.4336527492   -0.6754968976   -2.6083037826
 O   -0.6649078392    0.0773994296   -3.5083384270
 H    1.2671653927    0.6245707437    1.0464761109
 H    0.9435469393    1.9913690993   -0.0414594623
 H   -0.2063804597    1.5948610996    1.2399012491
 H   -0.8625476689   -0.3282262360    0.0659592025
 H    1.2577256053    0.3391801201   -1.8211350150
 H    1.8444659252   -2.0786840113   -1.6377684112
 H    1.6948612289   -1.4609593632    0.0266069986
 H    0.1585473365   -3.4907321903   -2.4349855601
 H   -1.3753367946   -3.5908185913   -1.4968075693