20

 C   -0.2208101872    1.2352229532   -0.5419863920
 C   -0.2101085933   -0.2489551720   -0.2309767795
 O    0.5609152512   -1.0173959905   -0.7600354999
 C   -1.2118033950   -0.7316344751    0.8270413527
 N   -1.3161026144   -2.1657191550    0.9935987014
 C   -2.1458447455   -2.8582709427    0.0351699140
 C   -1.6311640864   -3.3267806759   -1.3590116225
 O   -2.1325128770   -4.6592510732   -1.1181911474
 C   -2.3696402743   -4.3658134535    0.2715441094
 H    0.6502652053    1.4985484254   -1.1430241861
 H   -1.1311927257    1.4848556914   -1.1001866403
 H   -0.2386690211    1.8307397386    0.3769313668
 H   -0.9020831677   -0.2655992033    1.7762434528
 H   -2.2016503506   -0.3111255254    0.6088208853
 H   -0.3825697713   -2.5668653805    0.9955192216
 H   -3.0941815648   -2.3180800356   -0.0474857938
 H   -2.0788197221   -2.8748888888   -2.2519471057
 H   -0.5380956644   -3.2997193468   -1.4470632519
 H   -1.6080956827   -4.8139370447    0.9276212196
 H   -3.3616020130   -4.6894137757    0.6057862056