23

 C   -0.0177187230    1.5509355613   -0.0222704262
 C    0.0008985531    0.0210348490   -0.0191034589
 C    0.6901751069   -0.5306899345   -1.2678728682
 O    0.5746847710   -1.9406351091   -1.3673111679
 C    0.9311855819   -2.6630711638   -0.2244679157
 C    2.2511746758   -2.4871346508    0.4814175766
 C    0.9524573180   -2.0495435951    1.1541885822
 C    0.4404119640   -2.8739757010    2.3180586146
 C    0.6821702016   -0.5421593153    1.2418472568
 H    1.0002311671    1.9575943481   -0.0525821100
 H   -0.5602291459    1.9440025296   -0.8887044826
 H   -0.5009012140    1.9403818774    0.8798766646
 H   -1.0334330363   -0.3482741456   -0.0453050161
 H    0.2248793236   -0.1383732812   -2.1774060057
 H    1.7492523291   -0.2197984169   -1.2814266175
 H    0.5486628582   -3.6745978952   -0.3218100364
 H    2.7557873000   -3.3757952249    0.8471929697
 H    2.9215136642   -1.7060900185    0.1374747560
 H    0.6462774949   -3.9399578822    2.1759581071
 H    0.9176391209   -2.5679394226    3.2572819314
 H   -0.6428309947   -2.7567541562    2.4419203611
 H    1.6201251800    0.0017424124    1.4166956655
 H    0.0484615537   -0.3381701250    2.1123290798