21

 C    0.0005320893   -1.1551682575   -0.0753786805
 C    0.0509699209    0.0278343692    0.1305837150
 C    0.1380225067    1.4636264605    0.3661262158
 C    1.4174072333    2.0906059115   -0.2207177567
 C    1.4896933386    3.5882041698    0.0437172716
 O    2.6831392722    4.0825961186   -0.5358344148
 C    2.8593575663    5.4518285599   -0.3547276240
 C    3.4786208697    5.9531079126    0.9264500036
 C    4.2672276933    5.9472837514   -0.3697303339
 H   -0.0537240146   -2.2005556940   -0.2522420992
 H   -0.7443097895    1.9560890118   -0.0641666992
 H    0.0946396489    1.6576939498    1.4462680576
 H    2.2982971603    1.6056673514    0.2117404728
 H    1.4549478003    1.9129326387   -1.3000598044
 H    0.6137941973    4.0987770985   -0.3925855620
 H    1.4760720509    3.7942296245    1.1264378470
 H    2.0880970919    6.0678362689   -0.8202793603
 H    3.1458158754    6.9011247884    1.3346770744
 H    3.7465737082    5.2063424515    1.6656471675
 H    5.0395435032    5.1938300837   -0.4729184757
 H    4.4801970277    6.8900344608   -0.8605841046