19

 C    0.1190600874    1.4597428538    0.0959294727
 C    0.0067109586   -0.0416555689   -0.0144952439
 C    0.6616583578   -0.7237742155   -1.2622126610
 C    0.9814903670   -2.1455944333   -0.7051811474
 O    2.3706038578   -2.3926550914   -0.5957675494
 C    0.3283646119   -2.0447932810    0.7110156732
 O    0.7182572564   -0.7045438874    1.0568342995
 C   -1.1783474126   -1.9175076482    0.5561546642
 C   -1.3821173473   -0.6791071848    0.1129372389
 H    1.1681694146    1.7686586009    0.0705378825
 H   -0.4001422398    1.9435023950   -0.7371550450
 H   -0.3236638967    1.8127974179    1.0315861099
 H    0.0057502105   -0.7267131466   -2.1349632214
 H    1.5985067012   -0.2310194416   -1.5361931790
 H    0.5745373067   -2.9569463276   -1.3114304363
 H    2.7110127538   -1.7249179772    0.0129482971
 H    0.7162857106   -2.7651408583    1.4302762570
 H   -1.8930941406   -2.7172552964    0.6935956918
 H   -2.3053478675   -0.2119522094   -0.2037101935