21

 C   -0.2668087788   -1.2635181847   -0.2478374990
 C   -0.1497051173   -0.0721030716   -0.1338673315
 C   -0.0164346991    1.3781803129   -0.0019145244
 C   -0.7301026439    1.9120399114    1.2647193505
 C   -0.2163671098    1.3872216343    2.6098933560
 C    1.1980351971    1.8576932955    2.9972989535
 C    2.3245838475    1.2497368884    2.1950724408
 C    2.4322945941    1.2299607302    0.8669546534
 C    1.4629363279    1.8324869952   -0.1228048760
 H   -0.3681821638   -2.3153037595   -0.3515387411
 H   -0.5400347745    1.8300276605   -0.8562288000
 H   -0.6563487997    3.0080085212    1.2486697353
 H   -1.7949241363    1.6700620515    1.1751558218
 H   -0.9128740220    1.7226575726    3.3877575915
 H   -0.2489551140    0.2918405297    2.6099747654
 H    1.2377923334    2.9554627949    2.9182829654
 H    1.3604257838    1.6333842528    4.0566656920
 H    3.1225183823    0.7872027027    2.7719780324
 H    3.3080881045    0.7522250562    0.4347956635
 H    1.8027116345    1.6042154887   -1.1372464429
 H    1.4721611541    2.9289263270   -0.0366899164