18

 C   -0.2417568544    1.5263779401   -0.2146175223
 C   -0.1644515851    0.0394341007    0.0274167708
 C    1.0718413465   -0.7272348763   -0.2718270376
 N    0.6775186031   -0.5245662225    1.1232202859
 C    1.4702152041    0.3378962753    1.8849732433
 N    2.6093802355    0.9142710102    1.5668545716
 C    2.9913257510    1.6131435594    2.6938275467
 C    2.0734069433    1.4594478302    3.6947132437
 N    1.0991296496    0.6366214515    3.1631700720
 H    0.7384257466    1.9961723771   -0.1075242488
 H   -0.6099460681    1.7189748607   -1.2278165189
 H   -0.9334401437    2.0059917506    0.4869639053
 H   -1.1125013173   -0.4885764320   -0.0538624501
 H    1.0136908775   -1.7565666323   -0.6146555785
 H    1.9374333330   -0.1671568626   -0.6129891648
 H    3.9064296186    2.1851984291    2.7134954859
 H    2.0166676532    1.8377189061    4.7014741395
 H    0.2900926367    0.2650558647    3.6312345662