19

 O    0.1276792232    1.3600010537   -0.1079487707
 C    0.0137213045   -0.0299433437    0.0003696851
 C   -1.4242751633   -0.4825306626    0.1022108760
 N   -2.3304199879    0.4058150669    0.1528999969
 C   -3.7308080931    0.0042543038    0.2050499016
 C   -3.9666555246   -1.3573735717    0.8773106276
 C   -2.9287208283   -2.3787973901    0.4692185871
 C   -2.4004579970   -2.4940853279   -0.9093461261
 N   -1.5649543484   -1.8985678811    0.1661321184
 H   -0.7829175298    1.6875022568   -0.0218382894
 H    0.4692171180   -0.5335015112   -0.8678834617
 H    0.5477173343   -0.4130011990    0.8854271487
 H   -4.2917099183    0.7825503056    0.7319957895
 H   -4.1215269515   -0.0014968870   -0.8211395067
 H   -3.9051070328   -1.2341410117    1.9651404822
 H   -4.9757936758   -1.7233319497    0.6579447634
 H   -2.9135782635   -3.2821481457    1.0755327054
 H   -2.0439425779   -3.4501872980   -1.2803793890
 H   -2.7800663180   -1.8208705475   -1.6727532984