16

 N   -0.0649510611    1.1739375624    0.1750227411
 C   -0.0173756818   -0.0750398530    0.0637960050
 O    1.0983783838   -0.8871045047    0.1380789547
 C    0.5068564751   -2.1806317706   -0.0715604362
 C   -0.7520613646   -2.1453702984    0.9192531066
 C   -1.1461401323   -1.0755702586   -0.1824157490
 O   -2.1669278156   -0.5849811807   -1.0703516008
 C   -1.2498188003   -0.9685432786   -2.1829423736
 C   -0.5709738685   -1.9951057984   -1.2123420573
 H    0.8638001511    1.5609344369    0.3532617124
 H    1.2705719278   -2.9544570615   -0.0463216633
 H   -1.3580372443   -3.0496075416    0.8954668813
 H   -0.5473244441   -1.8144899815    1.9400830526
 H   -1.8042338474   -1.3926103883   -3.0216796128
 H   -0.6511970803   -0.1080356075   -2.4895201103
 H   -1.1620617476   -2.9113138759   -1.2540516505