16

 N    0.7688804597   -0.7952847917    0.8895011257
 C    0.3672722472    0.2154477258    0.4951827849
 C   -0.1146068157    1.4983397395   -0.0519742045
 C   -0.9282275739    2.3118451762    0.9980853345
 C    0.0721912214    3.3078742247    1.5606432113
 C    1.4142596499    2.7965611581    2.0435125644
 C    1.2494315837    3.3187832377    0.6310015968
 N    0.9742499007    2.4031729504   -0.4595660490
 H   -0.7360032342    1.2486805403   -0.9196331280
 H   -1.7311812811    2.8481866701    0.4842199065
 H   -1.3843189327    1.6583735283    1.7455694059
 H   -0.3167384314    4.2272101488    1.9816472460
 H    1.9485967174    3.4283372952    2.7454124630
 H    1.5558886713    1.7333968699    2.2048288099
 H    1.7422780083    4.2377285642    0.3332829710
 H    1.7935901096    1.8878011624   -0.7631437986