21

 C   -0.0636404145    1.4600612231   -0.0630768673
 C    0.0594043756   -0.0531010925    0.0323251350
 C   -1.1054225801   -0.7719600303   -0.6269027856
 C    1.4204736905   -0.6705808224   -0.0367160025
 C    0.7037271346   -0.6606905636    1.3087113127
 C    1.2170639429    0.2079151583    2.4412906132
 O    2.2292250578   -0.4610999882    3.1843126113
 C    0.1912119903   -1.9723237764    1.8071763445
 O    0.0773698875   -2.9815598421    1.1508815660
 H    0.8237825851    1.9872493236    0.2922085372
 H   -0.2139797881    1.7443805045   -1.1107673428
 H   -0.9277057815    1.8269843423    0.5020369960
 H   -1.1444288456   -0.4999672516   -1.6879014460
 H   -1.0155044104   -1.8554080877   -0.5550880203
 H   -2.0582407136   -0.4718027282   -0.1757672697
 H    1.5167974997   -1.6447295299   -0.5051458077
 H    2.2798328311   -0.0149004068   -0.1467517322
 H    1.5714362829    1.1782210669    2.0735863735
 H    0.4169585423    0.4076003128    3.1638315263
 H    2.9271293306   -0.7058363263    2.5667580191
 H   -0.0959870670   -1.9626148756    2.8809018493