15

 O   -0.1729807801    1.4470437183    0.0113629484
 C    0.0384226798    0.0415762931    0.0018106328
 C   -1.3425954991   -0.6015964304    0.0115802633
 C   -1.3371787595   -2.1110387589    0.0033782395
 N   -0.2011079422   -2.7132444166   -0.0108356969
 O   -0.3255818964   -4.0959251646   -0.0171240555
 C   -2.5980698474   -2.7773589492    0.0119202727
 C   -3.6926648174   -3.2780569700    0.0197659515
 H    0.6868357709    1.8770189118    0.0061100814
 H    0.5953701508   -0.2796939708   -0.8895783727
 H    0.6122847834   -0.2891823922    0.8788824202
 H   -1.8954730678   -0.2526800820    0.8925433475
 H   -1.9122211187   -0.2432525498   -0.8548108177
 H    0.5933413382   -4.3865450412   -0.0275707364
 H   -4.6488931145   -3.7404296275    0.0264922518