20

 C    0.0940195357    1.4887475252    0.0228265702
 N    1.2458146203    0.5719135246   -0.0167709706
 C   -0.1157124619    0.0236329361    0.0257042562
 C   -0.4835099723   -0.7044502725    1.2883056665
 O   -1.8641029784   -0.5288141851    1.5148920434
 C   -2.2926778791   -1.2013546614    2.6916892830
 C   -1.9528543119   -2.6913371384    2.6128354557
 C   -0.4670895863   -2.8299294857    2.2742822137
 O   -0.1499068191   -2.0617103282    1.1209231676
 H   -0.0086950599    2.0509135444    0.9467706679
 H   -0.1795480069    2.0384639088   -0.8734600192
 H    1.6166555884    0.5084596896   -0.9604799186
 H   -0.5231080733   -0.4359051708   -0.8713230124
 H    0.0861139736   -0.2911698273    2.1432562860
 H   -1.8071558895   -0.7515145685    3.5751440419
 H   -3.3690899136   -1.0296223809    2.7737498260
 H   -2.1826755527   -3.1906446880    3.5608040636
 H   -2.5506178789   -3.1593047595    1.8237300801
 H    0.1478571779   -2.4942035191    3.1268458671
 H   -0.1924016623   -3.8628681432    2.0455970820