19

 O    0.1591736289    1.3728822027    0.2117983799
 C    0.0613306747   -0.0148334187   -0.0855356278
 C   -1.3555676857   -0.5052588151   -0.0766943995
 C   -2.0337103645   -0.9882238749    1.1820252530
 C   -1.9026189342   -1.9438477114    0.0319527589
 C   -2.9403890200   -1.6097501248   -1.0612499884
 O   -4.2223577305   -1.1023980723   -0.6106521524
 C   -3.7981131177    0.2715604488   -0.8250407471
 C   -2.3762387453   -0.1856411706   -1.2000620091
 H   -0.2744447869    1.5133220288    1.0603539045
 H    0.5028100414   -0.1259518945   -1.0825793476
 H    0.6655655231   -0.6225517049    0.6081804054
 H   -1.3588123726   -1.1844943580    2.0102789114
 H   -3.0168649664   -0.6416406181    1.4799333832
 H   -1.3617591031   -2.8792591120    0.1176058595
 H   -3.0306339926   -2.3221072554   -1.8843370990
 H   -4.3533643359    0.7290557666   -1.6529250358
 H   -3.9143056738    0.8904031537    0.0723587523
 H   -1.9352693890    0.1854334801   -2.1238775415