19

 C    0.0487014777    1.3728801898    0.1832629781
 O   -0.0458727337   -0.0001273153   -0.1558374350
 C   -1.3239704397   -0.5358357443   -0.0607639587
 C   -1.7438138760   -1.4860235698   -1.1482791557
 C   -2.4677638138   -0.1621712197   -0.9783918942
 O   -3.6684080320   -0.1140782457   -0.2488466125
 C   -3.4121182471   -0.3185143561    1.1245860792
 C   -3.0251313967   -1.6972919125    1.5872357956
 C   -1.9564759217   -0.6534359532    1.3193281917
 H    1.0817841084    1.6720263572   -0.0070768183
 H   -0.6249493942    1.9868644558   -0.4299819355
 H   -0.1812161786    1.5575407277    1.2415126766
 H   -1.0689545186   -1.5314774098   -1.9968561133
 H   -2.2402552352   -2.4184058377   -0.9098448901
 H   -2.4100845005    0.5835002991   -1.7639792050
 H   -3.9909081732    0.3415285433    1.7616401946
 H   -3.2175300954   -1.9318656420    2.6293667621
 H   -3.1488704240   -2.5368660879    0.9143277508
 H   -1.3709419158   -0.2763853488    2.1484427795