19

 C    0.0552223659    1.5100505131    0.1077219854
 C   -0.0294007767    0.0142524492   -0.0534353471
 C    0.2541007991   -0.7060103210   -1.4045947372
 C   -0.6357001511   -1.8477672118   -0.8459548039
 O    0.0737949758   -2.6470623332    0.1112105096
 C    1.1250412311   -1.9182496633    0.7056155845
 O    0.7477770942   -0.5927896713    1.0066082458
 C   -1.4045163482   -0.7395951081   -0.0576834907
 O   -2.0243365510   -1.0406858871    1.1462237379
 H    1.0870533779    1.8592182598    0.0030026448
 H   -0.5630570461    2.0095466100   -0.6440044907
 H   -0.3050093104    1.7989887334    1.0997113509
 H   -0.2509696838   -0.1908249958   -2.2244905407
 H    1.2819978956   -0.9180467393   -1.6987380214
 H   -1.1604179525   -2.5323580704   -1.5127138793
 H    1.3780754005   -2.4117668648    1.6479047408
 H    2.0065080394   -1.9206620521    0.0470871485
 H   -2.1348344672   -0.2313478540   -0.6935512235
 H   -1.3558144025   -1.4617008031    1.7004699465