19

 C   -0.1453454186    1.6217440037   -0.0062612927
 C    0.0983212964    0.1169383210    0.0308818022
 C    1.1413888916   -0.6080001106   -0.8637857431
 C    2.6222132813   -0.1564847483   -0.5287006627
 O    2.6530465595    0.8536202807    0.5051615718
 C    2.2577627070   -0.1666121512    1.4501563385
 C    0.7555516793   -0.6187167548    1.2312191181
 C    1.2747032318   -1.7223231310    0.2381232479
 C    2.7456449196   -1.3062161495    0.5111619382
 H    0.7692408976    2.1869894043    0.1644015982
 H   -0.5605186571    1.9147352894   -0.9779004641
 H   -0.8788681595    1.9059832498    0.7575815997
 H   -0.8549179600   -0.3989710787   -0.1473046951
 H    0.9244077433   -0.8073522928   -1.9142557143
 H    3.3032671797    0.0603987055   -1.3526463767
 H    2.6002056548    0.0408626582    2.4647729206
 H    0.1789224944   -0.8280505812    2.1334322090
 H    0.8739931716   -2.7299027902    0.1591703753
 H    3.6190500572   -1.9359499144    0.6687951392