13

 O   -0.2561700237    0.4310094725   -0.6382938740
 C    0.1768421766    1.1341394719    0.2397269265
 C    1.4245253515    1.9171170400    0.1133125804
 O    1.8848259548    2.7508006586    1.1779365952
 C    2.7640631597    3.3761050761    0.1996337134
 C    1.9135149264    2.7939258974   -0.9889129901
 C    2.6331037866    1.4494127194   -0.7274862075
 C    3.7710538101    2.2375951665   -0.1389091194
 O    4.9605730301    2.1413402255   -0.1405951889
 H   -0.3320954647    1.2642242193    1.2181503643
 H    3.0381720069    4.4037933301    0.4186459208
 H    1.4718782046    3.1826213695   -1.8938980258
 H    2.6049613511    0.5446959431   -1.3168649050