21

 C    0.1527100900    1.5769892835    0.0191515249
 C   -0.3935813404    0.1916376192   -0.3493206086
 C    0.4793783947   -0.5019480990   -1.3670818702
 O    1.7313971000   -1.0362964448   -0.9134873470
 C    0.7336443581   -1.9522879062   -1.3968637012
 C    0.1368197366   -2.9348973514   -0.3861803279
 C    0.2049818923   -4.3795158278   -0.9113121805
 C    0.8992368499   -2.8406563726    0.9303460424
 O    0.4201549044   -2.4778066845    1.9726440149
 H    1.1538150833    1.4913991026    0.4516455227
 H    0.2204539041    2.2258129547   -0.8610568554
 H   -0.4930424146    2.0703855680    0.7509203988
 H   -0.4823400732   -0.4231418687    0.5507028145
 H   -1.4016536535    0.2878755330   -0.7745171084
 H    0.5663194721    0.0239013036   -2.3215755496
 H    0.9885785312   -2.3940716356   -2.3619958392
 H   -0.9038097573   -2.6717069669   -0.1719291811
 H    1.2431283635   -4.6944299773   -1.0652643518
 H   -0.2630714431   -5.0769620799   -0.2109112679
 H   -0.3150832532   -4.4638099663   -1.8702823599
 H    1.9602474051   -3.1675227236    0.8637773206