21

 C   -0.1351168408    1.5215663880    0.3852898006
 C    0.0286089656    0.0250077806    0.2322961000
 N    1.2820965524   -0.6101399682   -0.2164407956
 C    2.4443374676    0.1999629227   -0.5460240008
 C    0.8734724544   -0.7618206244    1.1657949918
 C    1.6540600697   -0.2980164242    2.4284844448
 C    1.3567951753   -1.6782730467    3.0355868944
 N   -0.1192021986   -1.8171124582    3.0694674783
 C    0.6264739391   -2.1121005982    1.8130823394
 H    0.7053228332    1.9873595424    0.9049826987
 H   -0.2466645336    2.0112959689   -0.5887361294
 H   -1.0383141653    1.7316983434    0.9674755170
 H   -0.8516626619   -0.4680321663   -0.1805455082
 H    2.6087878193    1.0741507351    0.1006060994
 H    3.3394023533   -0.4290295229   -0.4922176365
 H    2.3492154305    0.5547886244   -1.5772316542
 H    2.7183183171   -0.1491022599    2.2248998548
 H    1.2605406849    0.5580770387    2.9826646182
 H    1.9864289561   -2.2468611924    3.7081409534
 H   -0.3205604128   -2.7172161486    3.5064434349
 H    0.5637355145   -3.0774482843    1.3264356890