19

 C    0.0541365005    1.5928626973    0.0924546155
 C    0.1681759861    0.0853106988    0.0602542024
 C    1.4550888397   -0.6664270497   -0.0892833601
 O    2.5591363821    0.0037155624    0.5498986899
 C    1.8922225024   -0.1383294147    1.8218279771
 C    2.7109374281   -0.4643140907    3.0339729022
 C    2.1377271382    0.9347454160    2.8288147764
 O    2.9673434455    1.9902505655    2.4485256578
 C    0.6765215511   -0.7826924355    1.2054024785
 H    0.9222041312    2.0525925642    0.5683155215
 H   -0.0232782154    1.9928502524   -0.9242033480
 H   -0.8385077378    1.9053135460    0.6441745595
 H   -0.6402253332   -0.4179299947   -0.4690471774
 H    1.7034465574   -1.3780215892   -0.8675955704
 H    2.2713125578   -1.0918860553    3.8032568732
 H    3.7769768753   -0.5942376114    2.8773074930
 H    1.3323351161    1.2547746073    3.4836373594
 H    3.2086720977    1.8326412060    1.5251529944
 H    0.1281402673   -1.6154081547    1.6242674849