16

 O   -0.0388032284    1.3703683513    0.0998973492
 C    0.0154962836   -0.0249438298   -0.0060602375
 C   -0.4967558749   -0.6724251752   -1.2710726209
 C   -1.3113731679   -0.7306381931    0.0053911452
 O   -1.4330007978   -1.9694678254    0.6506077089
 C   -0.4201474228   -2.1980082378    1.5985599022
 O    0.8637841117   -2.0428412363    1.0549159966
 C    1.1354859040   -0.6725419885    0.7928319597
 H    0.5889793927    1.7411675691   -0.5304656248
 H   -0.8437521890   -0.0166609687   -2.0620194963
 H   -0.0353932564   -1.6018487360   -1.5864475475
 H   -2.2050479989   -0.1171677331    0.0728370854
 H   -0.5428869851   -1.5206112702    2.4627978462
 H   -0.5190991034   -3.2388865605    1.9117465449
 H    2.0928706373   -0.6410779785    0.2621309773
 H    1.2402700452   -0.1119073772    1.7351617813