20

 C   -0.0388028424    1.6384114485    0.1969789952
 C   -0.0109413808    0.1055053329    0.0962946752
 O    0.6772350778   -0.4526969564    1.1854570582
 C   -1.4346644736   -0.4746100416    0.0859381697
 O   -1.8586101170   -1.0649264309    1.0741925973
 N   -2.1861848656   -0.2898132015   -1.0165495292
 C   -1.8992503482    0.1046513245   -2.4030432827
 C   -3.3005483411   -0.4421938790   -2.8005046837
 C   -3.5029306049   -0.8610617559   -1.3150855139
 H    0.9853853088    2.0099071074    0.2847215398
 H   -0.5023944819    2.1002059402   -0.6805508604
 H   -0.5930997283    1.9446753744    1.0891680693
 H    0.4994459204   -0.1827854036   -0.8360061807
 H   -0.0174694665   -0.8861414670    1.7117145033
 H   -1.7571162633    1.1812269355   -2.5421740860
 H   -1.0470463115   -0.4223418181   -2.8463898102
 H   -3.9955211934    0.3180102525   -3.1573051850
 H   -3.2809939845   -1.2691398614   -3.5102276630
 H   -3.5565605417   -1.9370258205   -1.1230688852
 H   -4.3248009720   -0.3692895600   -0.7861282978