17

 C   -0.7078161864    1.2416397611    0.1652806696
 C   -0.0739438469   -0.0930649098   -0.0316381381
 C    1.0185146234   -0.5060526118   -0.7508183352
 N    1.2171259263   -1.8634704581   -0.6236246356
 C    0.2548431969   -2.2787688254    0.1665477633
 C    0.0455127393   -3.7043912964    0.6070331727
 C   -1.1055085219   -3.8772563353    1.4867968307
 C   -2.0590568658   -3.9920630739    2.2099132284
 N   -0.5528473573   -1.2504049206    0.5528191818
 H   -0.7127583521    1.5476255964    1.2187765530
 H   -0.1532681380    1.9981178104   -0.3949780291
 H   -1.7464395172    1.2640738128   -0.1872192460
 H    1.6740458250    0.1039530910   -1.3548645160
 H   -0.0678307742   -4.3390085552   -0.2809516434
 H    0.9536897267   -4.0590793632    1.1105333891
 H   -2.8958182973   -4.1236880404    2.8506587025
 H   -1.3525978103   -1.3431756614    1.1587107324