19

 C   -0.3429120791    1.4189216043    0.1126806409
 C    0.0247281216   -0.0494140672    0.0802889097
 C    1.4143778140   -0.5068388582   -0.3121738522
 O    2.4216155083    0.4448618144   -0.5040878628
 C    0.9469631311   -0.6841874546    1.1080542749
 C    1.5662171124    0.1393592333    2.2247764534
 N    0.5593951485    0.4921063155    3.2341353664
 C    2.7189962694   -0.5926601553    2.8008470103
 N    3.5888609950   -1.1656835873    3.3032356938
 H    0.5392954946    2.0537521465    0.2246310128
 H   -0.8404360438    1.7072413008   -0.8196767092
 H   -1.0188295513    1.6355204288    0.9438096929
 H   -0.7814893131   -0.7012319087   -0.2467136951
 H    1.5169657982   -1.4021185501   -0.9241173993
 H    2.2780598007    0.8687709350   -1.3568076049
 H    0.7066616849   -1.7011370581    1.4059713889
 H    1.9611629762    1.0664531099    1.8019634394
 H    0.1943332056   -0.3549508436    3.6620423129
 H    0.9958747168    1.0223420447    3.9835115774