13

 C   -0.0187807052    1.3958531157    0.0174009442
 O    0.0244701343   -0.0346756026   -0.0404334128
 C    0.6211872117   -0.5912717762   -1.0859349655
 N    1.1534123364    0.1859227527   -2.0331449147
 C    1.7246283420   -0.4884332139   -3.0301558817
 N    1.8007425441   -1.8114685241   -3.1465645195
 C    1.2283802634   -2.4683494573   -2.1293604313
 N    0.6274170195   -1.9300037995   -1.0782837137
 H    0.9897431330    1.8159102539    0.0355298420
 H   -0.5559251056    1.8046386016   -0.8418123596
 H   -0.5457488153    1.6277866212    0.9428734118
 H    2.1711780501    0.1061196066   -3.8246563997
 H    1.2590986418   -3.5551431480   -2.1690013793