18

 C   -0.1435887539    1.4765065926    0.0629562755
 C    0.0334384617   -0.0488715893   -0.0665021803
 C    0.7073479042   -0.4093322171   -1.3107778929
 C    1.2818885292   -0.6770472600   -2.3318705850
 C    0.8037745755   -0.6088647529    1.1464919156
 N    0.1291915879   -0.4039073630    2.4583825060
 C    0.2577311511   -1.8340922339    2.8471715931
 C    0.7370568539   -2.1275963005    1.4158653984
 O    0.9371428319   -3.1126312856    0.7748051251
 H    0.8275501163    1.9813864868    0.0511609178
 H   -0.7372755815    1.8655819441   -0.7678782735
 H   -0.6547196996    1.7085690787    1.0010165418
 H   -0.9634901005   -0.5088818199   -0.0555641283
 H    1.7785919855   -0.9367555972   -3.2337019607
 H    1.8462586421   -0.2595183966    1.1074274413
 H    0.6153111897    0.2344335746    3.0759675883
 H    1.0306435947   -2.0596373284    3.5947359278
 H   -0.6787408381   -2.3105971025    3.1564650200