23

 C   -0.2270479533    1.4922980493    0.2537814519
 C   -0.4395706383    0.0252706652    0.6351463422
 C   -1.4978145352   -0.6506437076   -0.2265701039
 O   -1.6166517626   -2.0009713644    0.1819446163
 C   -2.6665591609   -2.7276140485   -0.4273890064
 C   -2.3895783812   -3.1046271233   -1.8844230311
 C   -2.9523742587   -3.9776266449    0.4260442261
 C   -2.4094105439   -3.9972344862    1.8374898511
 O   -3.6142015583   -4.8807917263   -0.0311592375
 H    0.5388138689    1.9541827727    0.8831520299
 H    0.0960321008    1.5910082139   -0.7883779041
 H   -1.1480002578    2.0740010810    0.3714820659
 H    0.4980465396   -0.5332423919    0.5336029830
 H   -0.7396211009   -0.0563312476    1.6861430919
 H   -2.4690583252   -0.1373794264   -0.1170597248
 H   -1.2156399271   -0.5844754457   -1.2889051763
 H   -3.5973406437   -2.1306321212   -0.3829388356
 H   -3.1686457970   -3.7855937542   -2.2316194678
 H   -2.3762261980   -2.2235111061   -2.5306599897
 H   -1.4222883291   -3.6101876207   -1.9630657754
 H   -2.7404941234   -4.9068587488    2.3394681657
 H   -1.3167481439   -3.9453322333    1.8166120482
 H   -2.7433071208   -3.1119640750    2.3881072804