17

 O   -0.0679862681    1.3302126664    0.0397568287
 C    0.0357850934   -0.0582667924   -0.0197567985
 C    1.0173734271   -0.6810346689   -0.9983766514
 C    0.3826120616   -2.0462817530   -1.3294274910
 O    0.7457771580   -2.8120687639   -2.1824871887
 C   -0.7735936473   -2.2364284425   -0.3559750456
 C   -0.1507326267   -2.3160004300    1.0926570126
 C   -0.3844258994   -0.8145389257    1.2370342704
 C   -1.2666478779   -0.8066606590   -0.0095572787
 H    0.6813793015    1.6671349047    0.5429426477
 H    1.0791416089   -0.0739320117   -1.9077347277
 H    2.0369433983   -0.8158341367   -0.6202294338
 H   -1.4727607686   -3.0195219988   -0.6378429362
 H   -0.8111499812   -2.8874977569    1.7484648742
 H    0.8689412527   -2.7060677092    1.1873552933
 H   -0.5255660456   -0.2659903066    2.1610938315
 H   -2.2326486267   -0.3595950859   -0.1980320168