20

 C    0.8875924369    1.1408885573   -0.0086211243
 O    0.9281708751   -0.2420766571   -0.2619797193
 C   -0.0586856279   -0.6620700869   -1.1751594446
 C    0.0438923825   -2.1771747446   -1.3752894573
 O   -1.0800837935   -2.6185754656   -2.1358281444
 C    1.3560702675   -2.6018199278   -1.9900761036
 C    2.5367735614   -2.9461640408   -1.1202562030
 C    1.8109147694   -4.0350332669   -1.8658794544
 H    1.0655946486    1.7297158684   -0.9228658568
 H   -0.0817990001    1.4512880143    0.4129651082
 H    1.6754852845    1.3661502405    0.7144214059
 H   -1.0689601086   -0.4217459323   -0.8072522107
 H    0.0647023223   -0.1501793804   -2.1481773028
 H   -0.0633128689   -2.6560775708   -0.3944276013
 H   -0.8907497322   -2.4474245774   -3.0643345056
 H    1.5842585099   -2.0977953493   -2.9290278719
 H    3.5228987313   -2.6527189693   -1.4620492803
 H    2.4029994254   -2.8784072339   -0.0467239078
 H    1.1774929892   -4.7101684149   -1.3003755476
 H    2.3010415272   -4.4949833126   -2.7168038484