23

 C    0.0243221792    1.4756689627   -0.0519597998
 C   -0.0544700495   -0.0348503946    0.0236834110
 C   -0.8527950140   -0.6618348154    1.1401966214
 C    0.6599466856   -0.7696495829    1.1411363236
 C    1.3962433275   -2.0601619719    0.7692200067
 C    1.3277194920   -2.3525187993   -0.7400444458
 C    1.5814204303   -1.0523236339   -1.5605824850
 C    0.0684422895   -0.7392160908   -1.3288117270
 C   -0.1363451162   -2.2776604084   -1.2497075588
 H    0.9247636227    1.8021305727   -0.5859924461
 H   -0.8417477076    1.8909267086   -0.5818093665
 H    0.0493825597    1.9236116571    0.9465718954
 H   -1.2978317763    0.0095671747    1.8682223764
 H   -1.4452901614   -1.5496177778    0.9536498544
 H    1.1615934842   -0.1580418423    1.8857522241
 H    2.4496448542   -1.9576606559    1.0574564225
 H    1.0046084681   -2.9170130510    1.3335862990
 H    1.9132445921   -3.2404335078   -0.9920950458
 H    2.3135488271   -0.3353027673   -1.1770072900
 H    1.8021042656   -1.2757077556   -2.6078641351
 H   -0.4776956584   -0.1983424459   -2.1068415919
 H   -0.2280327252   -2.7004230776   -2.2543087745
 H   -0.9352654393   -2.6876669076   -0.6280185481