22

 C   -0.0349012990    1.5821384531   -0.1488536773
 C    0.0809034125    0.0734594031    0.0091804522
 C    1.0853531159   -0.7096423429   -0.8797505815
 C    1.3441724509   -1.6527503808    0.3214808440
 C    2.7585555180   -2.1962543586    0.5622029499
 C    3.1776876744   -3.1174062023   -0.4933336160
 N    3.4887930492   -3.8425792256   -1.3378468388
 C    0.7662033651   -0.5532485468    1.2742851553
 C    1.7995366760    0.3319930777    1.9684472270
 H    0.9361858885    2.0794587163   -0.0600768721
 H   -0.4429346096    1.8339322024   -1.1339689278
 H   -0.7026625147    2.0150092124    0.6044634104
 H   -0.9135935526   -0.3741805287   -0.0990231405
 H    0.7188200652   -1.1552570824   -1.8068705087
 H    1.9679772865   -0.1040549986   -1.1145466661
 H    0.6509402358   -2.4985284016    0.2820919014
 H    3.4860213943   -1.3789660628    0.6136333744
 H    2.8097057332   -2.7255208524    1.5216520412
 H    0.0688471962   -0.9349842070    2.0267731374
 H    2.5350441115    0.7474329589    1.2715111807
 H    1.3121463427    1.1759356679    2.4666885513
 H    2.3475241199   -0.2268910412    2.7348230537