17

 O   -0.1852049055    1.4719354475    0.1573577081
 C    0.0063480391    0.0735429955    0.3103247084
 C   -1.3421455443   -0.5710163534    0.1133289213
 C   -1.8119224023   -1.1218781440   -1.1902687469
 O   -0.8425988613   -1.2924000822   -2.2010040146
 C   -0.0140252072   -2.4080214591   -1.9113054533
 C   -0.4014834210   -2.9245720049   -0.5191704741
 O    0.0828755340   -3.8812267389    0.0290876340
 C   -1.5493079299   -2.0851828036   -0.0539845993
 H    0.6588016641    1.9080271200    0.3072975952
 H    0.7294215253   -0.3100051789   -0.4222708683
 H    0.3865958058   -0.1707932794    1.3143330247
 H   -2.1159782298   -0.1140190873    0.7249156832
 H   -2.8008122449   -0.9051505656   -1.5786948818
 H   -0.1763558588   -3.2081929704   -2.6468883282
 H    1.0445973437   -2.1255353281   -1.9476487675
 H   -2.3118591669   -2.5709975071    0.5412397791