21

 C   -0.0153813087    1.5666130063   -0.0663426313
 C    0.0325940910    0.0416345431    0.0792430794
 C    0.6956939771   -0.3290030345    1.4155219913
 O   -1.3356444084   -0.3740560024    0.0802493076
 C    0.7372277691   -0.5445966775   -1.1551766288
 C    2.0673469348   -1.2389940045   -1.1361169131
 C    0.8116761594   -2.0435771460   -1.4392857385
 C    0.3007496770   -3.0219465315   -0.5229488603
 C   -0.1631542740   -3.8566773575    0.2117889066
 H    0.9935962401    1.9835678637   -0.1374098753
 H   -0.5740353550    1.8416844475   -0.9654602624
 H   -0.5193410825    2.0111457111    0.7962299245
 H    0.0893027045    0.0789659894    2.2288399557
 H    0.7600834278   -1.4116029770    1.5527635120
 H    1.7036669836    0.0899296700    1.4949061746
 H   -1.3419373681   -1.3361735476    0.1580356732
 H    0.5274925545    0.0289685685   -2.0537690613
 H    2.7610285250   -1.0721027628   -1.9528095369
 H    2.5374566618   -1.4199093251   -0.1773814360
 H    0.6662583483   -2.3136101646   -2.4814175475
 H   -0.5515391875   -4.6000019886    0.8633438367