21

 C   -0.0292511224    1.4592749421    0.2377304992
 C   -0.0082879102    0.0133786563    0.0657812375
 C    0.0181863852   -1.1820951624   -0.0762335558
 C    0.0149444527   -2.6313053937   -0.2439231071
 C   -1.3919264565   -3.2511276688   -0.1316752065
 C   -1.3796095784   -4.7731699438   -0.3197664246
 C   -2.7573247316   -5.3764622405   -0.1979964139
 C   -2.9947165094   -6.6914299000    0.4087985322
 O   -3.2889213741   -5.4915548927    1.1262694554
 H    0.6048965062    1.7713770877    1.0751152809
 H    0.3320599335    1.9742589454   -0.6595221813
 H   -1.0433523284    1.8219178164    0.4398503992
 H    0.4482868218   -2.8909729131   -1.2198537079
 H    0.6724567636   -3.0914350626    0.5064399216
 H   -1.8174021817   -3.0106825137    0.8481841376
 H   -2.0465053247   -2.7873674969   -0.8792751258
 H   -0.9684377399   -5.0249818595   -1.3072695957
 H   -0.7241087124   -5.2368988634    0.4275260489
 H   -3.4869490461   -5.0218179943   -0.9296664737
 H   -3.8589943457   -7.2826491374    0.1086396594
 H   -2.1500228215   -7.2665249152    0.7869744806