16

 N    0.2881374164    1.5750570679    0.1683865762
 C   -0.0754254445    0.1677046581    0.0276208819
 C    0.1165203577   -0.3641857334   -1.3408016519
 N    0.2562452042   -0.7396249498   -2.4251928861
 C    0.7083151056   -0.6399683822    1.0624910619
 C    0.7695448619   -2.1767669054    0.9597355407
 C    2.2522186891   -1.9455872341    0.7508271388
 N    3.2514666635   -2.6781288051    0.5925709490
 O    2.1472200740   -0.5599482889    0.8158590266
 H    1.2797834867    1.6817647542   -0.0284744054
 H   -0.2142483637    2.1415749179   -0.5075386336
 H   -1.1404021829    0.0599908751    0.2712069526
 H    0.4768208487   -0.2363610971    2.0510702888
 H    0.5090611985   -2.7267314056    1.8644375863
 H    0.2614356374   -2.6155541920    0.0992107295
 H    4.1087967374   -2.1340800596    0.4859968448