25

 C    0.0199519079    1.6107973938    0.0728620235
 C    0.0216142887    0.0980170339   -0.1759842054
 C   -1.3823938806   -0.5376293799   -0.0395228833
 C   -2.2106299911   -0.0820797636   -1.2264593776
 O   -3.1797092758    0.6316250734   -1.1659196523
 C   -1.3899569766   -2.0997637191    0.1098484145
 C   -0.8058443900   -2.4779163305    1.4845249308
 C   -2.8484801147   -2.5982821478    0.0550557164
 C   -0.5720893579   -2.7979129114   -0.9944041178
 H    1.0211758158    2.0301424898   -0.0645755596
 H   -0.6593756292    2.1328441061   -0.6085000748
 H   -0.3029426341    1.8400658463    1.0938859922
 H    0.4191073731   -0.1073130683   -1.1782560627
 H    0.7100121288   -0.3832812884    0.5257180836
 H   -1.8754073839   -0.1213142761    0.8474917803
 H   -1.8337061728   -0.4370851334   -2.2154925791
 H   -1.3704796910   -2.0077221184    2.2967187732
 H   -0.8542829950   -3.5625993814    1.6294536344
 H    0.2424120153   -2.1831714445    1.5876443004
 H   -3.3070172471   -2.4189587078   -0.9229851444
 H   -2.8928521516   -3.6754304349    0.2473964178
 H   -3.4677980136   -2.0961453201    0.8059425465
 H    0.4821513372   -2.5071952909   -0.9662767983
 H   -0.6167557631   -3.8842060935   -0.8614969059
 H   -0.9558860186   -2.5780438730   -1.9955586925