17

 N    0.0420801043    1.4490606069   -0.4378426993
 C   -0.0313606916    0.0464367146   -0.0518306054
 C    0.0246395058   -0.2422562469    1.4873631128
 C   -1.1766432557   -1.2225681199    1.3462898367
 C   -1.4457490893   -0.5886048154   -0.0153981742
 C   -2.6713335871    0.0108082935   -0.5344420252
 O   -2.0973476723   -1.1782629351   -1.1102970309
 C    0.9134728883   -0.8079891672   -0.7927565889
 N    1.6784925401   -1.4389279310   -1.3882295808
 H    0.9630590860    1.8164665843   -0.2098831322
 H   -0.0477390066    1.5341039876   -1.4478684577
 H    0.9608554088   -0.6469199290    1.8703244096
 H   -0.2407460385    0.6684537322    2.0270512358
 H   -0.8540927497   -2.2625493895    1.2498645116
 H   -1.9689498193   -1.1593476438    2.0934797273
 H   -3.6066775965   -0.1381952433    0.0028114806
 H   -2.6208213968    0.9040415521   -1.1527715297