16

 O    0.4125460889    0.5773916065    0.6545901522
 C   -0.0965251100    0.0707170154   -0.5642018655
 C   -1.5036274857   -0.4794582835   -0.4159897249
 C   -1.9163119369   -1.7073537785   -1.2020093127
 C   -1.6924182748   -1.7894356017    0.2838420666
 O   -0.5064681701   -2.3895485503    0.7820115414
 C   -0.4553622995   -3.7422174286    0.7758292987
 O    0.4782271829   -4.3467905465    1.2058327139
 H    0.5288816125   -0.1792975895    1.2404868483
 H   -0.1037898727    0.9096091387   -1.2674747659
 H    0.5613892671   -0.7029414574   -0.9842136569
 H   -2.2649691418    0.2686406489   -0.2180771108
 H   -2.9314501420   -1.7914416774   -1.5731042195
 H   -1.1616383786   -2.1548611825   -1.8409213702
 H   -2.5428600675   -1.9190760785    0.9462113981
 H   -1.3605095017   -4.1986797151    0.3346692971