18

 O    0.0533347905    1.3257369791    0.5065174100
 C   -0.0926532565    0.0742164892   -0.1593405026
 C   -1.4896744888   -0.4569570517   -0.1078673816
 C   -2.0037102123   -1.8932417746   -0.1172348029
 C   -2.1329521411   -1.0790350961    1.1361421173
 N   -3.5908142014   -0.7865095456    0.9770146952
 C   -3.6268366363    0.6248510209    0.4364180931
 C   -2.7834530317    0.1198561620   -0.7495188463
 C   -3.3847283588   -1.2969086060   -0.4666053049
 H   -0.4598536533    1.9775547070    0.0189855011
 H    0.2582203966    0.1448492709   -1.2011646227
 H    0.5822065831   -0.6189971333    0.3561250467
 H   -1.5194406301   -2.8387603559   -0.3197155878
 H   -1.6423116678   -1.1628383405    2.0972184641
 H   -4.6551619446    0.8800709294    0.1628428254
 H   -3.2092590496    1.3874903587    1.1006649863
 H   -2.7284622716    0.5951287611   -1.7299589859
 H   -4.2217132265   -1.7633153747   -0.9823955743