18

 C   -0.0252106361    1.5676025668   -0.0496834403
 C    1.4731603522    1.8477724114   -0.0266551530
 C    2.1685302816    0.9962241716    1.0956517620
 C    1.2069208992    0.3731048071    2.1067983359
 O    0.1832507769   -0.3638494209    1.4347162827
 C    0.0334793379    0.0311385295    0.0672112313
 C    1.2976930756   -0.2928995126   -0.7427388381
 C    2.5565650765    0.0464994727   -0.0318659861
 N    2.0398681525    0.9472071045   -1.1163217959
 H   -0.5932699059    2.0216796894    0.7666737580
 H   -0.4533601982    1.8845311292   -1.0061970618
 H    1.7876999191    2.8856149443   -0.1277706660
 H    3.0053497867    1.5016334131    1.5786772969
 H    1.7298118912   -0.3270940333    2.7693303779
 H    0.7576244226    1.1539661621    2.7403694137
 H   -0.8539876319   -0.4901135987   -0.2921688163
 H    1.2977994617   -1.0743349015   -1.4929382943
 H    3.4765312183   -0.5206515646   -0.1313562565