15

 C   -0.0148868376    1.4651775906    0.0860362040
 C    1.2995986201    0.7419795035    0.0294217086
 C    2.0406775599    0.4674299928    1.3569973963
 C    1.0670996559   -0.4196831360    2.0798567029
 N    0.9805279649   -1.0267128599    3.2216354768
 O   -0.2013501358   -1.7428378060    3.1433514970
 N   -0.8421420020   -1.5536421092    1.9266364930
 C   -0.0651791610   -0.7397650737    1.2805199455
 C   -0.0199663243   -0.0505632241   -0.0218975023
 H   -0.3360339529    1.9113779365    1.0219479309
 H   -0.3206050349    2.0132757472   -0.7982548262
 H    1.8976004847    0.8466696763   -0.8675242966
 H    2.9886838517   -0.0512252346    1.1801267774
 H    2.2703240920    1.3866408853    1.9045851817
 H   -0.3852345407   -0.5253645687   -0.9226462890