15

 O   -0.1347089248    1.4369017614   -0.0910678750
 C   -0.0300797371    0.0375552106    0.0021801225
 C   -0.0481069646   -0.6659712440    1.3960788506
 C   -1.5197166334   -0.1891914503    1.5594017106
 C   -1.3867328624   -0.7109107833    0.0865299752
 O   -2.3591833528   -0.8093356197   -0.8870574604
 C   -0.5999726579   -1.9155588237    0.6469066031
 H    0.7393929491    1.8181288776    0.0340172503
 H    0.6911465247   -0.3652286958   -0.7216699609
 H    0.7347509040   -0.6529654823    2.1508442190
 H   -2.1502575853   -0.7857813788    2.2227677366
 H   -1.6736094190    0.8815391869    1.6893833213
 H   -2.6146760724    0.0850996315   -1.1400720653
 H    0.0780795182   -2.4263571949   -0.0427840730
 H   -1.1705711463   -2.6210594352    1.2534344554