16

 O   -0.0728298411    1.4219784348    0.0097886024
 C    0.0221892451    0.0090333681    0.0019692386
 C   -1.4100883920   -0.5381102339    0.0127506833
 C   -1.4148879859   -2.0385540690    0.0046938472
 N   -1.4080830182   -2.6591266965   -1.1838273929
 C   -1.3918430509   -3.9884144835   -1.1220797185
 N   -1.3799229707   -4.7250910187   -0.0103536919
 C   -1.3783532567   -4.0007387924    1.1094717604
 N   -1.3937961420   -2.6721782747    1.1861037247
 H    0.8182312170    1.7836149677    0.0029903076
 H    0.5447411416   -0.3585217871   -0.8946216696
 H    0.5615616191   -0.3671942674    0.8849173999
 H   -1.9145413019   -0.1769499236    0.9118796057
 H   -1.9312313177   -0.1673100832   -0.8728741396
 H   -1.3894422311   -4.5248994232   -2.0688519739
 H   -1.3645023647   -4.5476174773    2.0501801167