25

 C   -0.0961212073    1.6063409351   -0.0012383530
 C    0.0646416268    0.0844269676   -0.0173603704
 C    0.6692724836   -0.4735008640    1.2776471258
 O   -0.1173077305   -0.1233901208    2.4184631373
 C    0.9003850918   -1.9777331130    1.2179727653
 C    2.0140898158   -2.5398517737    0.2889332150
 C    2.3835531738   -3.5590187358    1.4048266636
 C    3.8485682828   -3.8752357439    1.6611497371
 C    1.6144309492   -2.6611755747    2.4152583200
 H    0.8777438582    2.1033432912    0.0710175275
 H   -0.5872309191    1.9653235191   -0.9107515281
 H   -0.6909215329    1.9192507345    0.8608671694
 H   -0.9131017976   -0.3940683983   -0.1780296037
 H    0.6941360761   -0.2213139936   -0.8624833578
 H    1.6343401291    0.0204196701    1.4587448306
 H   -0.9691911149   -0.5653706389    2.3275099295
 H   -0.0545759098   -2.4793173806    1.0067513860
 H    1.7223197641   -2.9308589332   -0.6891179934
 H    2.8151240558   -1.8049013278    0.1434235602
 H    1.8271628984   -4.4900194235    1.2448044425
 H    4.4257213539   -2.9571215965    1.8209416734
 H    3.9701725821   -4.5031375194    2.5511490237
 H    4.2975225906   -4.4079728533    0.8149586036
 H    2.2869627342   -1.9598116708    2.9215800725
 H    0.9969193659   -3.1510297658    3.1716627435