16

 C   -0.0513263269    1.5384567492   -0.0067736145
 C   -0.0385199496    0.0115193979   -0.0189025699
 C   -1.4216028709   -0.5842061936    0.2330166305
 C    0.7660588507   -0.6405102046   -1.1960969028
 N    1.7102881193   -1.1354971554   -0.1925708515
 C    1.0673232293   -0.5982172120    0.8939594226
 O    1.2947000934   -0.6112264531    2.0747609975
 H    0.9430735496    1.9503806308   -0.2060393121
 H   -0.7413260466    1.9310747886   -0.7618530821
 H   -0.3747786112    1.9054072036    0.9721860924
 H   -2.1407277068   -0.2373391783   -0.5172901670
 H   -1.3994774542   -1.6782501863    0.2042815277
 H   -1.7884211322   -0.2833937159    1.2192176054
 H    0.2351599169   -1.4291358358   -1.7397946901
 H    1.2001778002    0.0682491852   -1.9092756830
 H    2.5525033292   -1.6864532502   -0.2693389632