20

 C   -0.2030217664    1.5780535934   -0.0875655189
 C    0.0066594779    0.0701898571   -0.0490061450
 C   -1.3237160786   -0.6615739981   -0.1947163239
 C    1.1250842324   -0.5914495122   -0.9354527667
 C    2.0195056123    0.2031559839   -1.8518491960
 O    1.7141657031    1.2217939694   -2.4198072544
 C    1.7555723868   -1.0810031161    0.3679256853
 C    2.0510276224    0.0536059114    1.2656573806
 N    0.6716630224   -0.4554771787    1.2182394530
 H    0.7248596435    2.1461675598   -0.0088710501
 H   -0.6767808944    1.8724989746   -1.0271780308
 H   -0.8576663802    1.8682753372    0.7414425377
 H   -1.7716503957   -0.4552709255   -1.1723589242
 H   -1.1874037838   -1.7422645904   -0.0925584367
 H   -2.0208693899   -0.3370020284    0.5838342647
 H    0.7144127680   -1.4168164257   -1.5296569593
 H    3.0356474340   -0.2410477851   -1.9799037094
 H    2.1148814863   -2.0874545129    0.5552134843
 H    2.5438356419   -0.1689021700    2.2070046501
 H    2.2903104581    1.0314537564    0.8563581997