16

 C    0.0084437269    1.5349724748   -0.0040453260
 C   -0.0013384770    0.0052679051   -0.0453183703
 C   -1.4247819686   -0.5517234710    0.0485032329
 N   -1.4536675897   -2.0074885927    0.0029338628
 N   -1.2030420240   -2.7084833664   -1.0962218075
 C   -1.3044897611   -3.9509805814   -0.6392445927
 N   -1.6012400500   -4.0021324232    0.6776423244
 N   -1.6914447176   -2.7552909787    1.0734693296
 H    1.0301176504    1.9180145768   -0.0726501656
 H   -0.5630665287    1.9601408512   -0.8362138950
 H   -0.4270951987    1.9125650332    0.9273624999
 H    0.4549822025   -0.3548329248   -0.9731814808
 H    0.5910005108   -0.4018853103    0.7817966550
 H   -1.8998928824   -0.2749382292    0.9919594390
 H   -2.0423425198   -0.1848984525   -0.7762706744
 H   -1.1683557532   -4.8221709910   -1.2591181212