21

 C    0.4730430096    1.5418806624   -0.6984449678
 C    0.2701171858    0.1441182196   -0.3438846962
 C    0.1026816586   -1.0123648639   -0.0511327523
 C   -0.0856885546   -2.4086206676    0.3086720224
 C    0.0736305494   -2.7294539982    1.8122091145
 C   -0.6041866953   -4.0948759936    1.8897840755
 O   -1.6943741263   -4.0394069193    0.9772145686
 C   -1.4943078203   -3.0116438471   -0.0017860259
 C   -2.6549592208   -2.0263929508    0.0630692915
 H    1.0713316180    2.0618434733    0.0581100102
 H    0.9956114357    1.6389111515   -1.6566063761
 H   -0.4810021074    2.0734097870   -0.7869248352
 H    0.6524025436   -3.0120888511   -0.2362533878
 H    1.1180467237   -2.7416705669    2.1311483543
 H   -0.4622308868   -1.9894899572    2.4139449925
 H    0.0970430710   -4.8955617067    1.6035756670
 H   -0.9985306441   -4.3320718781    2.8831122601
 H   -1.4776525494   -3.4828545846   -0.9934801331
 H   -2.6608549537   -1.4836954113    1.0132863004
 H   -2.5918106949   -1.2976566129   -0.7494851863
 H   -3.5981981719   -2.5726357744   -0.0248781163