21

 C    0.0487017699    1.5879203535   -0.1778178480
 C    1.4340186277    2.1677671112    0.2083007623
 C    2.3083304279    1.0846762782    0.8822918561
 C    1.4387351341    0.3148526128    1.8874647853
 O    0.3388679121   -0.3595813022    1.2847261091
 C   -0.0179787093    0.0604477979   -0.0307864088
 C    0.7833401577   -0.7280708594   -1.0851581442
 C    2.2788059883   -0.5983427267   -0.9981620698
 C    2.9505730004    0.1667326921   -0.1393073455
 H   -0.7222221723    2.0103505265    0.4751562973
 H   -0.2271640610    1.8626085724   -1.2011503091
 H    1.9550159191    2.5607921793   -0.6688883153
 H    1.3015175595    3.0069057772    0.9003075458
 H    3.1020545176    1.5764908054    1.4548049963
 H    2.0308380168   -0.4459745260    2.4093502203
 H    1.0634426211    1.0221025401    2.6455991912
 H   -1.0664145952   -0.2413380407   -0.1391200055
 H    0.5185615079   -1.7894318590   -0.9801419884
 H    0.4371872544   -0.4396702695   -2.0897446500
 H    2.8402775150   -1.2101019750   -1.7022598621
 H    4.0373234583    0.1596620621   -0.1711479471