21

 C    0.0683803444    1.5337882241   -0.0928222711
 C    0.0323682541    0.0327719059    0.0003915939
 C    0.5863587848   -0.9902528580   -1.0860892287
 C   -0.0150373888   -1.8263845982    0.0687590410
 C    0.7138924422   -0.8650110395    1.0655078310
 O   -0.3772585744   -3.1398572920    0.3220490997
 C   -1.6269932496   -3.0505652838    1.0619413635
 C   -2.0263491003   -1.5326148337    1.2224609495
 C   -1.2320642961   -0.9156557218    0.0679269208
 H    1.0971399878    1.8977902547   -0.1901070905
 H   -0.4981065055    1.8907678758   -0.9596065199
 H   -0.3655112225    1.9910514966    0.8029525571
 H    0.0573757134   -1.0165032442   -2.0425027914
 H    1.6716323997   -1.0036813925   -1.2162407292
 H    1.8067112145   -0.8856269011    1.0540125400
 H    0.3342129687   -0.8044318518    2.0866919145
 H   -2.3858262556   -3.6043339306    0.4974719756
 H   -1.4957075793   -3.5405989914    2.0321799821
 H   -3.1067194318   -1.4021660586    1.1267832697
 H   -1.7369570601   -1.1644376035    2.2087036438
 H   -1.8065745955   -0.9353567464   -0.8645887213