21

 C   -0.2195965519    1.4511564183   -0.0171927547
 C   -0.0285046146   -0.0418958611    0.0842001680
 N    1.3594540096   -0.5452608750   -0.0790316324
 C    0.6813296888   -0.6818224933    1.2089229762
 C    1.2839238568   -0.1127585147    2.5183004674
 C    0.9460437054   -1.4570076549    3.1843495387
 C    0.3696862933   -1.9904229486    1.9112840357
 N   -0.5091212573   -1.6512296178    3.0544053303
 C   -0.9904220649   -2.8346074082    3.7642262372
 H    0.6140960918    1.9783207184    0.4540709051
 H   -0.2702777790    1.7697350566   -1.0640582515
 H   -1.1479923301    1.7567755397    0.4770736227
 H   -0.8195907308   -0.6371855491   -0.3714467137
 H    1.3588115781   -1.4340205019   -0.5754983125
 H    2.3571019454    0.0616678078    2.4129852526
 H    0.7970439914    0.7619873263    2.9562682070
 H    1.4998405221   -1.9741462276    3.9586434909
 H    0.3762099769   -2.9943603002    1.4999748339
 H   -0.2712842594   -3.6716451587    3.7827378731
 H   -1.2207085175   -2.5609587560    4.7987875813
 H   -1.9120820242   -3.1874633301    3.2907632247