17

 C   -0.0608260460    1.3766639846   -0.4455496973
 N   -0.0104625319    0.0576426839    0.1635764368
 C   -1.2158567251   -0.7490549328    0.1644144929
 C   -1.0984289874   -1.8026313228    1.2453510849
 O    0.0577419764   -2.6294556187    1.0508949246
 C    1.2107366403   -2.0565735076    0.6502945341
 O    2.2212436457   -2.7033728052    0.6180490335
 C    1.2044766494   -0.5886107507    0.2099720277
 N    2.2989189536   -0.0064580191   -0.0940364923
 H    0.8066470975    1.9500702945   -0.1195642594
 H   -0.0381967599    1.3272202139   -1.5437281908
 H   -0.9789344236    1.8806449887   -0.1315739018
 H   -2.0727937222   -0.1053131981    0.3871331974
 H   -1.4054904442   -1.2234637109   -0.8128757564
 H   -1.0333176877   -1.3292620599    2.2319877063
 H   -1.9519023500   -2.4834000918    1.2339550661
 H    3.0626608649   -0.6679021581    0.0497909138