20

 C   -3.2067253889   -2.5313996286   -0.3119403386
 N   -1.7850609953   -2.2740030524   -0.3743709354
 C   -0.9915696933   -2.7970851840   -1.3471000038
 O   -1.3532606588   -3.5332604475   -2.2375769626
 O    0.2885306972   -2.3596665007   -1.1579406990
 C    1.2618245915   -2.8072875333   -2.0952482808
 C    1.1637805216   -2.1372543595   -3.4435089526
 C    2.5917731034   -3.0840923831   -1.4579260282
 C    1.7252646412   -4.2257260193   -1.9526892640
 H   -3.7899480512   -1.6106610666   -0.4307244627
 H   -3.4518317829   -3.2111899870   -1.1288148466
 H   -3.4876953202   -3.0020429470    0.6371193835
 H   -1.3489463504   -1.6637380393    0.2958054696
 H    1.2169973632   -1.0484815825   -3.3362700370
 H    1.9900148676   -2.4560342922   -4.0854189625
 H    0.2231821065   -2.4004624886   -3.9325983353
 H    3.4859694027   -2.8236811077   -2.0134391476
 H    2.6631957492   -2.9394685352   -0.3861295178
 H    1.2296010366   -4.8385630913   -1.2096629196
 H    2.0173109903   -4.7565571543   -2.8518746490