18

 C   -0.2684467084    1.4364969138    0.0112813484
 O    1.0796516135    0.9814629339   -0.0710862172
 C    0.0236096431   -0.0074411844    0.0299618347
 C   -0.0091572005   -0.7616078040    1.3026735871
 C   -0.0965010501   -2.0893716209    1.3671783477
 C   -0.1510973446   -3.0082034722    0.1769383885
 C   -0.2801976803   -2.2879042199   -1.1504256491
 N   -1.4973430576   -1.4784126393   -1.3316353078
 C   -0.1887032480   -0.8058765412   -1.2204485461
 H   -0.5393515175    1.9422248839    0.9378574657
 H   -0.6716607456    1.8872461809   -0.8954547463
 H    0.0593898557   -0.1680311334    2.2097833178
 H   -0.1130309631   -2.5715835036    2.3415361894
 H    0.7608103528   -3.6225211430    0.1645295299
 H   -0.9833831892   -3.7163010412    0.2910670598
 H    0.0790752375   -2.8438982529   -2.0136413602
 H   -1.7912121598   -1.5005286395   -2.3043327764
 H    0.2425421320   -0.3501261968   -2.1082043758