20

 C    0.0551699917    1.5300347297    0.0649034628
 C   -0.0072718266   -0.0122650065    0.0032385862
 C    0.6854076939   -0.6006632459    1.2524052829
 C   -1.4767292631   -0.4650617690   -0.0292782974
 C    0.7214523224   -0.4865482706   -1.2344283768
 N    0.1354028807   -1.1996017201   -2.2002591038
 N    1.1105030809   -1.4005873348   -3.0790265480
 N    2.2934325670   -0.8834637963   -2.7817419515
 C    2.0705647539   -0.2945348733   -1.6079783795
 H    1.0888460460    1.8890545829    0.0961410401
 H   -0.4303528448    1.9779569862   -0.8075005242
 H   -0.4535486613    1.8954308488    0.9634080695
 H    0.1831145404   -0.2568423857    2.1629609781
 H    0.6558372908   -1.6944673240    1.2392485046
 H    1.7342799970   -0.2930145513    1.3121704719
 H   -1.9964554593   -0.0632875339   -0.9030462139
 H   -1.5553392821   -1.5545569031   -0.0719138680
 H   -1.9929111708   -0.1159473719    0.8710708540
 H    0.9574728240   -1.9197569218   -3.9279212148
 H    2.8644916493    0.2262489906   -1.0971890724