17

 N   -0.1216227003    1.4083170054    0.1150964923
 C   -0.0716548367   -0.0566864923    0.0127669891
 C    0.7927757092   -0.5541530290    1.2068826318
 O    0.3070009369   -0.0646637155    2.4231952208
 C   -1.4346868747   -0.5992063327    0.1201438040
 N   -2.5011783473   -1.0416531674    0.1557752122
 C    0.5471572353   -0.5692923073   -1.2986077335
 C    0.3635641426    0.1137324822   -2.5798176913
 O    1.5826620815    0.2505981909   -1.8324611273
 H    0.6959010192    1.7830464955   -0.3617959260
 H   -0.9506108408    1.7881517547   -0.3275557153
 H    0.7790400856   -1.6472419462    1.2530621709
 H    1.8277028829   -0.2318750863    1.0026800957
 H    0.1259882670    0.8740211049    2.2664596884
 H    0.7620726808   -1.6379943332   -1.3049096167
 H    0.4475835842   -0.4520648254   -3.5045745764
 H   -0.2485841955    1.0113518017   -2.6309557187