13

 N   -0.0014574088    1.3109418285    0.0108220734
 C   -0.0266956470    0.0453702929    0.0035795058
 O    1.0843190185   -0.7704178381   -0.0073551281
 C    0.6814635204   -2.1369604916   -0.0133737174
 C   -0.8328182448   -2.0972272573   -0.0048097688
 C   -1.2147361490   -0.8097681901    0.0046485858
 C   -1.6186761117   -3.2663567553   -0.0076102024
 C   -2.2494531318   -4.2927951118   -0.0102832907
 H    0.9610186308    1.6516224944    0.0076374784
 H    1.0777845292   -2.6345981557   -0.9071641011
 H    1.0875113414   -2.6452440213    0.8699906366
 H   -2.2191494441   -0.4158662317    0.0122102268
 H   -2.8204033231   -5.1886476830   -0.0122916483