19

 C   -0.1516172908    1.4457231189   -0.2332933240
 N   -0.1710983824   -0.0190864562   -0.1776276435
 C   -0.3040324431   -0.5650377370    0.9376542705
 C   -0.3643633350   -1.9887970008    1.4475429989
 C   -0.5339035542   -1.3159615214    2.8250347327
 O   -0.4592980849    0.0030380364    2.2006719625
 C    1.2594873450    1.9825316225   -0.1166855741
 C    1.4967981911    3.2987824206    0.5240886196
 N    1.9111696090    2.0567145179    1.2002743243
 H   -0.5740605913    1.7442339321   -1.1994207546
 H   -0.7736284496    1.8933953887    0.5550133614
 H   -1.2153547754   -2.5687839087    1.0870550546
 H    0.5534181310   -2.5614294248    1.3053786594
 H   -1.4974122862   -1.4589112329    3.3197913120
 H    0.2830810112   -1.4555416902    3.5364404014
 H    1.9288942057    1.6612092114   -0.9120641583
 H    2.3117846472    3.9330999302    0.1865730669
 H    0.6347000510    3.8401106136    0.9070119246
 H    1.2363343618    1.8111703797    1.9217230056