17

 C    0.5011196125   -0.3593582478    1.1859721955
 C    0.1659852910    0.5036741142    0.4183618668
 C   -0.2176045000    1.5444265091   -0.5457314042
 N    0.8515722284    2.4405809819   -0.9902709931
 C    1.3600852305    3.3296145732    0.0088205947
 C    2.3684069360    2.9443099697    1.0605866052
 C    2.7860410090    3.8439571580   -0.1025362720
 C    3.6406894542    3.3038637189   -1.1206933160
 N    4.3078385441    2.8463383409   -1.9488840881
 H    0.7897153137   -1.1219215964    1.8666819739
 H   -0.6438100935    1.0678766849   -1.4359585041
 H   -1.0184143806    2.1602799957   -0.1176786484
 H    1.5973165516    1.9190785778   -1.4387151904
 H    0.6351104568    4.0875893440    0.2970152055
 H    2.3178707469    3.4047054273    2.0409191985
 H    2.7405018654    1.9277963011    1.0460387927
 H    2.9494472742    4.8957055276    0.1034288832