20

 O    0.1012467910    1.2536554263   -0.6009444991
 C    0.0567403148    0.0711002190    0.1802803708
 C   -1.3460972289   -0.4948536816    0.2195550937
 C   -2.3622819158    0.3137435544    1.0090501658
 O   -3.6434931033   -0.2888539098    1.0021306583
 C   -3.6017134377   -1.5842314473    1.5838997785
 C   -2.8344516918   -2.5822615390    0.7052842546
 C   -1.6064120466   -1.9517041848    0.0599866041
 N   -1.7864455781   -1.0273769591   -1.0830368391
 H   -0.2505291844    1.0045311723   -1.4648305313
 H    0.7466827084   -0.6930163927   -0.2077865838
 H    0.3951535492    0.3503605288    1.1845588223
 H   -2.0059554780    0.4430216183    2.0453008162
 H   -2.4760072013    1.3071605325    0.5651191737
 H   -3.1313146982   -1.5204153145    2.5784744619
 H   -4.6401774559   -1.8965925655    1.7229294834
 H   -2.5319260915   -3.4395929253    1.3167523584
 H   -3.4882835571   -2.9780749963   -0.0816876114
 H   -0.7536495573   -2.6154751320   -0.0665252750
 H   -2.7833336076   -0.8390625136   -1.1851411022