21

 C    0.3288694035    1.3195412417    0.0196692553
 O    0.2306190974   -0.0818477531   -0.0577776177
 C    0.5673816907   -0.7248151256    1.1476910303
 C    0.3979408092   -2.2371791330    0.9723809591
 C    1.4401138649   -2.8250238160   -0.0432818178
 C    2.3527023358   -3.2220725276    1.1468828931
 C    1.1522156722   -3.0163981865    2.1080989293
 C   -0.9945043813   -2.5916382112    0.7600995197
 C   -2.1411990046   -2.9191783517    0.6027589375
 H    1.3527817486    1.6457765014    0.2641608232
 H    0.0551237224    1.7209488765   -0.9589375010
 H   -0.3526318498    1.7356804384    0.7782561629
 H    1.6124570873   -0.5004615331    1.4238598066
 H   -0.0746914962   -0.3743585077    1.9728503422
 H    1.0346383963   -3.6929025004   -0.5662164463
 H    1.8249531804   -2.1155865496   -0.7775891433
 H    2.7905050767   -4.2217393721    1.1189421416
 H    3.1577822399   -2.5033858186    1.3196100378
 H    1.3266957122   -2.4638480285    3.0357242381
 H    0.6409708699   -3.9502668218    2.3477502350
 H   -3.1547809656   -3.1973797016    0.4533761745