19

 C   -0.0698147459    1.6277999727   -0.0028285737
 C    1.4393187284    1.2697932465    0.0044010850
 C    1.1025562300    0.1863355871    1.0827542484
 C    2.0640314519   -0.9775877680    1.3121915800
 C    2.5312995105   -1.5987546318    0.0145950634
 O    1.5332881757   -2.2521592745   -0.7785115728
 C    2.0441442682   -0.9832558733   -1.2238796888
 C    1.1065214458    0.1880964592   -1.0838382972
 C   -0.0156918570    0.0751924417   -0.0067343736
 H   -0.4665625617    2.0998042933    0.9001508221
 H   -0.4531232431    2.1059878568   -0.9085370953
 H    2.2853733986    1.9604098835    0.0042499687
 H    0.7580570665    0.5999404487    2.0365173941
 H    2.9410099100   -0.6183181722    1.8666679078
 H    1.5900911829   -1.7417757801    1.9411790448
 H    3.4924983806   -2.1114053001    0.0249594406
 H    2.6467706989   -1.0360520334   -2.1296224382
 H    0.7832106705    0.5856989598   -2.0506137832
 H   -0.8534859608   -0.6216522358   -0.0213788123