18

 O   -0.0511764044    1.3551638531   -0.1843117189
 C    0.0195670381   -0.0080465669    0.0007225961
 C    1.1726491269   -0.8795088455   -0.5716859783
 C   -0.2574712791   -1.0670975378   -1.0094996498
 N   -0.4324570080   -2.0574062666    0.1482923585
 C    1.0925359558   -2.1518552817    0.2604266094
 C    1.4505821406   -2.0398243819    1.7415268854
 C    0.3066332457   -1.1549863604    2.3244549931
 C   -0.5743825740   -0.8750358910    1.1083807252
 H    0.6793579190    1.7711523130    0.2866217102
 H    1.9948774821   -0.4244226685   -1.1118999758
 H   -0.7643610143   -1.1006185816   -1.9626146749
 H    1.4679859290   -3.0477450144   -0.2394520572
 H    1.4650688904   -3.0259271409    2.2146641135
 H    2.4419965865   -1.5978969941    1.8787375282
 H   -0.2496461301   -1.6867877010    3.1014582763
 H    0.6743908120   -0.2258153039    2.7708523078
 H   -1.6243053261   -0.6622367599    1.3202845611