18

 C   -0.0874328696    1.7718069392    0.2535855662
 C   -0.0575488381    0.2831048285   -0.0266107533
 C    1.2170478198   -0.3691937759   -0.4669333551
 C    0.6873063068   -0.6512737363    0.9331470546
 C    1.3652169502   -0.1237737299    2.0816559746
 N    1.9063584419    0.3110876547    3.0078310961
 C   -1.3511773815   -0.2647341679   -0.5619820543
 C   -1.5688815880   -0.5094182993   -1.9942216899
 O   -1.3282934207   -1.5905286685   -1.0860540581
 H    0.8402056596    2.1084518469    0.7218806217
 H   -0.2263545589    2.3329822483   -0.6764636070
 H   -0.9109239553    2.0284475407    0.9289211720
 H    1.1557924085   -1.1990268605   -1.1608335359
 H    2.1022366380    0.2505636154   -0.5480956173
 H    0.2452784608   -1.6307352394    1.0809823930
 H   -2.2247934787   -0.0447834139    0.0545223215
 H   -2.5753436076   -0.4645903093   -2.4056183610
 H   -0.7626919472   -0.3078028228   -2.6973110079