19

 C    0.6392957441    1.4554470998    0.2076139097
 O    0.7945382180    0.0553447398    0.2125848969
 C   -0.1968317779   -0.6021842110    0.9696867806
 C    0.0762050466   -2.0913570624    0.9210188453
 C    1.2857936302   -2.6985031787    1.7028668754
 C    0.3856032274   -3.9127331112    2.1381969454
 O    0.4509296544   -4.4586673089    3.4185131294
 C   -0.7920407899   -2.9940274304    1.8080192520
 O   -1.8475299755   -2.8407494014    2.3609339866
 H    0.7030690938    1.8770382336    1.2231702670
 H    1.4472559120    1.8712483766   -0.3989277634
 H   -0.3258321016    1.7580336845   -0.2283918039
 H   -0.1887686642   -0.2489155409    2.0151491078
 H   -1.2026129194   -0.3928373798    0.5689216711
 H    0.0752886761   -2.4358954327   -0.1186941283
 H    2.1799893248   -2.9378247892    1.1289650732
 H    1.5493759221   -2.0834714244    2.5670257883
 H    0.4833461506   -4.7157932798    1.3961281612
 H   -0.2502825915   -4.0493557636    3.9407230260