17

 O    0.1963529087    1.2984611318    0.2482499836
 C    0.0604677199   -0.0721033530    0.1043787967
 C   -0.4669691803   -0.7979791564    1.2895104773
 C   -1.3442643880   -0.7009888520    0.0376406582
 C   -2.4506346602    0.2163925126    0.0616558913
 N   -3.3555026186    0.9370798842    0.0183199482
 C   -1.5386536105   -1.9356860168   -0.8041430841
 C   -2.8613719821   -2.5949183593   -0.9332195861
 N   -2.2581846175   -1.8907408683   -2.0813063999
 H    0.0131287546    1.7225637977   -0.5978093427
 H    0.8099374133   -0.5675204500   -0.5131561987
 H   -0.0731935746   -1.7786746721    1.5306768937
 H   -0.7560277116   -0.1873497184    2.1361479515
 H   -0.6474512827   -2.5606064262   -0.8301293228
 H   -2.9213179557   -3.6745453703   -1.0346685799
 H   -3.7067096372   -2.1322966245   -0.4315504228
 H   -2.7105011476   -0.9854421491   -2.1970616935