19

 C    0.3310494727    1.5003863079    0.1416669131
 C    0.0119512106    0.0263216456   -0.0543742889
 C    0.7210702643   -0.6164227614   -1.3113841686
 C    1.7868953788   -1.4038737825   -0.6136138134
 C    2.7966761291   -2.5746680834   -0.5361853935
 C    2.7986803657   -1.7852924972    0.8204127796
 O    2.8164531594   -0.5389422918    0.0522216658
 C    1.2341142252   -1.7808149125    0.7548715304
 O    0.4390624849   -0.7025201686    1.1369889939
 H    1.4121199889    1.6403026159    0.2092756262
 H   -0.0604932491    2.0925319650   -0.6924385094
 H   -0.1288597650    1.8633849222    1.0651149766
 H   -1.0735480196   -0.1103760292   -0.1402894697
 H    0.0410629615   -1.2727473073   -1.8617950526
 H    1.1081693961    0.1459241718   -1.9907404602
 H    2.4043328000   -3.5949382135   -0.5567097339
 H    3.7084033374   -2.4510442599   -1.1188206134
 H    3.4861621399   -1.8781026405    1.6613167369
 H    0.7366259892   -2.7487970906    0.8900051510