16

 C    0.1207624807    1.3308050848   -0.1881391432
 O   -0.0048260843    0.0373092056    0.3736242187
 C   -1.2607467424   -0.5105009730    0.2198151057
 C   -1.5772241718   -1.3608897414   -1.0598531080
 O   -0.6138821080   -2.3722787495   -0.5911251710
 C   -1.3782537201   -1.9988589166    0.6135852866
 C   -2.6769213876   -2.1180628831   -0.2494432214
 C   -3.9143840641   -1.4674314581    0.1432654266
 N   -4.9014138343   -0.9503266790    0.4523394274
 H    1.1249621827    1.6852551684    0.0508160603
 H   -0.0007628418    1.3138754155   -1.2804125966
 H   -0.6172306911    2.0277403943    0.2357972017
 H   -2.0593937864    0.1620243949    0.5616125906
 H   -1.5817060100   -1.1064964151   -2.1187268681
 H   -1.1404903267   -2.4986274478    1.5512810248
 H   -2.8379930949   -3.1315210398   -0.6151444741