13

 C   -0.0154113820    1.3790594001    0.0033031668
 O   -0.0237147948   -0.0531857561   -0.0208977506
 C    0.5847187359   -0.6120040762   -1.0677904744
 N    1.1770012703    0.0072908178   -2.0457725646
 O    1.6548842390   -0.9881694236   -2.8650811530
 N    1.3519504538   -2.2439806344   -2.3621632702
 C    0.6876922528   -2.0302967733   -1.2606629267
 N    0.1259897427   -3.0002810797   -0.4631709299
 H    1.0117688084    1.7557588430    0.0227819133
 H   -0.5241036060    1.7785584377   -0.8791079383
 H   -0.5450164212    1.6660793277    0.9114245366
 H    0.5187182721   -3.9222994642   -0.5877850070
 H    0.0334619591   -2.7357418987    0.5066125080