21

 C   -0.0563055852    1.5251929120   -0.0881584883
 C    0.0191972963   -0.0090551956    0.0084915399
 C    0.7747576598   -0.4067805768    1.2922406934
 C   -1.4099227096   -0.5787891878    0.0531273599
 C    0.7414036695   -0.5547881269   -1.2952335668
 C    2.1732396442   -0.0568510595   -1.3803047765
 O    2.5170371782    0.9088484009   -2.0119690320
 C    0.7188636299   -2.0712220642   -1.3554861188
 O   -0.0311102619   -2.7087789962   -2.0483634207
 H    0.9333840043    1.9845047764   -0.1502820240
 H   -0.6239701713    1.8377767020   -0.9701985419
 H   -0.5613837809    1.9262625617    0.7969197344
 H    0.2312535559   -0.0338817143    2.1662802109
 H    0.8628646445   -1.4920206733    1.4037976949
 H    1.7811797059    0.0220153437    1.3287523023
 H   -1.9612863875   -0.3396428814   -0.8615299324
 H   -1.4194105478   -1.6659951179    0.1703502209
 H   -1.9534745558   -0.1454779728    0.8991810480
 H    0.1919521194   -0.1726428856   -2.1601780007
 H    2.9167353585   -0.6484627047   -0.7991592715
 H    1.4582318634   -2.5837940996   -0.6982204812