12

 O   -0.3702486741    0.0806461301    0.0073876011
 C   -0.1100357167    1.2497424005    0.0093894058
 N    1.1714135390    1.7924631408   -0.0013964676
 C    2.3622298599    1.0913342888   -0.0167905412
 N    2.4989502113   -0.1959796550   -0.0296884919
 O    3.9134503703   -0.3952222615   -0.0418202171
 C    4.5758622825    0.7954204477   -0.0358965588
 O    5.7614708437    0.9504451632   -0.0427955356
 N    3.5636610298    1.7533221266   -0.0199753339
 H   -0.8638946097    2.0598472789    0.0204496676
 H    1.2361518477    2.7988311652    0.0013778688
 H    3.7429401362    2.7424103849   -0.0096519974