22

 C   -0.0915042672    1.4229628092    0.0929570889
 O   -0.0147927245    0.0217750380   -0.0267477245
 C   -1.2748856705   -0.6070805799    0.0712719916
 C   -1.0940625539   -2.1233863988   -0.0144098984
 O   -0.4743288415   -2.6398756599    1.1513680426
 C    0.9418469600   -2.6659684415    1.1358482880
 C   -2.4430110453   -2.8111751503   -0.1661886311
 C   -2.6083713109   -4.2368273816    0.1936246493
 N   -3.2155244716   -3.1820862865    1.0293495477
 H    0.9230848942    1.8167085695   -0.0036338266
 H   -0.7210833257    1.8640466506   -0.6959685667
 H   -0.5017088312    1.7275013848    1.0683893822
 H   -1.7661745958   -0.3554614987    1.0250662453
 H   -1.9361225738   -0.2671185526   -0.7443712328
 H   -0.4738011597   -2.3414090907   -0.8988194487
 H    1.3652917415   -1.6584364615    1.0834029920
 H    1.2565045194   -3.1501766454    2.0640019698
 H    1.3197782738   -3.2536211767    0.2857045190
 H   -3.0498700655   -2.4079021665   -0.9747707593
 H   -3.3145790492   -4.8546094067   -0.3537653068
 H   -1.7389838620   -4.7546993513    0.5858829525
 H   -2.6130158506   -3.0471254633    1.8395075163