18

 O    0.1715365099    1.3323578494   -0.1071721404
 C    0.0831654407   -0.0720389863    0.0098146131
 C    0.3208835073   -0.7771290349    1.3759381842
 N   -1.0397469782   -1.4293100709    1.3240219504
 C   -2.0415329818   -0.3448427609    1.3232724298
 C   -1.9381746149    0.9296192458    2.1516619693
 C   -1.9663802818    0.6080262992    3.6314650720
 O   -1.0738305753    0.8640035126    4.3990395202
 C   -1.3331573710   -0.6205702310    0.0539085376
 H    1.1001032496    1.5727904380   -0.1897229913
 H    0.6594199671   -0.5644663044   -0.7832519153
 H    1.0944487962   -1.5466980542    1.3464209513
 H    0.4828554977   -0.1344282712    2.2447017969
 H   -3.0358188230   -0.7885933058    1.3534962741
 H   -1.0491284917    1.5127213909    1.9185132394
 H   -2.8171240151    1.5452752965    1.9163678991
 H   -2.8874404972    0.0861875831    3.9808840005
 H   -1.8454767184   -1.0599252658   -0.7964341209