15

 N    0.1876751230    1.4058006151   -0.0931948248
 C    0.0146528103    0.0104412401   -0.0461216720
 C   -1.1203219016   -0.7828471031   -0.0564662659
 O   -2.3825575653   -0.2528214853   -0.0538677154
 C   -0.7161971440   -2.1359630014   -0.0556153627
 C    0.6756100499   -2.1503609430   -0.0354342471
 N    1.0933968585   -0.8358718508   -0.0330969327
 C    1.5824065205   -3.2234722814   -0.0145487906
 C    2.3720491270   -4.1357389510    0.0000379330
 H    0.2780753207    1.8144737187    0.8339235240
 H   -0.6209737136    1.8361595901   -0.5287591205
 H   -3.0109875595   -0.9574611199   -0.2338490369
 H   -1.3481886100   -3.0107987358   -0.0480575898
 H    2.0501823553   -0.5318007950   -0.0895506143
 H    3.0590546489   -4.9445393775    0.0145137856