15

 O    0.1530429743    0.9053033107   -0.7717990132
 C    0.0340173760   -0.2480143883    0.0050173740
 C   -0.0093831658   -0.1033288059    1.5324617443
 O    0.4861066033    0.7055151144    2.2618158275
 C   -1.1288985876   -1.1434396339    1.6535949740
 C   -1.4157481157   -0.8781518929    0.1399894926
 O   -2.3663592900    0.1618412332    0.0476024241
 C   -1.7222495224   -2.0198559860   -0.7065290835
 C   -1.9551616363   -2.9618191370   -1.4162157641
 H    0.2628164293    1.6505395460   -0.1674073508
 H    0.7531518754   -1.0119452081   -0.3146925918
 H   -0.7510470783   -2.1514939607    1.8429229931
 H   -1.9475760634   -0.9093664503    2.3346854692
 H   -2.0869158893    0.7139863559   -0.6967851108
 H   -2.1722636096   -3.7923390670   -2.0419054546