17

 C   -0.0841844451    1.5206517347   -0.1443101450
 C   -0.0801032413    0.0060863127    0.0524122144
 N   -1.4245878754   -0.5538904267    0.0378782857
 N   -1.9875756453   -1.0834348625    1.1063693101
 N   -3.1947155663   -1.4621760228    0.7398753280
 C   -3.2951299739   -1.1284635639   -0.5666597924
 O   -4.3593234358   -1.3378789477   -1.3323370651
 C   -5.4675654193   -1.9733039781   -0.6880235418
 N   -2.1975774508   -0.5512681979   -1.0486743605
 H    0.9439237723    1.8933252672   -0.1392769984
 H   -0.5453626482    1.7828104202   -1.0991446034
 H   -0.6362938512    2.0154630394    0.6593247211
 H    0.4918225993   -0.4896777720   -0.7370413744
 H    0.3399947353   -0.2766165948    1.0192262071
 H   -5.8335464393   -1.3673902156    0.1459739696
 H   -6.2368173962   -2.0664293638   -1.4546316380
 H   -5.1854245291   -2.9604721984   -0.3106168271