18

 C   -0.1720137532    1.6243553160   -0.0958966246
 C   -0.0504289575    0.1097558280   -0.0313787114
 C    1.1819402888   -0.5881628710   -0.6532112577
 C    2.0956472270   -0.2545858819    0.5770168526
 C    2.5502112371   -1.7312453039    0.7122302788
 C    2.9365723499   -2.2090807761    2.0318946707
 N    3.2370591451   -2.5839751472    3.0839471414
 C    1.0537472652   -1.8104836720    0.3165502192
 C    0.6712011320   -0.5513107840    1.1661951418
 H    0.7702710916    2.1204639068    0.1583141411
 H   -0.4614292599    1.9521123173   -1.1002599264
 H   -0.9364344894    1.9847366993    0.6008870386
 H   -1.0032149440   -0.3692194608   -0.2896296860
 H    1.5048690097   -0.6315221481   -1.6952590192
 H    2.7052078176    0.6344041142    0.7319042422
 H    3.2623198041   -2.0819068370   -0.0412755751
 H    0.4482792284   -2.7042799711    0.1666195993
 H    0.4042600474   -0.5507242684    2.2234814946