17

 C   -0.0157640026    1.4292811401    0.5849729544
 C   -0.1149980192   -0.0302403351    0.1861915167
 C   -1.2676008069   -0.5639604043   -0.5482441638
 O   -0.0374601723   -0.2851332724   -1.2257735632
 C    1.3418585913    1.9936141135    0.3126515182
 C    2.2480362877    2.6916793774    1.0702093211
 N    3.3683425793    3.0065684263    0.3349001965
 C    3.1473964864    2.5026368398   -0.8577186345
 N    1.9356161088    1.8847109407   -0.9297718386
 H   -0.7871444215    1.9912866831    0.0412915399
 H   -0.2384231198    1.5330218258    1.6521215812
 H    0.4807160366   -0.7207799127    0.7836138176
 H   -1.5226359146   -1.6192483336   -0.4705765382
 H   -2.0964287131    0.0979092081   -0.7953374774
 H    2.1520150891    2.9875609561    2.1046024566
 H    3.8203587006    2.5514653488   -1.7008844086
 H    1.5416136701    1.3731605781   -1.7040630779