15

 C   -0.0361156294    1.5454837559    0.0058788930
 C   -0.0115302726    0.0042022327    0.0241720549
 C    0.7392070100   -0.5297467832    1.2601949962
 O   -1.3408984705   -0.5177359755   -0.0177058800
 C    0.6469966232   -0.4858158491   -1.1936048417
 C    1.2289926036   -0.8652416739   -2.1809505267
 C    1.8816669310   -1.2977586219   -3.2999362349
 N    2.4404235516   -1.6634243443   -4.2504243911
 H    0.9751027964    1.9591419591   -0.0312616155
 H   -0.5981826337    1.9011780758   -0.8599590346
 H   -0.5223068388    1.9112037621    0.9171651613
 H    0.2513108949   -0.1594709159    2.1687341563
 H    0.7179439410   -1.6213444960    1.2691324319
 H    1.7793515211   -0.1935128883    1.2699104567
 H   -1.7925990378   -0.2083217874    0.7757884044