18

 C   -0.0647193330    1.3783835006   -0.1928875840
 O   -0.0871095970   -0.0190016348    0.0641932475
 C   -1.3772597033   -0.5757994000    0.0564853635
 C   -1.6611503981   -1.3029319425   -1.3036962656
 O   -0.9719786456   -0.8243577409   -2.4189119240
 C   -1.2011556628   -2.6415616404   -0.6567191286
 C   -1.3752297134   -1.9779672371    0.7463784085
 C   -0.3726979322   -2.2326270501    1.7642868066
 N    0.4240366756   -2.4494811567    2.5731328854
 H    0.9813954512    1.6885050988   -0.1503160312
 H   -0.4759810267    1.6162630605   -1.1818106781
 H   -0.6321084163    1.9269051689    0.5717052658
 H   -2.1197273318    0.1417934741    0.4251057737
 H   -2.7248975878   -1.3096578812   -1.5563922423
 H   -0.0644952026   -0.6691391446   -2.1255966709
 H   -1.7870066664   -3.5399565864   -0.8549201064
 H   -0.1493612007   -2.8407028694   -0.8729418236
 H   -2.3653376190   -2.1858016087    1.1615559237