19

 C    0.0753436568    1.5487869702   -0.7511167691
 O   -0.2665554175    0.1802902111   -0.7280867332
 C    0.8271214519   -0.7107080068   -0.9596650144
 C    1.7478456979   -0.8422947182    0.2557499525
 C    0.2198013891   -2.0252778667   -1.3480874954
 C    0.6515612149   -3.3283046422   -1.3096066643
 N   -0.2911517063   -4.1733858917   -1.8506315107
 C   -1.2860008597   -3.3936002573   -2.2083515231
 N   -1.0222924756   -2.0852864173   -1.9380627107
 H    0.7257693762    1.8345472690    0.0868699494
 H    0.5794930274    1.8249073027   -1.6902836818
 H   -0.8573732494    2.1125183542   -0.6713865409
 H    1.4149716022   -0.3100456747   -1.8054613404
 H    2.5463543163   -1.5601087195    0.0469678585
 H    2.2184750977    0.1134894814    0.5010932876
 H    1.1806714679   -1.1939651469    1.1212293967
 H    1.5888830693   -3.7077534904   -0.9320333499
 H   -2.2134119771   -3.7145537301   -2.6587259124
 H   -1.6286878620   -1.2878726070   -2.0358052383