19

 C   -0.0445881261    1.6170488669    0.0763794606
 C   -0.1217986657    0.0897322844   -0.0221295929
 C    0.7076539053   -0.4917602135   -1.1739698828
 C    2.2744654283   -0.4470847953   -1.1028090264
 C    2.2335662040   -1.9675647158   -1.2202740444
 C    1.4331685046   -2.5593058222   -0.1377346613
 N    0.7138227971   -2.0103361373   -1.3072063516
 C    0.2258113342    0.0500698234   -2.4498213765
 N   -0.1460399007    0.5085799849   -3.4433337048
 H    0.9856153127    1.9555878870    0.2305647200
 H   -0.4239447986    2.0958291287   -0.8306525694
 H   -0.6407546729    1.9727859234    0.9211012117
 H    0.2244784945   -0.3526514852    0.9163428794
 H   -1.1603285861   -0.2317595191   -0.1600768596
 H    2.7252206862    0.0599520480   -1.9551220434
 H    2.7012493179   -0.0462375718   -0.1791606487
 H    2.8501538575   -2.5571119893   -1.8893622798
 H    1.3542110137   -3.6410172974   -0.0991274953
 H    1.3750396642   -2.0714046300    0.8307720454