16

 O   -0.0113437418    1.3660473454    0.0310504987
 C   -0.0833149002   -0.0191187351    0.0428174213
 C   -1.3675523232   -0.8005303924    0.0677958566
 O   -1.6784322740   -1.7922700317    0.9659419716
 C   -2.4244473054   -0.1107134963   -0.7871972700
 N   -1.4353057052    0.0783527722   -1.9050958885
 C   -0.4516506448   -0.7943958177   -1.2070727590
 C    0.3377813540   -1.7657722312   -1.8648567498
 C    0.9913297654   -2.6035811354   -2.4325235503
 H   -0.3862112754    1.6321951242   -0.8244687860
 H    0.7176388428   -0.4755051573    0.6203412351
 H   -1.2855438707   -1.5768039688    1.8185130749
 H   -3.2286734715   -0.8037174708   -1.0492659546
 H   -2.8476530458    0.8235020090   -0.4034733839
 H   -1.7552479150   -0.3521867824   -2.7657313253
 H    1.5764038908   -3.3379971018   -2.9280559808