19

 C    0.0457433465    1.5205635762   -0.1136054107
 C   -0.0018505087    0.0074247510    0.1052071878
 O    0.6052218952   -0.3652970891    1.3325623431
 C   -1.4327140502   -0.5549458733    0.0286292468
 C   -1.4746331612   -2.0776998229    0.0719635105
 O   -2.1140399858   -0.0092287809    1.1761387290
 C   -3.4444371319    0.1757159697    1.0950861410
 N   -4.0919097290    0.5657821248    2.1055779134
 H    1.0746687497    1.8744089674   -0.0137690663
 H   -0.3184461342    1.7890534284   -1.1114441231
 H   -0.5726892728    2.0374477598    0.6265540170
 H    0.5880634957   -0.4899177439   -0.6740165354
 H    0.0278800362   -0.0386838593    2.0340738549
 H   -1.9181061054   -0.1815743348   -0.8840135748
 H   -2.5056151964   -2.4417764545    0.1053352380
 H   -0.9940481782   -2.4943226896   -0.8189161100
 H   -0.9414691657   -2.4365655205    0.9549011566
 H   -3.8534813182   -0.0314017799    0.0961590882
 H   -5.0753971955    0.6743771515    1.8672582437