21

 C   -0.0670505502    1.4468974751   -0.1722801942
 C    0.0137375188   -0.0664866635    0.0937919655
 C    0.6580422642   -0.3684654654    1.4549028436
 C   -1.3516854537   -0.6822913805   -0.0170865950
 O   -2.3497858356   -0.2677209591    0.9464773779
 C   -2.8392901981   -1.6385624237    1.0557013418
 C   -1.9145175577   -2.1065345484   -0.0541948549
 C   -2.0819206417   -1.1529518282   -1.2305194098
 O   -3.3084948310   -0.6126947575   -1.6068820533
 H    0.9249327631    1.9048094349   -0.1107829458
 H   -0.4783231619    1.6538789793   -1.1650539046
 H   -0.7105401486    1.9321877892    0.5684028282
 H    0.6254873803   -0.5256592146   -0.6947074589
 H    1.6537789787    0.0805043275    1.5223081633
 H    0.0448756755    0.0365856486    2.2654524210
 H    0.7602697180   -1.4466557902    1.6141395157
 H   -2.6007288258   -2.0465675732    2.0428303177
 H   -3.9173466374   -1.7051276307    0.8713136475
 H   -1.4225994185   -3.0682120440   -0.1213675979
 H   -1.4625237401   -1.3985298304   -2.0891202583
 H   -3.5471286086    0.0102889947   -0.9065473795