19

 C    0.1291849431    1.5302557292   -0.1636420664
 C   -0.0150205120    0.0023733228   -0.0889393447
 O    0.6139933284   -0.5194464111   -1.2529597377
 C    1.0162185615   -1.8805475893   -1.1601220578
 C    2.0468508594   -2.0789261270   -0.0505944709
 C    1.5313416600   -1.4560335193    1.2179309163
 C    0.5720103626   -0.5342498748    1.1954531135
 C   -1.5167589478   -0.3430018810   -0.1343244759
 O   -2.3255536750    0.0488651315    0.6645291601
 H    1.1819144117    1.8058455557   -0.0680078991
 H   -0.2432323276    1.8926724951   -1.1261606856
 H   -0.4474982519    1.9968012491    0.6378059530
 H    0.1470260256   -2.5301791075   -0.9703149540
 H    1.4192597407   -2.1375263636   -2.1431794244
 H    2.2357469686   -3.1496848562    0.0940131417
 H    3.0060164115   -1.6296896083   -0.3410876438
 H    1.9498869269   -1.7860100503    2.1647021251
 H    0.1543346536   -0.1155123922    2.1054256122
 H   -1.7983535892   -0.9811488827   -1.0032384819