15

 O    0.0560797174    1.3602567732   -0.0458918886
 C    0.0316155581   -0.0482952574   -0.0339308015
 C    0.5159647584   -0.6811555057    1.3175694801
 C   -0.8364124674   -1.2803433513    1.7437580341
 C   -1.2951789588   -2.0470815072    0.4827204415
 C   -1.4158461052   -0.5870298326    0.0102154641
 O   -1.7802184632   -0.2098736076    1.3829854212
 H   -0.5464918430    1.6320152676    0.6596450625
 H    0.5998043753   -0.3814834260   -0.9054378260
 H    1.2984482557   -1.4351399618    1.1982596673
 H    0.8720354939    0.0938959609    1.9995881960
 H   -0.9648596747   -1.6547667149    2.7587715180
 H   -0.5887840081   -2.7144485531   -0.0179374768
 H   -2.2705833973   -2.5170283448    0.6115520446
 H   -2.1144343510   -0.2383816192   -0.7499178565