18

 C   -0.0130365433    1.5586461232    0.0305821183
 C    0.0121375993    0.0269428734    0.0221431114
 O   -1.3146624640   -0.4942024769    0.0166667007
 C    0.7632079404   -0.5558918604   -1.2055346900
 C    1.9324068527   -1.3031602585   -0.6222620662
 C    1.9475056818   -1.2868395558    0.7188982037
 C    0.8056375556   -0.5302058559    1.2116209687
 N    0.3799514988   -0.3097006020    2.3956395592
 O    1.1809856027   -0.9250549685    3.3700347741
 H    1.0000141459    1.9712656857   -0.0223660863
 H   -0.5884930526    1.9240815449   -0.8250704957
 H   -0.4769338652    1.9209174935    0.9528074952
 H   -1.6449768502   -0.4068076321    0.9191882035
 H    0.0905170081   -1.2216386501   -1.7577178219
 H    1.0846890672    0.2246071355   -1.9050503412
 H    2.6678613614   -1.8025093059   -1.2437298172
 H    2.6706701671   -1.7620987723    1.3661651664
 H    0.7486580744   -0.6612756176    4.1889925576