16

 C   -0.2217185590    1.4377959948    0.0919538306
 N    0.0063234714   -0.0023943484    0.0392454231
 C    0.7764021645   -0.4270242178   -1.1569371523
 C    2.1535214799   -0.2802761077   -0.4697979143
 O    2.5934773501   -1.5858821143   -0.8928220660
 C    1.1679929378   -1.9340659413   -0.9176736422
 C    0.9518593626   -1.9635638136    0.6099113203
 O    0.6906614249   -2.8461690422    1.3685255427
 C    1.2255727996   -0.4597849894    0.8107732019
 H    0.6762530149    2.0477701779   -0.1089887509
 H   -0.9864778989    1.7035247493   -0.6449510697
 H   -0.6007285180    1.7057538975    1.0822725212
 H    0.4825303525   -0.0795768959   -2.1464847791
 H    2.9033489974    0.5041366038   -0.5507473199
 H    0.9106117153   -2.7814776858   -1.5465836722
 H    1.4032843750   -0.0624705570    1.8060063467