14

 N   -0.1698390200    1.0427520143    0.7341823534
 C   -0.0380032961   -0.1140572082    0.0344666724
 O    1.0097637490   -0.5795274464   -0.3559257942
 C   -1.3580010255   -0.8774924161   -0.2391638086
 O   -1.3534284567   -2.1436721986    0.3825831227
 C   -2.0878040844   -2.0267908998    1.5845403770
 C   -2.9496466380   -0.7877997150    1.3941597452
 O   -3.8385036033   -0.3611228110    2.0623678316
 O   -2.4999691256   -0.1742664873    0.2538572804
 H    0.6528696673    1.6091254029    0.8677277466
 H   -1.0762079255    1.4515892990    0.8872286106
 H   -1.4632559722   -1.0194110095   -1.3179449411
 H   -2.7033527463   -2.9172965781    1.7310694224
 H   -1.4420490326   -1.8920794661    2.4642587118