17

 C    0.0628242617    1.5001536161   -0.3767302534
 C   -0.0868482352    0.0662387711    0.0618616861
 O    1.0574696616   -0.7922669469   -0.0412434743
 C    0.5422112808   -0.5095951493    1.2639665309
 C    1.4223705784    0.2591017295    2.2106852086
 C    0.8417636529    0.8571273506    3.4309352328
 O    1.5706273271   -0.3559896434    3.5075999568
 C    2.7257947902    0.8426195907    1.7004919217
 O    3.4141715533    1.5692330758    2.3701080557
 H    0.9621928197    1.9695726804    0.0289609506
 H    0.1139952231    1.5587458224   -1.4685703161
 H   -0.8042666876    2.0841306852   -0.0504337598
 H   -1.0089233419   -0.4136674419   -0.2716513865
 H    0.0501253612   -1.3514858373    1.7527442172
 H    1.3356763657    1.7256663100    3.8606936229
 H   -0.2329050349    0.7732660613    3.5900588093
 H    3.0075131540    0.5400170956    0.6756773073