22

 C   -0.1213322200    1.3768306475   -0.2968769514
 C    0.0772390218   -0.1066579709    0.0117150012
 C    1.1801707436   -0.7458983842   -0.9106140145
 C    2.2114942794   -0.5143761889    0.2269655607
 C    1.0256790324   -0.3496911818    1.2148455779
 O    1.0543417633    0.6859723342    2.1663458545
 N   -1.2457708370   -0.7028805020    0.1646339101
 C   -1.9350538049   -1.1991331998   -1.0176213852
 C   -1.4441395464   -2.1370221542    0.0319792512
 H    0.8337046393    1.9012507614   -0.3818511208
 H   -0.6597810587    1.4890034878   -1.2439400450
 H   -0.7040679505    1.8503887753    0.4955615888
 H    1.0218709483   -1.8082940914   -1.1100710753
 H    1.3660409018   -0.2402644099   -1.8605665693
 H    2.9289386104   -1.3132007094    0.4287733531
 H    2.7520612337    0.4282105982    0.1107427394
 H    0.7755443028   -1.3134244232    1.6814544040
 H    1.6116124439    0.4109077713    2.9004320812
 H   -2.9905070921   -0.9529873643   -1.0983332210
 H   -1.3947353817   -1.2019607699   -1.9633490505
 H   -0.6021918453   -2.7752679605   -0.2286222609
 H   -2.1350601041   -2.5779236354    0.7456905417