26

 C   -2.8060928756   -1.8819449637   -3.2493548724
 C   -1.7342910408   -2.3717243707   -2.2753831920
 N   -1.6694434446   -1.4731232770   -1.1289535578
 C   -2.4173706914   -1.8094117640    0.0761119732
 C   -0.9260749317   -1.7447835035    0.1018918014
 C    0.0192804446   -2.9090345089    0.4433022503
 C    1.3377035725   -2.7116102650   -0.3334296620
 C    0.3081407841   -2.7905524791    1.9565319823
 C   -0.5259800783   -4.3233097268    0.1742654386
 H   -2.8479195345   -2.5244149731   -4.1348146811
 H   -3.7937149572   -1.8921432679   -2.7765432373
 H   -2.5958268895   -0.8570937351   -3.5670794456
 H   -1.9506151249   -3.4150934404   -2.0007931982
 H   -0.7564858233   -2.3634371926   -2.7713042234
 H   -3.0214818474   -1.0186027554    0.5162548125
 H   -2.8761158136   -2.7969583364    0.1189145298
 H   -0.5062723708   -0.8154206466    0.4921335187
 H    1.7610745248   -1.7191848886   -0.1449190077
 H    2.0829374907   -3.4559581085   -0.0313466951
 H    1.1860476428   -2.8093734844   -1.4128364025
 H   -0.6074034254   -2.9189932725    2.5432709425
 H    1.0234717510   -3.5568584721    2.2735161486
 H    0.7332372840   -1.8128680082    2.2066749413
 H   -0.6530278940   -4.5302154693   -0.8900597789
 H    0.1805438793   -5.0641589328    0.5649969181
 H   -1.4840822607   -4.4930980575    0.6745534767