18

 O    0.2040754747    1.3143637495   -0.2048635002
 C    0.0737379474   -0.0635474750    0.0183618172
 C    0.1787664686   -0.5337099512    1.4898650522
 N   -1.3050027313   -0.5797227675    1.5542038426
 C   -1.4090163517   -0.5890821291    0.0938098817
 C   -2.5197968845    0.1109556632   -0.7337714605
 C   -2.5194178906   -1.0770392994   -1.7450268838
 C   -1.7074847133   -1.8664661792   -0.7026110556
 O   -1.5235397742   -3.0303297695   -0.4785930808
 H   -0.3188741761    1.7740593223    0.4627766081
 H    0.7255044219   -0.5555180702   -0.7045099565
 H    0.6706612156   -1.5094824276    1.5801226970
 H    0.6440823754    0.1726951274    2.1863518370
 H   -1.6970626586   -1.3983672772    2.0099752230
 H   -3.4561461853    0.1900999071   -0.1767610556
 H   -2.2415379098    1.0898886938   -1.1275895050
 H   -3.4790818836   -1.5156020008   -2.0265822017
 H   -1.9438043846   -0.8768629167   -2.6539142890