23

 C   -1.2340636554    0.8610844068    0.3982742848
 C    0.0334774159    0.0931283949    0.0644242156
 O    0.4540904236   -0.6082264024    1.2175739164
 C    1.6231813935   -1.3712986184    1.0179322912
 C    1.9737278712   -2.0791569609    2.3247060424
 C    2.2891307299   -1.0993600502    3.4409523046
 C    1.0395219239   -3.2647199603    2.6749209150
 C    2.2537968307   -4.1457653471    2.3271756061
 O    3.0826162202   -2.9903673686    2.0760776831
 H   -1.0499345360    1.5719826621    1.2087957415
 H   -1.5857711094    1.4154159003   -0.4769518195
 H   -2.0250006660    0.1760849091    0.7168029900
 H   -0.1479466832   -0.6135606919   -0.7631195353
 H    0.8276269725    0.7813852717   -0.2709272143
 H    1.4720645590   -2.1218010903    0.2246855349
 H    2.4684150430   -0.7329446831    0.7091046664
 H    1.4373085282   -0.4341985980    3.6072663889
 H    2.5182654999   -1.6298667308    4.3692626802
 H    3.1579365329   -0.4889471101    3.1721956345
 H    0.7261624693   -3.3005492108    3.7194913313
 H    0.1632561880   -3.3687881520    2.0339033303
 H    2.6526283032   -4.7633981940    3.1406204438
 H    2.1445637550   -4.7725594962    1.4332115381