16

 C    0.0322719174    1.4289582592    0.0086662623
 O   -0.0103454279    0.0126295247    0.0045094485
 C   -1.1997732912   -0.6311574737    0.0119761117
 C   -1.2404146114   -1.9889992102    0.0091400285
 C   -2.4981738793   -2.7248546661    0.0168869392
 O   -2.5706907363   -3.9502983722    0.0141744117
 C   -3.6895463625   -1.8589805733    0.0275404315
 C   -3.5859259275   -0.5167014843    0.0299129506
 N   -2.3558493396    0.1093319891    0.0222937486
 H    1.0894744447    1.6955538254    0.0016303436
 H   -0.4419245465    1.8562633427   -0.8851667572
 H   -0.4285936098    1.8505795256    0.9121082427
 H   -0.3083437470   -2.5384603263    0.0009051123
 H   -4.6623540392   -2.3343856151    0.0335576308
 H   -4.4359552344    0.1547895586    0.0377251032
 H   -2.3180956194    1.1127318259    0.0242683522