9

 O   -0.0180843009    1.4570207660    0.0100884504
 C    0.0031588426    0.0413186742    0.0022959882
 C   -1.3644726968   -0.4611816952    0.0126410903
 C   -2.4863449320   -0.9058518626    0.0209334107
 C   -3.7560591364   -1.4082954750    0.0303325145
 N   -4.8345676573   -1.8393153133    0.0382994638
 H    0.8952875674    1.7616910628    0.0037053248
 H    0.5111252940   -0.3593137975   -0.8902447515
 H    0.5280042493   -0.3688162994    0.8806367388