12

 O    0.0792959201   -0.0649421748   -0.0018170785
 C    0.0042487347    1.1440133892    0.0095049109
 C    1.1943521571    1.9967564443    0.0034506410
 C    1.3765305909    3.3823719021    0.0133788762
 C    2.7807938532    3.5559702555   -0.0010590221
 N    3.4123229785    2.3850506505   -0.0181454738
 N    2.4393488350    1.4697088920   -0.0151327432
 C    0.3691967645    4.3751979586    0.0333162701
 N   -0.4543365361    5.1891525013    0.0496183534
 H   -0.9620602559    1.6818660010    0.0250048808
 H    3.3367200067    4.4805076405    0.0006048269
 H    2.6534066013    0.4831919498   -0.0260573915