17

 C   -0.0235035489    1.3476436589    0.0341736238
 O    0.0030383338   -0.0597048444    0.0108479967
 C    0.6563033947   -0.5675556084   -1.1363244566
 C    0.6227816129   -2.0745274882   -1.0521577084
 N    1.6426911236   -2.6683316931   -0.4226763722
 C    1.5832314803   -3.9968563092   -0.3210535576
 C    0.5271120508   -4.7368177446   -0.8390094385
 C   -0.4714603969   -4.0160363297   -1.4828594133
 N   -0.4338376049   -2.6877149694   -1.5967986044
 H    0.9914367777    1.7760566959    0.0443570653
 H   -0.5615687942    1.7613156056   -0.8336426485
 H   -0.5427847018    1.6472381979    0.9476495773
 H    0.1414801731   -0.2431161424   -2.0527502840
 H    1.7022747244   -0.2285474790   -1.1703982134
 H    2.4124630463   -4.4816155675    0.1898833658
 H    0.4882962629   -5.8159929713   -0.7525499542
 H   -1.3297795241   -4.5165499312   -1.9260845579