16

 C    0.2442077906    1.6330171423    0.2133779959
 C   -0.0998677574    0.1595902628   -0.0600683075
 C    0.5582025316   -0.3665088454   -1.2919897456
 C   -0.0113047416   -0.8366557615   -2.4441299961
 O    1.0135642232   -1.2014115588   -3.2968606914
 C    2.1322951695   -0.9265396066   -2.6027829762
 N    1.9394618248   -0.4352264954   -1.4217718945
 C   -1.3377098777   -0.9982799760   -2.8694552012
 C   -2.4850155036   -1.1291684163   -3.2131549543
 H    1.3262619372    1.7650245311    0.2952064969
 H   -0.1153740587    2.2761515211   -0.5957117230
 H   -0.2167945609    1.9685444707    1.1468959366
 H    0.2199543390   -0.4494683720    0.7944909698
 H   -1.1826022188    0.0317163069   -0.1565664573
 H    3.0701756397   -1.1413613616   -3.0915151222
 H   -3.4955898869   -1.2447757614   -3.5184119700