18

 C   -0.1109530758    1.4501956251   -0.0212175343
 C   -0.0411738042   -0.0401976985   -0.0338571475
 N   -0.1592857604   -0.8108953667   -1.0936195726
 C   -0.0287347038   -2.1120390914   -0.6462478306
 C    0.1773514078   -2.1207431888    0.7075652235
 N    0.1621461258   -0.7920278119    1.0874733597
 C   -0.0978642216   -3.2460566740   -1.5862527175
 C   -1.0362126591   -3.1903340238   -2.7419192527
 N    0.4105608454   -3.0637963651   -2.9619236908
 H    0.8182500763    1.8996899322    0.3476077796
 H   -0.2807797356    1.7999169391   -1.0401441606
 H   -0.9290355090    1.8157141328    0.6100952411
 H    0.3281535947   -2.9174727594    1.4164898852
 H    0.2898490849   -0.4437920887    2.0226844038
 H    0.1345782318   -4.2156763192   -1.1530345835
 H   -1.4817257609   -4.1067495824   -3.1201731020
 H   -1.6506260260   -2.2990020684   -2.8284827414
 H    0.6296541799   -2.0741719609   -3.0707767393