22

 C    1.1164855828    2.6182263015   -0.1610543319
 N    0.9064329905    1.1955157935   -0.3774295432
 C    2.0160349279    0.2483168598   -0.3802791627
 C    3.3624151389    0.6607900968    0.2229732465
 C    3.0941034854    0.8141629898    1.7175990077
 C    2.6657771313   -0.4298576696    2.4604175507
 C    1.6233640313    0.5693529411    2.0124219199
 C    0.8380492473    1.3442685380    3.0466901286
 C    0.9733189330    0.2107124584    0.6981294080
 H    1.8695994298    2.8814118615    0.5942647539
 H    1.4153561608    3.0737868949   -1.1110874116
 H    0.1649134124    3.0704772558    0.1371417288
 H    2.0183399333   -0.4499777563   -1.2135736501
 H    4.1189167564   -0.1052689702    0.0171132492
 H    3.7331347188    1.5940156522   -0.2182168950
 H    3.6387611557    1.5735355091    2.2698581574
 H    2.7327782083   -1.3874732723    1.9518833364
 H    2.8810391753   -0.4736282965    3.5232301034
 H    1.4593864846    1.5773942384    3.9175093969
 H    0.4567026068    2.2888392582    2.6453137813
 H   -0.0223732483    0.7651167118    3.4021805641
 H    0.1619131078   -0.5161271658    0.7059642116