18

 C   -0.0151536800    1.4597762983   -0.0318570837
 C    1.2792746436    0.7137482315    0.0070524842
 C    2.1999904935    0.7901688969    1.1789487729
 C    2.4737772593   -0.2006172212    2.0297750144
 C    1.8836153937   -1.5658203556    1.9620542809
 O    0.9092438381   -1.9275690801    2.9609736984
 C    0.4769546444   -1.7902584271    1.6042973070
 C   -0.4031762618   -0.5954741332    1.3001613899
 N   -0.0010005985   -0.0007548508    0.0242928865
 H   -0.3075078569    1.9918920131    0.8723827378
 H   -0.3685491351    1.9040058105   -0.9584573390
 H    1.8030288366    0.6126463222   -0.9450069959
 H    2.7237610087    1.7380111171    1.2956841690
 H    3.1956433456   -0.0344152165    2.8268806759
 H    2.5978685794   -2.3673060038    1.7635804846
 H    0.2136761919   -2.7281085581    1.1160208382
 H   -1.4533895979   -0.8957841647    1.2136138564
 H   -0.3259165044    0.0997338417    2.1474720524