17

 C    0.0636700790    1.5318564246   -0.0952875661
 C   -0.0840279877    0.0391525622   -0.0535840611
 O    0.2904526095   -0.6419220379   -1.2407821795
 C   -0.5180741352   -1.7966767982   -0.8124648376
 C    0.4138742276   -2.6824078814   -0.0405144711
 C    0.9665222038   -2.0654280428    1.0111247811
 C    0.3397954150   -0.7367809753    1.3070627157
 O   -1.0886382462   -1.0137614466    1.5474069806
 C   -1.3315373475   -0.8175145976    0.1696106540
 H    1.1205698969    1.8075861731   -0.1781071833
 H   -0.4660861845    1.9477735280   -0.9568944752
 H   -0.3383234089    1.9794932465    0.8182029388
 H   -1.0395675949   -2.2523294122   -1.6539515591
 H    0.6494343063   -3.6897594725   -0.3630545924
 H    1.7368729935   -2.4899340647    1.6442761183
 H    0.7785256981   -0.1616376399    2.1230796402
 H   -2.3697739148   -0.5934204253   -0.0812379432