17

 C   -0.0682920802   -1.1826655885    0.2868912108
 C   -0.0006253442    0.0074298855    0.1402185450
 C    0.0775073887    1.4504802034   -0.0339574805
 C    1.5205301363    1.9886213028   -0.1370719256
 C    1.6438160764    3.5365729489   -0.0039946390
 C    2.4365024580    3.2243869637    1.2778269504
 O    2.2366629748    1.8036505814    1.1131777364
 C    2.2345943773    1.4143599317   -1.2721788653
 C    2.8223734971    0.9716200346   -2.2222064883
 H   -0.1219445751   -2.2348851872    0.4175679367
 H   -0.4649407163    1.7530056496   -0.9389316601
 H   -0.4011034343    1.9543728335    0.8140861003
 H    2.1989116030    4.0226731412   -0.8048877766
 H    0.6896983042    4.0455812100    0.1446160886
 H    3.4992000659    3.4905634586    1.2465210616
 H    2.0044316647    3.5891893865    2.2162902887
 H    3.3424020438    0.5634397744   -3.0535975231