20

 C   -0.1927176767    1.4472780723    0.1158291798
 C   -0.0675847534   -0.0510586121   -0.1664031167
 C    0.9018167807   -0.4340287865   -1.3160276377
 C    0.9964680089   -1.9929140927   -1.4620951829
 C    0.2304585167   -2.2880192464   -2.7726454349
 O   -0.5168094336   -1.1137838889   -3.0609123436
 C    0.3188707267   -0.0347848264   -2.7070952700
 C    2.2179507818    0.1670284609   -1.0992039611
 N    3.2549559784    0.6509838278   -0.9325452914
 H    0.7729038085    1.8808504806    0.3924364476
 H   -0.5736092287    2.0001530098   -0.7486114977
 H   -0.8878424671    1.6175785082    0.9430387564
 H    0.2638721151   -0.5653783289    0.7425645491
 H   -1.0431214405   -0.4742042502   -0.4318748593
 H    2.0316988657   -2.3338978005   -1.5115725074
 H    0.5278569106   -2.4724951323   -0.6000370206
 H    0.9335533765   -2.5014233027   -3.5920337872
 H   -0.4708658786   -3.1213064161   -2.6924271857
 H   -0.2837431320    0.8742931605   -2.6792316238
 H    1.1333146411    0.0991873235   -3.4356215929