23

 C   -0.1867914586    1.5315414750   -0.0941180831
 C    0.0356455222    0.0214308905   -0.0606722797
 C    1.2767226704   -0.4421751805   -0.8772097135
 C    2.0777127232   -0.5696832637    0.4660518342
 C    0.7260085914   -0.5475369591    1.2242132810
 C    0.6392314090    0.1951715660    2.5488408487
 C    2.9471607478   -1.8045960160    0.5873670100
 C    4.3823883528   -1.6680907116    0.1103319430
 O    2.5121749487   -2.8537439276    1.0094558440
 H    0.7314145292    2.0865709040    0.1290306771
 H   -0.5262353687    1.8463963008   -1.0869541909
 H   -0.9458052963    1.8425733259    0.6313434463
 H   -0.8979899901   -0.4833112566   -0.3275883296
 H    1.1273781748   -1.4172915825   -1.3482250919
 H    1.6706488565    0.2557746992   -1.6206723136
 H    2.6743535535    0.3317684413    0.6416819979
 H    0.4182295249   -1.5878281514    1.3661722197
 H    0.9638956565    1.2370623177    2.4581508967
 H   -0.3858011261    0.1989154887    2.9362152054
 H    1.2725859782   -0.2868582779    3.3017361536
 H    4.9308986091   -0.9966140351    0.7818057774
 H    4.8703917853   -2.6434219143    0.0955928646
 H    4.4174069962   -1.2143125128   -0.8864781072