17

 C   -0.0049246793    1.4979389674    0.0067291292
 C   -0.0047084322   -0.0019961517   -0.0018182925
 C    0.5934493152   -0.9748902015   -1.0829394618
 C    0.0082686264   -1.9701598934   -0.0131398420
 C    0.6142002231   -0.9870654045    1.0563631344
 C    0.0321664327   -3.3957540892   -0.0214841012
 C    0.0317667760   -4.5987068853   -0.0283299638
 C   -1.1908151582   -0.9772129017    0.0041046555
 O   -2.3799130261   -0.9796215625    0.0159906173
 H    1.0145581004    1.8966399426   -0.0002495183
 H   -0.5287252853    1.8908371782   -0.8704660112
 H   -0.5126891664    1.8807611107    0.8977012487
 H    0.1369124984   -0.9817427377   -2.0742958780
 H    1.6850272855   -0.9757002371   -1.1329130379
 H    1.7065426476   -0.9883089115    1.0851434111
 H    0.1769821886   -1.0052578510    2.0562477447
 H    0.0275389335   -5.6605251816   -0.0343338442