16

 O    0.2320427148    1.3026241298   -0.3362346552
 C    0.0295982250   -0.0664888814   -0.1151318441
 C    0.2192491352   -0.4874450024    1.3884196048
 O    0.6754547345    0.5326457359    2.2469497967
 C   -1.2903991704   -0.7784906429    1.4908112527
 O   -2.0763483502    0.3978558786    1.7526557303
 C   -2.4396766164    0.5292957327    0.3522531059
 C   -1.4554188704   -0.5709603751   -0.0472230425
 H    0.2822550733    1.7037337579    0.5446122800
 H    0.6431902887   -0.6277908421   -0.8271424011
 H    0.8070218669   -1.4089388105    1.4901911155
 H    1.6382088603    0.5240767629    2.2433560447
 H   -1.6218410497   -1.6431004279    2.0730883866
 H   -3.4949481928    0.2750574599    0.1930795936
 H   -2.2313912035    1.5287869877   -0.0403318783
 H   -1.7617697455   -1.3379160531   -0.7560851497