11

 O    0.0553863034    0.2128814602   -0.9157243764
 C    0.0489362622    1.2558751368   -0.2980509908
 N    1.1211990475    1.7868866199    0.3495405776
 C    2.4398147433    1.1665035300    0.2982326205
 C    3.4863467435    2.1197344589   -0.0551533043
 C    4.3432895083    2.9188259306   -0.3200143703
 H   -0.8506188883    1.8923701551   -0.1894560781
 H    1.0300212049    2.6849739642    0.7966538673
 H    2.6811717350    0.6928687489    1.2594815090
 H    2.3673269422    0.3641705628   -0.4429738562
 H    5.1067823278    3.6137911227   -0.5692414983