17

 C   -0.0357580562    1.5875213516   -0.2447536747
 C    0.1127678396    0.0867757000   -0.1319055294
 O    1.3020928797   -0.4469388724   -0.7983581514
 C    1.6544763236   -1.1903043212    0.3673578262
 C    1.9881627592   -0.2703678448    1.5109621264
 C    0.5460784617   -0.5821992423    1.1755562693
 O   -0.3543588668   -1.1860640436    2.0513388340
 C   -0.6224415715   -0.5320251022    3.2120435727
 O   -1.4065264492   -0.9472175678    4.0071754452
 H    0.8207503850    2.1116054736    0.1873274160
 H   -0.1199464716    1.8787441206   -1.2961136934
 H   -0.9458165420    1.9145472642    0.2696542330
 H   -0.7726034165   -0.4276660213   -0.5262793218
 H    2.0110374838   -2.2060990812    0.2531210131
 H    2.3463813379   -0.7811269566    2.4001560744
 H    2.4248290241    0.7063580015    1.3254971397
 H   -0.0338038810    0.3965623119    3.3195374208