25

 C    0.1052810829    1.4745245058   -0.2221039484
 C    0.0165054534   -0.0317067235    0.0705660240
 C    0.7254192941   -0.3214439864    1.4042221484
 C   -1.4448663700   -0.5694994991    0.0537396109
 C   -2.2596549321   -0.0304269712   -1.1324110199
 C   -1.4482120183   -2.1026634998    0.0727110257
 C   -2.7817062899   -2.8875725769    0.0365573497
 C   -2.2080662753   -3.5217871755   -1.2452900929
 O   -1.0381231765   -2.6800554271   -1.1970151044
 H    1.1428390050    1.8155192497   -0.1424156931
 H   -0.2462604318    1.7270111677   -1.2250781601
 H   -0.4861836904    2.0533789079    0.4985343167
 H    0.5561917583   -0.5602543255   -0.7275838044
 H    0.2187743116    0.1883904232    2.2330992543
 H    0.7669227414   -1.3867922933    1.6447003681
 H    1.7572440305    0.0435944320    1.3761608566
 H   -1.9320719332   -0.2469419145    0.9880339970
 H   -2.3815947354    1.0530584719   -1.0745469719
 H   -1.7694609610   -0.2745242272   -2.0790778843
 H   -3.2642606365   -0.4626219853   -1.1588325880
 H   -0.7912962980   -2.4654779978    0.8724484629
 H   -2.9462839537   -3.5668022236    0.8744076296
 H   -3.6771231597   -2.2820608578   -0.1097396517
 H   -1.9484982573   -4.5851062459   -1.1620732664
 H   -2.7833098380   -3.3700560078   -2.1663410183