14

 N    0.1353320967    1.3029653571    0.0049994936
 C    0.0150766426    0.0465793720    0.0016791040
 N   -1.2286751277   -0.6135165705    0.0091746912
 C   -2.5279714907   -0.0601694485    0.0197998856
 N   -2.8164144454    1.1597459310    0.0243501536
 O   -3.4252562078   -1.0978680856    0.0241224453
 C   -2.7548715402   -2.3520547662    0.0160416130
 C   -1.2773538976   -2.0089473829    0.0061491356
 O   -0.3383928361   -2.7615308730   -0.0026481463
 H    1.1257149710    1.5468429666   -0.0019989709
 H    0.8141288071   -0.6988865895   -0.0070704964
 H   -3.8292080183    1.2755978560    0.0318224697
 H   -3.0153736232   -2.9318253993    0.9075230788
 H   -3.0283302006   -2.9272819573   -0.8745127768