23

 C   -0.0665485477    1.5654515203    0.0188401446
 C    0.0405013070    0.0352668243    0.0139948792
 C    0.6436102544   -0.4963477272   -1.2971277095
 C    0.8227098540   -2.0160375310   -1.2533933976
 O    1.2784107651   -2.5431515873   -2.4942756531
 C    1.8584966147   -2.4221060993   -0.2031631830
 C    1.6694606756   -1.7155074386    1.1386329913
 C    2.2872758437   -0.3537166929    1.3642794601
 C    0.7909740238   -0.4835075867    1.2347026492
 H    0.9253038482    2.0266172621   -0.0380943659
 H   -0.6550984255    1.9240212590   -0.8328088829
 H   -0.5479098560    1.9252727023    0.9344092885
 H   -0.9806153840   -0.3699352555    0.0787139060
 H   -0.0173782735   -0.2252808957   -2.1316003913
 H    1.6136885048   -0.0266728404   -1.5066516989
 H   -0.1486398016   -2.4674095792   -0.9854178141
 H    0.6397186816   -2.2993898253   -3.1718539479
 H    1.8144620218   -3.5066171682   -0.0660111544
 H    2.8487999548   -2.2057175185   -0.6218921822
 H    1.6559476109   -2.3739566513    2.0014171098
 H    2.7006885169   -0.1226401226    2.3401065467
 H    2.8433595860    0.0797662106    0.5382193623
 H    0.2357962550   -0.3688922988    2.1625082132