18

 C   -0.1218077179    1.5128371833    0.2021412868
 C    0.0895405235    0.0282543072   -0.1044903346
 O    1.0355364632   -0.5560427009    0.7761114195
 C   -1.2500435574   -0.7023866347   -0.1548934842
 C   -1.5645219240   -2.1188470300    0.0861777990
 C   -0.7596949582   -2.8032937788    1.1916624537
 C   -1.1707600496   -1.6044028816    2.0530302758
 O   -0.9732715126   -1.2373239702    3.1720296605
 N   -2.0642193121   -1.0222317839    1.0612543785
 H    0.8398184025    2.0325510012    0.2056003323
 H   -0.7690573086    1.9849090733   -0.5428952576
 H   -0.5958807598    1.6362269085    1.1824231634
 H    0.5293122159   -0.0729225422   -1.1059629515
 H    0.8858334546   -0.2113904688    1.6638852870
 H   -1.9017175105   -0.2452499378   -0.9001991514
 H   -2.2912236212   -2.6385645112   -0.5284237850
 H   -1.2451494983   -3.7189835898    1.5417504476
 H    0.3052559302   -2.9715385235    1.0467235802