16

 O    0.1007174848    1.3388550784   -0.1687816571
 C   -0.0457888000   -0.0240309941    0.1170305879
 C   -1.5050815687   -0.4291618660   -0.0755727335
 O   -2.4001309373    0.3577885342   -0.2056421835
 C   -1.7240829804   -1.9445532249   -0.0935202419
 O   -3.0889992445   -2.2228181063    0.0666881388
 C   -3.3688021967   -3.5979220555   -0.0206607282
 C   -4.8055964894   -3.8133359215    0.1729453800
 N   -5.9298810802   -4.0268784641    0.3228214038
 H    1.0050661266    1.5942086857    0.0350231897
 H    0.5837805605   -0.6687323886   -0.5224658493
 H    0.2169662598   -0.2733857629    1.1611255765
 H   -1.3436197409   -2.3292639737   -1.0574464217
 H   -1.1160290672   -2.4204681852    0.6961349144
 H   -3.0809234857   -4.0085284014   -1.0025199990
 H   -2.8236866806   -4.1745855939    0.7449219232