19

 O    0.1590767898   -0.1494201424    0.3905281694
 C    0.1227268323    1.0638906924    0.3756323287
 N    1.1280718822    1.8528542814   -0.0683696842
 C    2.4971757404    1.4923828615   -0.4399674594
 C    2.8371170695    3.0098103817   -0.4687773449
 C    1.3800719515    3.3008732931    0.0183238484
 C    0.5157972767    4.1660357535   -0.8614173703
 C   -0.6732339353    4.8573197348   -0.3014524878
 N    0.5245747830    5.6258435160   -0.6789489595
 H   -0.7510844453    1.6561884824    0.7168777711
 H    3.0113666688    0.9080750370    0.3298438015
 H    2.5729270559    0.9600054404   -1.3924088927
 H    3.6242206259    3.3264356531    0.2153095958
 H    3.0464100513    3.4049524726   -1.4639037616
 H    1.3368333095    3.6784735460    1.0509169522
 H    0.4907640511    3.8554861989   -1.9045275802
 H   -1.5443741651    5.0302397604   -0.9261490644
 H   -0.8925994602    4.7180178957    0.7545693175
 H    1.0557997380    5.8688281015    0.1552160605