15

 C    0.0120772498    1.5161340323   -0.0765516401
 C   -0.0390731163    0.0267864602    0.0005230485
 N   -0.0891453353   -0.7401770420   -1.0550409120
 O   -0.1306777728   -2.0270989210   -0.5891845730
 N   -0.1051354405   -2.0611155556    0.7737752154
 C   -0.0521648819   -0.8149934142    1.1609518119
 C    0.0296066977   -0.4184658622    2.6027320391
 C    1.4599626666   -0.0021100809    2.9408446216
 O    1.7945873047    1.1308782398    3.1623855561
 H    0.8405928109    1.9091389463    0.5198997217
 H    0.1312592453    1.8358113079   -1.1127311562
 H   -0.9097796082    1.9568497424    0.3186200634
 H   -0.6334287454    0.4234592313    2.8178779491
 H   -0.2495079873   -1.2763947050    3.2223366846
 H    2.1911788427   -0.8392671893    2.9393511399