21

 C   -0.1197564152    1.5176120794   -0.0396191777
 C   -0.0669764233   -0.0015421681   -0.0090869588
 C    1.1632051151   -0.6326249013   -0.6988998059
 O    1.9535699626   -0.3666837247    0.4957586358
 C    0.6855514610   -0.6351962225    1.2035608524
 C    0.6225413639   -0.1140482041    2.6111922001
 C    0.5411876216   -2.1531214471    0.9490036020
 C    0.9174773151   -2.1484875302   -0.5695507046
 O   -0.1158919031   -2.5448863521   -1.4534675581
 H    0.8608905649    1.9468049058    0.1822667603
 H   -0.4338701110    1.8729627967   -1.0267090041
 H   -0.8380917722    1.9040851877    0.6917491005
 H   -1.0326591195   -0.4474605583   -0.2614329653
 H    1.5966850887   -0.2531520916   -1.6243971374
 H    0.7579827625    0.9703656872    2.6414319597
 H   -0.3458886618   -0.3553474321    3.0620991866
 H    1.4055965462   -0.5744412253    3.2226547404
 H    1.2399779187   -2.7258339994    1.5639997278
 H   -0.4744768929   -2.5264773663    1.1105418460
 H    1.8410225586   -2.7073058093   -0.7645784188
 H   -0.2416683899   -3.4939872543   -1.3636424910