25

 C    0.0478292144    1.6017931857    0.1462597037
 C    0.0002247153    0.0758366418    0.0262220743
 C   -1.4203251172   -0.4431758247   -0.2226672026
 C   -2.0608205423    0.0280345687   -1.5338883747
 C   -3.4043528276   -0.6368974747   -1.8024555659
 O   -3.9179891169   -0.1156297284   -3.0198502370
 C    1.1110097170   -0.4703102233   -0.9327898577
 C    2.0058124952   -0.7689152093    0.2993763651
 C    0.7583670492   -0.6126597590    1.2091279720
 H    1.0600285940    1.9480286263    0.3808846534
 H   -0.2573414552    2.0911522250   -0.7841893153
 H   -0.6154315847    1.9527752735    0.9458402699
 H   -1.3895755303   -1.5417027237   -0.2174117449
 H   -2.0601019081   -0.1537082866    0.6238165791
 H   -2.2158747039    1.1123201860   -1.5251279652
 H   -1.3947560621   -0.1863691194   -2.3788651357
 H   -3.2735286585   -1.7302533013   -1.8614618655
 H   -4.0920926266   -0.4389278612   -0.9632899442
 H   -4.7676259827   -0.5322121654   -3.1902263443
 H    0.7943680666   -1.3851474129   -1.4434049304
 H    1.5028998651    0.2227545451   -1.6825270301
 H    2.5163267375   -1.7344306049    0.3194784237
 H    2.7515648264    0.0112665775    0.4732560841
 H    0.8731723364   -0.0285575922    2.1269273745
 H    0.3138512689   -1.5783322628    1.4693829037