13

 N    0.0127719997    1.2584004185    0.0091500429
 N    1.0544484218    2.0813114506    0.0033948471
 C    2.2559057197    1.5140884543   -0.0112438555
 C    2.3933652551    0.1262794380   -0.0199018327
 N    3.4560373375   -0.6682804272   -0.0343991459
 C    2.9254521275   -1.9382980259   -0.0359558015
 C    1.5368942865   -1.9977825593   -0.0228136546
 C    1.1420702358   -0.6450333042   -0.0118409066
 N   -0.0451709844   -0.0588635032    0.0027619304
 H   -0.8847508190    1.7222060493    0.0202951942
 H    3.0989407473    2.1961388806   -0.0158191993
 H    3.5983347578   -2.7877348977   -0.0469630107
 H    0.9062861348   -2.8721528139   -0.0213169578