19

 C   -0.0457245130    1.5195041469   -0.0513925488
 C    0.0018279230    0.0346849725    0.0914801680
 O   -0.6395332774   -0.7529560986   -0.9279697468
 C   -1.1306193008   -1.6852915389    0.0739902192
 C   -0.3782217107   -0.9612811390    1.1813142567
 C    1.0565714760   -0.7902797642    0.7481563517
 C    2.0577034156   -1.7680740384    0.1441385511
 O    3.1110676614   -1.2206432773    0.9740940511
 C    2.2093299658   -0.2984154666    1.6197848333
 H    0.4940706107    1.8336767689   -0.9520463257
 H   -1.0782096347    1.8719526962   -0.1340509959
 H    0.4209550492    2.0068581350    0.8093365215
 H   -2.2204662163   -1.6143158477    0.1609417025
 H   -0.8453090690   -2.7212539915   -0.1452519526
 H   -0.7099561607   -0.8129287110    2.2015248379
 H    1.8825520511   -2.8309949609    0.3570626315
 H    2.2624132157   -1.6414683213   -0.9253216976
 H    2.5186164265    0.7461428987    1.4804323874
 H    2.1144903378   -0.5013809327    2.6954166055