19

 C    0.0684613599    1.2297600784    0.3257403063
 O    0.0672802398   -0.1718056161    0.0831721602
 C    0.6147520889   -0.5837913636   -1.1706372298
 C    1.3888676725   -1.8753833988   -0.8927837941
 O    2.3527494099   -1.6830981229    0.1198959988
 C   -0.5381799109   -0.8226299252   -2.1786060156
 O   -1.5502802329   -1.6075027664   -1.5716625395
 C   -1.0683088667    0.4319021211   -2.7332688309
 C   -1.5039877821    1.4506324826   -3.2007726155
 H    1.0892246715    1.6332924627    0.2869756826
 H   -0.5560432751    1.7678689001   -0.3945791557
 H   -0.3331817858    1.3738116215    1.3317940015
 H    1.3025711428    0.1817305388   -1.5506649479
 H    0.6724240916   -2.6695217116   -0.6372297319
 H    1.9258038512   -2.1811341788   -1.7965726349
 H    1.8691663396   -1.3053707032    0.8643150399
 H   -0.1460633633   -1.4231361916   -3.0097516367
 H   -1.6832111513   -1.2188300523   -0.6957184653
 H   -1.8940932694    2.3453892153   -3.6199290017