20

 C   -0.0438643546    1.4461477443    0.0994566625
 N    1.2816274918    0.8157647635   -0.0807369042
 C    1.6344171778    0.2727261957    1.2816941000
 C    0.4206608514   -0.6970779007    1.2869925132
 C    0.7633840752   -2.1787898784    1.0575055519
 C   -0.1932526045   -2.7977162374    0.0341537747
 O   -0.0893060399   -2.1338291532   -1.2151889133
 C   -0.5777876095   -0.8031391335   -1.1627517806
 C    0.0065837234   -0.0192954647   -0.0235941935
 H   -0.2855107957    1.9112242876    1.0541405060
 H   -0.3603307162    2.0145669238   -0.7709605554
 H    2.6018667569   -0.2331070167    1.2503353693
 H    1.6594900477    1.0431967326    2.0597411170
 H   -0.2933958487   -0.5923339838    2.1114522497
 H    1.7766733794   -2.2707089735    0.6506753838
 H    0.7354318267   -2.7390942087    1.9984915213
 H    0.0611467915   -3.8443556291   -0.1557815394
 H   -1.2342406470   -2.7645320457    0.4017279800
 H   -0.3296194933   -0.3354837290   -2.1204506394
 H   -1.6786578624   -0.8154267831   -1.0611847236