15

 C   -0.0550667799    1.6364080314   -0.0664336371
 C    0.0276024814    0.1202464615   -0.0475865965
 O   -1.2450096796   -0.4726717095    0.1575126014
 C    0.7326251026   -0.6342411263   -1.1799659485
 C    2.1741256807   -0.3785869694   -1.1946927592
 N    1.6676511395   -1.3800388784   -0.2043214950
 C    1.0688102306   -0.5979653362    0.8609075565
 O    1.2316536909   -0.6717313281    2.0390220528
 H    0.9017928198    2.1000836867   -0.3212372603
 H   -0.8074524166    1.9557786309   -0.7935568648
 H   -0.3506615311    2.0051809510    0.9217538299
 H   -1.4980990786   -0.3129551971    1.0742914415
 H    0.2049854470   -1.1917453168   -1.9429769319
 H    2.7715401757   -0.8455872592   -1.9704274470
 H    2.5769447076    0.5608395396   -0.8255363417