22

 C   -0.1239036463    1.4821155242    0.0200837094
 C   -0.0045187247   -0.0296824667    0.0073489279
 O   -1.3348266769   -0.5729717323    0.0599513267
 C   -1.4293247030   -1.9066870706    0.0525430006
 N   -0.4419471717   -2.7090268545    0.0046320396
 C   -0.9817937989   -4.0747535831   -0.0256898180
 C   -2.4799180078   -3.9737370218    0.3651651853
 C   -2.8277131010   -2.4990370099    0.0689098838
 C   -3.7958989961   -1.8319487854    1.0478226327
 H    0.8715846107    1.9343388700   -0.0188642410
 H   -0.6971105901    1.8357868610   -0.8417692091
 H   -0.6237607038    1.8270660815    0.9298062319
 H    0.4924795554   -0.3972900808   -0.8967651908
 H    0.5655699356   -0.4058997124    0.8635715874
 H   -0.8517623926   -4.4882638239   -1.0352400674
 H   -0.4127579269   -4.7201943867    0.6513639600
 H   -3.1147686764   -4.6835895830   -0.1705303768
 H   -2.6012758562   -4.1670603793    1.4370182324
 H   -3.2367916048   -2.4001340623   -0.9471823570
 H   -3.4227513506   -1.9038106196    2.0751286387
 H   -3.9263157590   -0.7730145190    0.8094419478
 H   -4.7773076049   -2.3149884053    1.0117362559