19

 C   -0.0428408194    0.1509318322    1.0705468781
 N   -0.8528980107   -0.9317630309    0.5410255906
 C   -1.1662613945   -0.8846826375   -0.6832086367
 O   -1.9252521911   -1.7753810358   -1.3275435031
 C   -2.6260360732   -2.7913554245   -0.5779840756
 C   -1.7831077859   -4.0177620493   -0.2423608510
 N   -0.9947870501   -3.8435822562    0.9625737703
 C   -0.7110913716   -4.8799516843    1.7854962697
 O   -1.0316927163   -6.0369228286    1.5927007074
 H    0.8867870428   -0.2513912071    1.4880290148
 H    0.2160144796    0.9124001062    0.3198624705
 H   -0.5769217875    0.6440916481    1.8900118025
 H   -0.8498965247   -0.0981785981   -1.3775283471
 H   -3.0462115988   -2.3453493318    0.3288193583
 H   -3.4365183429   -3.0845282341   -1.2484417287
 H   -2.4447379741   -4.8749118688   -0.0813893242
 H   -1.1543167470   -4.2617595428   -1.1099314215
 H   -0.7378631659   -2.8915284160    1.2015814535
 H   -0.1425852587   -4.5528070006    2.6790687822