21

 C   -0.3264516099    1.3433749290    0.0102838914
 O   -0.2519761551   -0.0504844632   -0.1702395894
 C    0.8453628162   -0.4372211950   -0.9708271950
 C    0.8378913126   -1.9393207535   -1.0627723012
 O    0.0545736038   -2.5815513232   -2.0885898078
 C    1.4812391443   -2.7285627568   -2.1230052828
 C    2.1577074641   -2.1625797143   -3.3722747100
 C    2.4078217386   -3.2755168570   -4.3962677659
 O    1.3864626268   -1.1174136396   -3.9384869625
 H    0.5695351892    1.7387120125    0.5159064224
 H   -0.4396492676    1.8749879787   -0.9475576287
 H   -1.2012739580    1.5458427021    0.6327272472
 H    0.8046450118    0.0177620672   -1.9675145589
 H    1.7946248523   -0.1210212920   -0.4999319085
 H    0.7255187232   -2.4195678287   -0.0895295081
 H    1.8308761140   -3.7246703901   -1.8452921045
 H    3.1205711030   -1.7200309136   -3.0847483682
 H    1.4669711506   -3.7664074307   -4.6679315820
 H    2.8488419267   -2.8510540355   -5.3012860305
 H    3.0895805316   -4.0354625221   -3.9991318134
 H    0.4632896120   -1.3734767041   -3.7995917833