16

 C   -0.1824084310    1.4056931156    0.1768021335
 C    0.0583054374   -0.0664028588   -0.0506209451
 O    1.1293732856   -0.5888666465   -0.2269873139
 O   -1.1080740623   -0.7493772852   -0.0278989385
 C   -0.9974868979   -2.1701722273   -0.2170131282
 C   -2.3874788838   -2.7337712274   -0.2399769484
 C   -2.6453177621   -4.1159087864    0.1809189366
 O   -2.9912973293   -3.0164408934    1.0220571828
 H    0.7632823930    1.9422956101    0.1118369644
 H   -0.8865590533    1.7927503858   -0.5647782566
 H   -0.6311554166    1.5607843386    1.1622600882
 H   -0.4742289826   -2.3711745922   -1.1582730663
 H   -0.4141088378   -2.6078809813    0.5985408621
 H   -3.0596027387   -2.2769864676   -0.9669922654
 H   -3.4813071409   -4.6613903179   -0.2535025604
 H   -1.8218064096   -4.7347357259    0.5354741353