15

 C   -0.0091637263    1.4876503458    0.1301361881
 O    1.2409628671    2.0387693968   -0.3391844812
 C    2.2501893640    1.2398633808   -0.7791499653
 N    2.2987730774   -0.0266618152   -0.8604386861
 C    1.1340955009   -0.6781185435   -0.4296763601
 C    0.0369825233    0.0025871659    0.0393306234
 N   -0.9202514118   -0.9143302981    0.3746855565
 C   -0.4386727587   -2.1829621498    0.1215411814
 C    0.8369812315   -2.0695528720   -0.3797056705
 H   -0.1548296135    1.8531162826    1.1583521731
 H   -0.8067965893    1.9332756678   -0.4840473380
 H    3.0881917405    1.8616198774   -1.0815781094
 H   -1.8314981321   -0.7097269147    0.7467770390
 H   -1.0466081524   -3.0502591749    0.3206685494
 H    1.4861126193   -2.8778825290   -0.6770709302