19

 O    1.0511751158    0.0571653614    0.4860513286
 C    0.6375685982    1.1361408395    0.1836536764
 O    1.3448873758    2.2652423367    0.3580504816
 C    0.7463709384    3.5253012712   -0.0175638283
 C    0.5683607448    4.4143160969    1.2324292969
 C    1.8240197989    5.2711002198    1.3095274967
 C    3.1588993527    4.5758355034    1.1934072944
 C    2.5283927501    5.1966238338   -0.0294969954
 C    1.7138863745    4.2927885532   -0.9437667548
 H   -0.3571150353    1.3197135503   -0.2694850616
 H   -0.2091782638    3.3108799234   -0.5082998456
 H   -0.3094336345    5.0566031842    1.0942088791
 H    0.3901506525    3.7996722003    2.1201261895
 H    1.7716304681    6.2010793592    1.8641132409
 H    4.0151864569    5.0907314215    1.6153028464
 H    3.1993869600    3.4958698794    1.2739383398
 H    2.9965868077    6.0714848210   -0.4660400996
 H    2.3137367884    3.5940204921   -1.5345275379
 H    1.1318752007    4.9033840426   -1.6439848570