20

 O   -1.5971734555    2.2435256866    0.7712017036
 C   -0.5238351884    1.9408255729    0.3183491603
 C    0.6699869596    2.8609139588    0.2175037545
 C    1.1504710480    3.0079687009   -1.2412347021
 C    2.4450518401    3.7867371155   -1.3338364900
 C    2.8777142396    4.6404238068   -2.4588185438
 C    1.7239438478    5.3938676938   -3.1176143620
 C    1.3868592589    5.9240198585   -1.7025395614
 N    2.5813788468    5.2398869921   -1.0830206215
 H   -0.3422628934    0.9146610520   -0.0831889375
 H    0.4124569702    3.8293363916    0.6540250451
 H    1.4816054567    2.4232451089    0.8164725664
 H    1.3227510715    2.0125017680   -1.6714967081
 H    0.3585000504    3.4647847576   -1.8411195254
 H    3.2699024572    3.2720790752   -0.8406789201
 H    3.8899353192    4.5967127093   -2.8503671476
 H    2.0659750580    6.1836019632   -3.7884263897
 H    0.9755268588    4.7933249862   -3.6437973802
 H    1.5056262721    7.0041476832   -1.6021744999
 H    0.4241108724    5.6403064091   -1.2664289406