14

 O    0.2390387821    0.2151819716   -0.6063837243
 C    0.2461431576    1.3693500356   -0.2703216750
 N    1.2833211105    1.9814098732    0.4287013249
 C    2.6943117632    1.9285571487    0.1004555813
 C    3.1603303668    1.3448506139   -1.1235053770
 C    3.5936221707    0.8541623328   -2.1304286633
 C    1.9098550493    3.2489393814    0.0931052889
 C    1.6089914530    3.9185872880   -1.1399366585
 C    1.3428891888    4.5077233339   -2.1530094269
 H   -0.6074617477    2.0593375462   -0.4050962432
 H    3.3393224540    1.7682564902    0.9622701456
 H    3.9588066450    0.4114640840   -3.0242861446
 H    2.0700905878    3.9044358563    0.9471066015
 H    1.1140277087    5.0180343041   -3.0562522694