16

 O    0.1630321448    0.0465046834    0.3862650602
 C    0.0168871042    1.1980033544    0.0442671550
 C   -1.2363402003    2.0076938452   -0.0212188141
 C   -0.9443304667    3.2841524527   -0.2887028577
 C    0.5297525481    3.4417618331   -0.5376527505
 C    1.4363999718    4.3326715628    0.3638209661
 C    2.6089902506    3.4011971489    0.6310551007
 C    2.3093990456    2.1536723910    0.2649907025
 N    1.0384384366    2.0768397739   -0.3412871076
 H   -2.2063007805    1.5715835662    0.1734001080
 H   -1.6445567486    4.1040599834   -0.3907089674
 H    0.6868819702    3.7378667709   -1.5855491385
 H    1.7202241924    5.2556128530   -0.1497498726
 H    0.9428689461    4.6225971024    1.3002615052
 H    3.5349365922    3.7141170826    1.0925768059
 H    2.8831851936    1.2458460262    0.3821252148