20

 C   -0.2802358222    1.5397860933    0.0986582724
 C   -0.0200174139    0.0247886912   -0.0402441292
 C   -1.3553036600   -0.7311424836   -0.0801875733
 C    0.8912516041   -0.3121452506   -1.2585884990
 C    2.2899900426   -0.5438392490   -0.7019208748
 N    2.7721332596    0.5812921696    0.1048386947
 C    2.2290109160   -0.6381517698    0.7829175223
 C    0.7961573197   -0.4510242889    1.1888518858
 O    0.3349712368   -0.6959827366    2.2759485764
 H    0.6565169047    2.1000003379    0.1147552773
 H   -0.8851147261    1.8931110079   -0.7439320318
 H   -0.8294322205    1.7472130802    1.0222588054
 H   -1.9665737906   -0.3849738416   -0.9201646503
 H   -1.2037910693   -1.8098658056   -0.1915644829
 H   -1.9087110665   -0.5663786839    0.8480001504
 H    0.5458041635   -1.2301141019   -1.7465996379
 H    0.8866119439    0.4826930752   -2.0111434872
 H    3.0062711490   -1.1317419014   -1.2670691525
 H    3.7868706292    0.5399203169    0.1747906730
 H    2.8851202799   -1.2504851396    1.3897610613