18

 C   -0.0381722786    1.3861170295    0.0739960663
 O   -0.1411702725   -0.0129734504   -0.1405890895
 C    0.6413213610   -0.5738128807   -1.2114178194
 C    0.5810242759   -2.0905410223   -0.9871173731
 C   -0.0284906236   -0.1882755291   -2.5568406274
 O   -1.3966237916   -0.5258719990   -2.5478811848
 C    2.0306674288   -0.1038002598   -1.1960634092
 C    3.1697554824    0.2803449571   -1.2206560131
 H    0.9939779005    1.6866986965    0.2865865890
 H   -0.4057763368    1.9730134447   -0.7789704920
 H   -0.6635810583    1.6045799322    0.9426623895
 H   -0.4531557421   -2.4266767166   -1.0835405704
 H    1.1929416655   -2.6072023491   -1.7303512955
 H    0.9514784813   -2.3332890548    0.0105197698
 H    0.1275470198    0.8843944128   -2.7459561974
 H    0.4477951355   -0.7387335613   -3.3734364659
 H   -1.7259386064   -0.2623880444   -1.6785564321
 H    4.1791871592    0.6113463647   -1.2361709949