15

 C   -0.0123609299    1.5008674511    0.0139119186
 C    0.0054890837   -0.0004232008    0.0128392446
 N    0.1145596385   -0.6078901957   -1.1795467110
 C    0.1305874488   -1.9338044145   -1.1818236299
 C    0.0395190406   -2.6986096807   -0.0084600760
 C   -0.0703549652   -1.9565638670    1.1743673174
 N   -0.0878493034   -0.6273052451    1.1933426632
 C    0.0575119382   -4.1174315997   -0.0210046796
 C    0.0728705158   -5.3213890364   -0.0326692394
 H    0.9048970540    1.8895244045   -0.4400018366
 H   -0.8455137050    1.8688970444   -0.5933747207
 H   -0.1058238199    1.8794694838    1.0316155028
 H    0.2188796231   -2.4272060335   -2.1469180862
 H   -0.1461117002   -2.4652226450    2.1323950732
 H    0.0863827011   -6.3833095154   -0.0425634205