18

 C   -0.0237901402    1.4385660032    0.1221554705
 C   -0.1699731763   -0.0464451454   -0.1902324093
 N    0.8742991231   -0.4734016680   -1.1232611038
 C    0.9860301099   -1.8095417024   -1.4520870287
 C    1.4460134054   -2.4501087441   -2.5700658845
 C    1.4022807594   -3.8500454761   -2.2462415751
 O    1.7610662267   -4.8927308442   -3.0436888950
 C    0.9192822900   -3.9635463664   -0.9836947061
 O    0.6598483308   -2.6930688023   -0.4891362003
 H    0.9599431508    1.6505165001    0.5505075541
 H   -0.1394869794    2.0486247984   -0.7815687060
 H   -0.7909092517    1.7559420003    0.8339371248
 H   -0.0586186649   -0.6367748105    0.7225376191
 H   -1.1789075112   -0.2548375799   -0.5819228825
 H    0.9449980444    0.1197931288   -1.9385473376
 H    1.7691334074   -1.9966709815   -3.4943031535
 H    2.0893658537   -4.5413354488   -3.8756793738
 H    0.6946214621   -4.7869732914   -0.3320333923