12

 O   -0.0133526290   -0.0382543474    0.0034534656
 C   -0.0444194384    1.1647923384    0.0102250361
 C   -1.2727920738    2.0751712246    0.0319094138
 C   -0.7199662436    3.5103111514    0.0316811342
 C    0.8017117845    3.3613461786    0.0101386507
 O    1.6318383138    4.2326524970    0.0032856289
 N    1.0708220504    1.9964363342   -0.0006931442
 H   -1.8926474257    1.8462376076   -0.8386770382
 H   -1.8683127279    1.8371917083    0.9169416151
 H   -1.0259759047    4.0955814874   -0.8391667633
 H   -1.0020161215    4.0866561015    0.9164569953
 H    2.0135741360    1.6332813984   -0.0155485641