15

 C   -0.0423278229    1.4947632325    0.1692228242
 C    0.0020398775    0.0044683515   -0.0062359846
 C    0.2941441517   -0.5889886829   -1.2436256806
 N    0.3369870319   -1.9058225111   -1.4141560445
 C    0.0845122278   -2.6536701381   -0.3334200427
 C    0.1298629637   -4.1287132075   -0.5132047385
 O   -0.0766286441   -4.9236935150    0.3723072424
 C   -0.2075160446   -2.0716806388    0.9037354005
 N   -0.2497614643   -0.7531545330    1.0717227214
 H    0.6819536959    1.8079807932    0.9278242951
 H    0.1761049415    2.0186267623   -0.7640183980
 H   -1.0300644790    1.8044309017    0.5251039363
 H    0.4977006080    0.0284976801   -2.1150958649
 H    0.3745263112   -4.4359759962   -1.5512806724
 H   -0.4086550843   -2.7016253486    1.7650244862