13

 O   -0.0945596910    0.0358064621   -0.0849749237
 C    0.0422924013    1.2286712138   -0.0359328190
 C    1.3678340005    1.9136138472   -0.0083943371
 N    2.5214051743    1.3675551414    0.0209676302
 C    3.4750529204    2.4418107631    0.0149268397
 C    3.4383165911    3.3515447670   -1.2004561910
 C    2.6402251413    3.7256812292    0.0070882545
 O    1.2959114827    3.2786643614    0.0281293600
 H   -0.8133997235    1.9333325936    0.0000512553
 H    4.3988725133    2.2844623146    0.5568362714
 H    4.3293485515    3.9426038373   -1.3795084133
 H    2.9235603489    3.0015412057   -2.0888632386
 H    2.7991817693    4.6297790636    0.5793776815