16

 N   -0.1126483227    1.2961440739   -0.2524313610
 C   -0.0935004245    0.0376582746   -0.1321653764
 O    1.0460168136   -0.7376484772   -0.0633379184
 C    0.6891876272   -2.1221483953    0.0730495326
 C    1.3104529820   -2.6991509141    1.3573051336
 C    2.8258251672   -2.6181161752    1.3534290172
 O    3.5497209286   -3.5646976063    1.5234948666
 C   -0.8152446050   -2.1176316958    0.0692551657
 C   -1.2500478431   -0.8635253812   -0.0425724883
 H    0.8357598704    1.6718131327   -0.2930073777
 H    1.0898611830   -2.6610305490   -0.7976119415
 H    0.9323279991   -2.1177442823    2.2082203972
 H    1.0175440009   -3.7451599670    1.4854021806
 H    3.2329068509   -1.5996357630    1.1795021490
 H   -1.4031580243   -3.0218182035    0.1531956250
 H   -2.2661784934   -0.4998913012   -0.0730835741