19

 O   -0.1634110925    1.4433435701   -0.0826895966
 C    0.0005359229    0.0505479020    0.0311455445
 C   -0.0155522739   -0.6184750232    1.4307422843
 C   -1.5308627031   -0.1944661329    1.5267776381
 C   -1.3274979025   -0.7573607179    0.0838527239
 C   -1.9780588829   -1.3499003729   -1.1342136449
 O   -0.9924520971   -2.3095329003   -1.5742543425
 C   -0.0593096726   -2.6721298981   -0.5207182524
 C   -0.5352686578   -1.9185906617    0.7187677810
 H    0.7031193350    1.8548594329   -0.0133624386
 H    0.7601615766   -0.3100704952   -0.6679690670
 H    0.7330041341   -0.5447173505    2.2218743570
 H   -2.1559479928   -0.7929754627    2.1937758184
 H   -1.7279375576    0.8717368184    1.6169079236
 H   -2.9290216747   -1.8483592707   -0.8954584646
 H   -2.1420201976   -0.6483199011   -1.9577425044
 H   -0.1081191136   -3.7567588042   -0.3733857752
 H    0.9533865007   -2.4258933711   -0.8589016255
 H   -1.1324568206   -2.5543264608    1.3774694010