14

 O   -0.1383821920    1.4082063434   -0.0194747044
 C   -0.1249245864    0.0148158266    0.0102027954
 C   -0.4671885608   -0.8061224175    1.2592170342
 C   -1.5566952292   -0.1111574008    2.0227882989
 O   -1.7069776149    0.1495794762    3.1822958514
 C   -2.4853910773   -0.0119199901    0.7896242037
 C   -1.3895620722   -0.7469823947   -0.0051938335
 O   -1.6327534847   -1.7980557292   -0.8619600446
 H    0.5808933037    1.7324670859    0.5335182099
 H    0.6746053529   -0.4555439730   -0.5652055064
 H    0.2096087828   -1.5692224791    1.6244627483
 H   -3.3683327761   -0.6408714954    0.9346555626
 H   -2.7768679680    0.9850131968    0.4539655680
 H   -1.7475107079   -1.4473796891   -1.7525807236