18

 N    0.2477091982    1.5090039459   -0.0645234725
 C    0.0311671277    0.0965574362    0.0193745068
 C    0.0665675126   -0.6372547792    1.3847658477
 C   -1.0200560777    0.0711717128    2.2115364866
 C   -2.1536556400    0.0917418281    1.1354407800
 C   -1.3860929616   -0.6290393385    0.0052003414
 N   -0.7546053496   -1.7591485786    0.7855856351
 C   -2.0784796960   -0.9276251698   -1.2253823645
 N   -2.6003772387   -1.1370420708   -2.2364434476
 H    0.2115595385    1.8390039171   -1.0224115232
 H   -0.4219144067    2.0440133595    0.4757889206
 H    0.6850661917   -0.4079126294   -0.6973444234
 H    1.0006524095   -0.9005411002    1.8788747629
 H   -1.2949570208   -0.5165909177    3.0881387528
 H   -0.7140928915    1.0671446302    2.5418708063
 H   -3.0352506899   -0.4759089094    1.4336019929
 H   -2.4677963984    1.0962005263    0.8405138775
 H   -0.1540946374   -2.2779242826    0.1420129706