14

 N   -0.1861021914    1.4169391003   -0.0009723292
 C   -0.0383230424    0.0080416563   -0.0162092984
 C   -1.1102034464   -0.8508244083   -0.0955715600
 O   -2.4313613197   -0.6202089968   -0.1712945887
 N   -0.5995002812   -2.1114596958   -0.0863641945
 C    0.7799677654   -1.9811189096   -0.0009694214
 N    1.1288118403   -0.7070084772    0.0419085867
 C    1.6269683370   -3.1070004095    0.0308047280
 C    2.3210435623   -4.0916421074    0.0557796723
 H    0.3112599473    1.8428900612   -0.7784976139
 H    0.2132424327    1.8150587722    0.8448258615
 H   -2.5227238589    0.3441736929   -0.1603132778
 H   -1.1215236056   -2.9707970141   -0.1325706951
 H    2.9477641905   -4.9482936744    0.0788863805