17

 C    0.0343628718    1.5667283152    0.1431353257
 C    0.0379224199    0.0319825708    0.0043066476
 C    0.7600902344   -0.4548145812   -1.2641683859
 C    2.2440141212   -0.1861985665   -1.1638464270
 O    2.9518630549    0.1417298225   -2.0830286893
 C    2.8313008538   -0.3367400674    0.2394344719
 O    1.9662820884   -0.8986940335    1.2272654763
 C    0.6328343334   -0.6219623406    1.2473116933
 O   -0.0113509124   -0.9297517617    2.2103622505
 H    1.0456708449    1.9853888158    0.1783493239
 H   -0.4798557581    2.0175437705   -0.7108307801
 H   -0.4866373313    1.8639089323    1.0565367412
 H   -1.0011820351   -0.3051092736   -0.0172218106
 H    0.6288020576   -1.5410252266   -1.3670189117
 H    0.3684801555    0.0099483601   -2.1725189243
 H    3.7039289923   -0.9926924698    0.1862916562
 H    3.1851346287    0.6488879937    0.5695232122