15

 O   -0.1332899171    1.3942419669   -0.0813365490
 C    0.0286303411    0.0301922952   -0.0162831527
 C   -0.0641266690   -0.8427676820    1.2152901669
 C    0.9990747356   -1.9201140307    1.1323289689
 N    1.1075741776   -2.1306568481   -0.3207390666
 C   -0.2140308334   -1.9025121648   -0.9384622816
 C   -1.0361716109   -1.0315623198    0.0535803419
 C    0.8428413576   -0.8593040336   -1.0161255878
 H    0.6173740704    1.8121386018    0.3564505500
 H   -0.4272800910   -0.4167332407    2.1425316579
 H    1.9681985317   -1.6015204275    1.5311955290
 H    0.7080558226   -2.8574275497    1.6169368690
 H   -0.5930107685   -2.6009996437   -1.6729445854
 H   -2.1101234430   -0.9459311539    0.1276424775
 H    1.4812191465   -0.5282301893   -1.8260225381