20

 C   -0.0215856148    1.5123771480   -0.0029588053
 N    1.2535873761    0.7722138471    0.0675027687
 C   -0.0191128334    0.0317537414    0.0023539097
 C   -0.3472761262   -0.7258223815    1.2694533780
 O    0.3389175216   -1.9676603763    1.3386707880
 C    0.2723627402   -2.7742113968    0.2005959878
 C   -1.0227683558   -3.1542314208   -0.4639805709
 C   -0.0515076097   -2.2099922498   -1.1605397575
 C   -0.4004192751   -0.7240134988   -1.2622091170
 H   -0.2783344343    2.0690278573    0.8951056756
 H   -0.2888171591    2.0126917865   -0.9314128930
 H    1.7039703132    0.7752874991   -0.8449932185
 H   -0.0168009528   -0.1603651111    2.1432304265
 H   -1.4369970756   -0.8756082327    1.3473327757
 H    1.0431196795   -3.5345405083    0.2690376983
 H   -1.1313191898   -4.1667506763   -0.8372596635
 H   -1.9436973711   -2.7200682545   -0.0873266421
 H    0.5024581972   -2.6165644202   -2.0001647644
 H   -1.4748784890   -0.5999032508   -1.4507885692
 H    0.1132974490   -0.2747714417   -2.1195420769