19

 C    0.8437070618   -0.4929306804    1.3145324192
 C    0.0879450328   -0.0317153363    0.0623986657
 C   -1.3403316246   -0.5950846769   -0.0218334139
 C   -2.1458239866   -0.0318450059    1.0647205770
 N   -2.7568936524    0.4312395515    1.9313753897
 C   -2.1203116091   -0.7268035745   -1.3907324892
 C   -1.1973633253   -1.9091301272   -1.7796249108
 C   -1.6424307005   -2.1213204476   -0.3118929221
 N   -3.0382131925   -1.7734716637   -0.7910399966
 H    1.8418735921   -0.0473745310    1.3464293940
 H    0.3160488005   -0.2009545947    2.2273978259
 H    0.9627810296   -1.5814116335    1.3274999077
 H    0.0221636406    1.0625309360    0.0528615895
 H    0.6496136801   -0.3119993241   -0.8311959013
 H   -2.4949965784    0.0877719023   -2.0118101066
 H   -1.6464468082   -2.6077362328   -2.4837483355
 H   -0.1483224517   -1.7156277646   -1.9911309367
 H   -1.4511675067   -2.9669751317    0.3494771822
 H   -3.5833512815   -1.3667462349   -0.0248081682