15

 C    0.3355463318    1.3228231668   -0.0711382412
 C    0.0314766785   -0.1530752846    0.0201528197
 C    0.7312945557   -1.1540827322   -0.8646495696
 N    1.0190457618   -1.0690678417    0.5485391042
 C    2.1873769844   -0.7963920166    1.2002679896
 O    2.3229927629    0.0119053249    2.0978215008
 C    3.3828621740   -1.6716720058    0.8016917362
 O    3.4189028249   -2.3970908659   -0.1559452049
 H    1.3380181807    1.4973841448   -0.4723895518
 H   -0.3893742677    1.8123051133   -0.7288460126
 H    0.2842434257    1.7919784471    0.9148135626
 H   -0.9855702185   -0.3980439735    0.3220088520
 H    0.2159332974   -2.0529428267   -1.1908365472
 H    1.4836612099   -0.7815882880   -1.5543618394
 H    4.2381424586   -1.5266259820    1.4936759117