18

 C    0.2230454877    1.4077405153   -0.0479115644
 N   -0.0007727588   -0.0191747738   -0.0076232903
 C   -0.0737140557   -0.8727711100   -1.1253515955
 C   -0.4970899667   -2.0890593372   -0.7556297198
 C    0.0015064090   -3.5090393216   -0.9199449428
 C    0.4640279550   -3.3666552899    0.5750603055
 C   -0.5195900427   -2.1450112691    0.7524303264
 C   -0.1473544538   -0.7292085205    1.1892408948
 O   -0.0941552608   -0.2409275485    2.2968066185
 H    1.1552682732    1.6512042567   -0.5709297137
 H   -0.6034936867    1.9268806235   -0.5463287420
 H    0.2917457226    1.7521499404    0.9855937927
 H    0.3263985274   -0.5316297119   -2.0717878292
 H   -0.7948117851   -4.2522744536   -1.0273490851
 H    0.7702986008   -3.6967146772   -1.6725234522
 H    0.2805705494   -4.2159182989    1.2362350016
 H    1.5092149346   -3.0612540316    0.6459497558
 H   -1.4467905394   -2.4485566920    1.2451050594