14

 O   -0.0599185186    0.0147603435   -0.0564114736
 C   -0.0263619603    1.2093031022    0.0128816442
 N   -0.9940043956    2.1841336618    0.0884604314
 C   -0.0670093632    3.3261830224    0.0528753399
 C    1.1000092246    2.3087119304    0.0303833326
 C    1.7547501886    2.5194328431   -1.3029114547
 C    1.1438645065    3.4574474698   -2.0439016909
 C   -0.0046102138    4.0419663804   -1.3133826193
 O   -0.7796469484    4.8870159952   -1.6947389177
 H   -1.9801125404    2.1462623786   -0.1289319793
 H   -0.1622544311    4.0151671219    0.8942764082
 H    1.7777729002    2.2561447808    0.8831672556
 H    2.6051264279    1.9264571341   -1.6201557135
 H    1.4039290237    3.7576913456   -3.0508771131