17

 C   -0.0553789614    1.5061676834   -0.3778769566
 C    0.0847505721    0.0760400520    0.0952210593
 O    1.1525100246   -0.4160183073    0.3838552894
 C   -1.2163418533   -0.7149332097    0.1983842509
 O   -1.0474724760   -2.1442873079    0.2488112145
 C   -1.8753112752   -2.2300631238    1.4195464212
 C   -1.2112896087   -1.5514879775    2.5635287490
 O    0.1480607778   -1.5440788139    2.8000174430
 C   -1.9621830168   -0.7009454556    1.5424542860
 H    0.8827645403    2.0412415508   -0.2294658930
 H   -0.3164169766    1.5182791341   -1.4427593862
 H   -0.8668272282    2.0137657899    0.1555676145
 H   -1.8790716483   -0.4446914332   -0.6351501223
 H   -2.6211012613   -3.0171548737    1.4413724671
 H   -1.7658212814   -1.6287879540    3.4957577528
 H    0.6129694005   -1.5798147374    1.9483283438
 H   -2.7914987983   -0.0494385062    1.7845561365