14

 N   -0.1277618615    1.1652711962    0.0497514601
 C   -0.2000053392   -0.1737572733    0.2776730048
 O    0.1637851261   -0.7509435365    1.2731782046
 O   -0.6999979747   -0.8018292933   -0.8323239027
 C   -0.9097273066   -2.1862057892   -0.6664209005
 C   -2.2014300736   -2.4785618212    0.0861284996
 O   -2.9422816527   -1.6280842626    0.4980957849
 C   -2.5107612588   -3.9813486970    0.2909287793
 O   -3.5200585835   -4.3613536124    0.8141342346
 H    0.0468161834    1.7414092057    0.8553069837
 H   -0.6736666232    1.5565489888   -0.6993514823
 H   -0.9637243066   -2.6224965480   -1.6708985753
 H   -0.0732536247   -2.6521239530   -0.1309731579
 H   -1.7343685245   -4.6877101041   -0.0809387628