18

 O   -0.2171779233   -0.0431421515    0.0176875112
 C   -0.1004718812    1.1526496931   -0.0506613610
 C    1.2151456860    1.9002068300   -0.0549512270
 C    1.3403373334    2.8561189204   -1.2475226521
 C    2.6161911843    3.7173918456   -1.2493946965
 C    2.7817495591    4.0823489894   -2.7365219160
 O    2.0025933218    3.1467534318   -3.4880298041
 C    1.4622961175    2.1689166610   -2.6149337064
 H   -0.9986673180    1.8125576056   -0.1165160777
 H    1.2565348256    2.4839316578    0.8762931564
 H    2.0332621740    1.1731681967   -0.0347384383
 H    0.4646298171    3.5183254168   -1.2726467109
 H    2.5413355861    4.5963581180   -0.6043897402
 H    3.4656435552    3.1199810508   -0.8999320305
 H    2.4087122988    5.0907216612   -2.9554248457
 H    3.8302711965    4.0359447617   -3.0568309119
 H    2.1255388211    1.2897891454   -2.5406180637
 H    0.5055925860    1.8341314562   -3.0287255155