29

 C    0.2622433794    1.4816770983    0.0067669546
 C    0.0378045260   -0.0353872989    0.0020734231
 C   -1.4333439394   -0.5336990332    0.0130282781
 C   -2.1873651753   -0.0139255843    1.2676218270
 C   -1.6174476015   -0.4031900611    2.6371243468
 C   -2.2107647452    0.0003189336   -1.2211174441
 C   -1.6682014728   -0.3751992130   -2.6054924748
 C   -1.3730380130   -2.0857808647    0.0036373790
 C   -2.7096613652   -2.8376022912    0.0123881052
 H    1.3340578713    1.7048904741   -0.0014906946
 H   -0.1770669750    1.9666793249   -0.8704739524
 H   -0.1617982255    1.9588650232    0.8957066076
 H    0.5401168025   -0.4624384584   -0.8742016432
 H    0.5553365162   -0.4700545045    0.8656637361
 H   -2.2433014609    1.0796340072    1.2079975284
 H   -3.2280616588   -0.3548154597    1.2101032034
 H   -2.2334242271    0.0207511686    3.4368287508
 H   -1.5977951959   -1.4876780418    2.7828674397
 H   -0.5981433406   -0.0315239119    2.7808594279
 H   -3.2508149688   -0.3393307921   -1.1470682252
 H   -2.2633876520    1.0932730090   -1.1487672539
 H   -0.6511420701   -0.0037957020   -2.7648294390
 H   -1.6534985773   -1.4580821038   -2.7633506716
 H   -2.2986030696    0.0585151587   -3.3885408492
 H   -0.7969963068   -2.4030237500   -0.8739067430
 H   -0.7798375281   -2.4131396765    0.8659066358
 H   -3.3219526102   -2.6011345177   -0.8633560753
 H   -2.5350456647   -3.9183995546    0.0041738248
 H   -3.3045957014   -2.6117278182    0.9027872780