18

 C   -0.0506319933    1.3917136425   -0.0488365946
 N   -0.0005527261   -0.0504715566   -0.0361014791
 C   -1.1895759191   -0.8676137023    0.1231523106
 C   -0.6655066952   -2.3039152001    0.0752374611
 O   -1.3066696944   -3.2481471065    0.8699400838
 C    0.0692226172   -2.7130648547   -1.1642881430
 C    0.8353402710   -2.2123845862    0.0573647609
 C    1.1858323875   -0.7494345792    0.0451983394
 O    2.2923687207   -0.2535590621    0.0924655916
 H    0.9763995568    1.7551126254   -0.1137256188
 H   -0.6236679679    1.7627898410   -0.9072830714
 H   -0.5111701367    1.7844996753    0.8675304759
 H   -1.6729933457   -0.6917342250    1.0953471982
 H   -1.9266486133   -0.6551582081   -0.6639538761
 H   -2.0496789243   -3.6077768831    0.3733049801
 H    0.1404273493   -3.7798313586   -1.3468894953
 H    0.0282521419   -2.0894522263   -2.0521056728
 H    1.4790474216   -2.8951769453    0.5942515995