16

 C    0.2756396364    1.5180013386    0.0147463495
 O   -0.0771165536    0.1488941100    0.0776173202
 C    0.5945560646   -0.5757239536    1.0950002937
 C   -0.0869895866   -1.9526964074    1.1727752380
 C   -1.5370924693   -1.8612813701    1.6071326676
 O   -2.0676323026   -2.6543223940    2.3418532303
 C    2.0334462881   -0.7076334660    0.8347225993
 C    3.2091120373   -0.8249459912    0.6143154755
 H    1.3411100677    1.6504613449   -0.2133772728
 H   -0.3219497519    1.9612214907   -0.7843189413
 H    0.0505444158    2.0346303910    0.9601155843
 H    0.4673278624   -0.0531890709    2.0597775614
 H   -0.0594757946   -2.3881300049    0.1654496096
 H    0.4495974215   -2.6219470067    1.8484267018
 H   -2.0942201988   -0.9994660117    1.1826579990
 H    4.2491052237   -0.9270237086    0.4227414139