13

 N   -0.0718249136   -1.2275188763   -0.0927679171
 C   -0.0687294143   -0.0714203219   -0.0681946945
 C   -0.0542071675    1.3824615940   -0.0274089187
 C   -0.0229591043    2.0638561729    1.3676131378
 C    1.5154964946    1.8442293867    1.5230499171
 O    1.7990798870    3.2400428699    1.8270990797
 C    0.7620875190    3.2916316335    0.8093373008
 C    1.3284879027    2.0889624562   -0.0080857848
 H   -0.7821524209    1.7883393053   -0.7351175630
 H   -0.7791310740    2.0537512228    2.1502848320
 H    2.0633139606    1.0638528527    2.0469686268
 H    0.3979910620    4.2598767025    0.4693300549
 H    2.0975131288    2.1071918317   -0.7779827309