18

 O   -0.0312692266    0.0142939479   -0.3781577907
 C   -0.0286219086    1.1504206162    0.0110268641
 O   -1.2090902054    1.7399985038    0.3487956814
 C   -1.2620307311    3.0288294984    0.9945421596
 C    0.0165962868    3.8498442283    0.8447151089
 C    0.3389554067    4.1391502706   -0.6385718131
 N    1.2053937735    3.0120687415   -1.0527286083
 C    1.2214240743    2.0359532085    0.0487545761
 C    1.1924282123    2.9534630827    1.2717779253
 H   -2.1215383073    3.5440277927    0.5547745199
 H   -1.4785116521    2.8523848960    2.0559108090
 H   -0.0851408094    4.7625812747    1.4376059068
 H   -0.5762303464    4.2127533501   -1.2388247734
 H    0.8791630070    5.0872937536   -0.7481443043
 H    0.9191438049    2.5967883531   -1.9308653362
 H    2.0906733097    1.3800261677   -0.0214910141
 H    2.1308058928    3.5085354292    1.3500093475
 H    1.0124983290    2.4236593451    2.2112786515