18

 C   -0.0861451008    1.5150717230   -0.0229761769
 C   -0.0163826109    0.0098270427   -0.0036670686
 C    0.0313512749   -0.7354198777   -1.1738103585
 N    0.0939499441   -2.0739302820   -1.2074030967
 C    0.1110321905   -2.7186509213   -0.0540981888
 O    0.1743663710   -4.0711804921   -0.0952558907
 C    0.0680891435   -2.0986747589    1.2091767434
 C    0.0920903184   -2.9180462208    2.4695172853
 C    0.0038859499   -0.7149237560    1.1975023776
 H    0.7694281046    1.9659291162    0.4928998105
 H   -0.0924953903    1.8948964183   -1.0484279943
 H   -0.9909952754    1.8840891185    0.4734882397
 H    0.0189941759   -0.2373535670   -2.1409461089
 H    0.1956324313   -4.3029054870   -1.0341454196
 H    0.9981989524   -3.5309494768    2.5266843428
 H    0.0524719734   -2.2771493394    3.3540941358
 H   -0.7543761392   -3.6123303824    2.5071590158
 H   -0.0314775135   -0.1821381273    2.1450707123