15

 C   -0.2082881268    1.3267494689   -0.3213607895
 C    1.1884404247    1.1453407489    0.1743122541
 C    0.2617196818   -0.0599786324    0.0956153287
 C   -0.2542963305   -0.6988901796    1.3158699439
 C   -0.5873019309   -0.0276273439    2.4998121147
 N   -1.0449475436   -0.6832217911    3.5494550052
 N   -1.1854776946   -2.0088629127    3.4603884924
 N   -0.8777467337   -2.6493365072    2.3589334674
 N   -0.4143675932   -2.0239741905    1.2820638994
 H   -0.9245099095    1.8270519833    0.3213665000
 H   -0.3722692303    1.4845203060   -1.3808307634
 H    2.0053063665    1.1757176871   -0.5370699885
 H    1.4401929196    1.5199159509    1.1605620266
 H    0.4498703784   -0.7753292190   -0.6963713562
 H   -0.4880447379    1.0487517716    2.6139389354