19

 O   -0.1278980945    1.4856265482   -0.0351602115
 C    0.0132079961    0.0735724459    0.0996996816
 C   -1.3928104188   -0.5074214040    0.0107100013
 O   -2.2003765185    0.0630560951    1.0113428286
 C   -1.9666248683   -0.5188918110   -1.4400248480
 C   -1.5459867605   -2.0208467240   -1.5547932193
 C   -1.4188195045   -2.0512987001    0.0042297573
 C   -2.4553612080   -2.9495295232   -2.1916654480
 C   -3.2248407390   -3.7158124496   -2.7091047936
 H    0.6992844531    1.9057488832    0.2154920563
 H    0.6604641490   -0.3407779671   -0.6875549745
 H    0.4437625475   -0.1897341701    1.0769451609
 H   -1.9817347824    1.0043599015    1.0242563124
 H   -3.0525386356   -0.4163047074   -1.4111432335
 H   -1.5461982545    0.1800848131   -2.1654406915
 H   -0.5562551672   -2.1028476952   -2.0159728991
 H   -0.5643186263   -2.5834339535    0.4305788503
 H   -2.3390189958   -2.4075808917    0.4702578246
 H   -3.9022620718   -4.3916266801   -3.1688386342