19

 C   -0.0148862750    1.5955110680    0.0374352962
 C   -0.0243566211    0.0537326161    0.0559238002
 C    0.7451110851   -0.4650052517    1.1843204532
 C    1.3773687036   -0.8901666991    2.1138862705
 C   -1.4680258718   -0.5343569020    0.0670689814
 O   -2.2330942733   -0.0634730174    1.1535887870
 C   -2.1906781588   -0.2577430506   -1.2458297512
 C   -3.6514868258   -0.3286596840   -1.3364025758
 O   -2.9801261934    0.9404704891   -1.2575021699
 H    1.0112739635    1.9677999858   -0.0028969066
 H   -0.5609097364    1.9816003113   -0.8277136118
 H   -0.4792175320    1.9857117161    0.9463959830
 H    0.4504688776   -0.3080927340   -0.8680156519
 H    1.9339877551   -1.2662488836    2.9360865781
 H   -1.3794187986   -1.6205064648    0.1900684557
 H   -2.6235957179    0.7721218402    0.8607560626
 H   -1.6079408372   -0.4184268264   -2.1532580351
 H   -4.1228590588   -0.5388209520   -2.2941179688
 H   -4.2207483148   -0.5993814510   -0.4507361268