17

 O    0.2008005737   -0.2433944723   -0.1312478247
 C    0.1284330740    0.9575409662   -0.0872927205
 C    1.3245436617    1.8797804487   -0.0083057919
 C    1.3382601891    2.9528443185   -1.1227347467
 C    1.9816586437    4.1883306635   -0.4410425292
 O    2.2887118362    3.8054857085    0.8998705618
 C    1.4006759281    2.7630133665    1.2719793314
 C    0.0958331824    3.2801979561    1.7079691744
 C   -0.9649303846    3.7207075519    2.0629870059
 H   -0.8523889977    1.4805724074   -0.1119135703
 H    2.2274915699    1.2667867943   -0.0412835432
 H    1.9006241492    2.6103546230   -1.9931407038
 H    0.3201375160    3.1795576015   -1.4545629411
 H    2.9193547714    4.4985415310   -0.9091911115
 H    1.2918246535    5.0415834771   -0.4444516009
 H    1.8708442356    2.2225830828    2.0987990291
 H   -1.8986856524    4.1084598352    2.3895812913