19

 O   -0.5518598780    1.4063364742    1.0192824151
 C    0.0989290925    1.2177519363    0.0221806872
 C    1.4006858797    1.9259238608   -0.2856860594
 C    1.2622609377    2.9050354823   -1.4796387707
 C    0.4079062209    4.1713653948   -1.1060651074
 C    1.7186445330    4.9533716149   -0.8312346625
 C    2.5096712649    3.8544385300   -1.5872893271
 C    0.8888613920    2.2044101204   -2.6972784601
 C    0.5900944099    1.6386366946   -3.7164607934
 H   -0.2420102482    0.5062681463   -0.7606088724
 H    1.7142540020    2.4711018744    0.6088796816
 H    2.1629671019    1.1767497213   -0.5343353393
 H   -0.1327599128    4.5519562531   -1.9744712361
 H   -0.2927908815    4.0439015031   -0.2781111819
 H    1.7795413638    5.9649728647   -1.2360444211
 H    1.9676267187    4.9960123756    0.2318609479
 H    3.4327453083    3.4830456964   -1.1352409165
 H    2.7083046378    4.1216515327   -2.6270983913
 H    0.3209835474    1.1410851040   -4.6152879226