16

 C    0.0985906542   -1.1379542094    0.0138121781
 C    0.0062190260    0.0599351283    0.0094065017
 C   -0.0927278469    1.4867102938    0.0037590493
 N   -1.2111589562    2.0983394558    0.0402053249
 C   -1.0793323919    3.5563401989    0.0260225323
 C   -0.0588969367    3.9582963777   -1.0834930789
 C    1.0129354186    3.5368777709   -0.0494249738
 C    0.0183005636    3.9721068098    1.0537490333
 O    1.1266429122    2.0983823494   -0.0442370083
 H    0.1703873270   -2.1978252755    0.0180691215
 H   -2.0622728024    4.0238797565    0.0585052762
 H   -0.0983401532    3.4177842144   -2.0308259711
 H   -0.0370781215    5.0363121888   -1.2536897566
 H    2.0316630826    3.9194267522   -0.0886933369
 H    0.0518386237    5.0522191505    1.2080008362
 H    0.0475557210    3.4438846679    2.0083559019