20

 C   -0.0936976680    1.5250749579    0.0896600097
 C    1.4191019058    1.2414837682    0.1714955348
 C    0.9793948629    0.0357911788    1.0303851838
 N   -0.0437306940   -0.0039524255   -0.1228283108
 C    1.1806394670    0.2953160921   -1.0347238336
 C    0.8764024728    0.8278953133   -2.4500747363
 C    1.4306080876   -0.2688597060   -3.3663558246
 O    2.5308616342   -0.8145614990   -2.6558470120
 C    2.1224330307   -0.9034017259   -1.3023192495
 H   -0.6071988528    1.8064657455    1.0128730849
 H   -0.4826355566    2.0881180008   -0.7591706880
 H    2.2474609450    1.9420202158    0.3319443162
 H    1.6233171272   -0.8429854125    1.0908942352
 H    0.5210996839    0.2463959801    2.0001478459
 H   -0.1899088946    0.9976042286   -2.6105575453
 H    1.4047978304    1.7714442508   -2.6212528050
 H    0.6665978695   -1.0412876360   -3.5535482938
 H    1.7962257739    0.0962593854   -4.3291584315
 H    3.0255285502   -0.9018355351   -0.6865121453
 H    1.5716168348   -1.8409304172   -1.1177330547