21

 C    0.5367685406    1.7603610485   -0.6472285224
 C    0.5363304740    0.2617132725   -0.4309982287
 C    1.7678353664   -0.5780855462   -0.3550765429
 O    2.8251629212    0.0826685943    0.3532833206
 C    2.0608060150   -0.0212696992    1.6107455065
 C    2.6871893818   -1.1012925678    2.4843833112
 C    2.0396745205    1.3284194692    2.3298935188
 O    3.3604138220    1.8192256598    2.4890584923
 C    0.8364247719   -0.5273831868    0.8406481582
 H    1.4956087909    2.2002856550   -0.3677696209
 H    0.3705146186    1.9793896542   -1.7074934051
 H   -0.2547853758    2.2586310274   -0.0779079278
 H   -0.2505174920   -0.2556045186   -0.9799332876
 H    2.0500697823   -1.3732846029   -1.0361940720
 H    3.6562949440   -0.7579382965    2.8538400437
 H    2.0429363551   -1.3110973980    3.3458933188
 H    2.8238775507   -2.0265428260    1.9193957973
 H    1.4087356336    2.0467626755    1.7952882334
 H    1.6235379628    1.2045584254    3.3356920196
 H    3.7576291729    1.7985633699    1.6094888406
 H    0.1582609934   -1.2821125897    1.2179943866