19

 C   -0.5110240114    1.4896001044    0.1346828556
 C   -0.1911009977    0.0362062005    0.0018563254
 C   -0.2796604057   -0.7384458828   -1.0856042984
 C    0.2114693703   -2.1379570450   -0.8225393153
 O    1.5812781558   -2.2447703394   -1.2259555813
 C    0.1331735993   -2.2231854884    0.7263192430
 O    1.0805674192   -3.1213366076    1.2636833408
 C    0.3890470758   -0.7584401139    1.1553700305
 O    1.7998729490   -0.5377227978    1.3051368334
 H    0.3693656907    2.0434851963    0.4814442083
 H   -0.8411783010    1.9215840343   -0.8134882329
 H   -1.2983642203    1.6542569802    0.8809192887
 H   -0.6139668306   -0.4075297549   -2.0628990279
 H   -0.3868100490   -2.9130238329   -1.3208082185
 H    1.9164965762   -3.0049332974   -0.7263898052
 H   -0.8719237854   -2.5361389668    1.0298673380
 H    1.7867603180   -2.5555214986    1.6148623281
 H   -0.0432316728   -0.5114605972    2.1294722291
 H    2.1761499395   -0.6646800831    0.4205750786