12

 O   -0.0816401030   -0.0279362013    0.0042177908
 C   -0.0046582841    1.1672135663    0.0097035106
 O   -1.1804449725    1.9210186623    0.0297764354
 C   -1.1372830607    3.2773557933    0.0365228796
 C    0.0522102558    3.9348548591    0.0238713850
 N    1.2501090584    3.2658123890    0.0039142801
 C    1.2208948232    1.9738954701   -0.0026805477
 C   -2.4030016481    3.9080351654    0.0571806800
 C   -3.4752586882    4.4540816882    0.0747388123
 H    0.0815685417    5.0160400666    0.0293205365
 H    2.1533346120    1.4160622845   -0.0184340019
 H   -4.4235394345    4.9337459765    0.0902349493