15

 N   -0.0197646951    1.3151125696    0.0080127258
 C    0.0765994507   -0.0308371130    0.0008092715
 O    1.1022296197   -0.6831775723   -0.0122997394
 C   -1.3085905219   -0.7185479452    0.0105276909
 O   -2.3263868679   -0.0636295449    0.0236012103
 C   -1.2795277150   -2.2280703008    0.0023224575
 C   -2.6952075366   -2.8219428999    0.0128279475
 C   -2.6796456726   -4.2821159487    0.0049888508
 N   -2.6567705394   -5.4372164202   -0.0014184610
 H    0.8130610363    1.8793083484    0.0029696654
 H   -0.9324046924    1.7410165502    0.0190230439
 H   -0.7054939510   -2.5576839839   -0.8710219075
 H   -0.6888170181   -2.5667774354    0.8609364132
 H   -3.2432737141   -2.4744134360    0.8944253376
 H   -3.2601333725   -2.4651534479   -0.8543186866