14

 N    0.0574006381    1.3510796686    0.0661475054
 C    0.0261562727   -0.0256221877    0.1048113900
 O    1.0663477624   -0.6880229124    0.1931108248
 C   -1.2467412222   -0.7004421772    0.0805018489
 C   -1.4001007422   -2.0830613995    0.0220211277
 O   -0.4208033285   -2.9782241283    0.0128450651
 N   -2.7108218864   -2.4383688470   -0.0339591369
 C   -3.3698746149   -1.2945175350    0.0026938918
 N   -2.5554181361   -0.2137733900    0.0542105766
 H    0.9795810656    1.7367491255   -0.0782820529
 H   -0.6854015045    1.8408535956   -0.4077300296
 H    0.4040476627   -2.4498294829    0.0951315805
 H   -4.4458245827   -1.1998915254   -0.0049092281
 H   -2.8504235941    0.7345524359    0.2135915067