22

 C   -0.6835112087    1.0508279841    0.9287761031
 O   -0.9192366303   -0.3298058785    1.1337513589
 C   -1.5409476426   -0.9405861231    0.0462502016
 C   -0.7131014584   -1.3939271156   -1.1376146976
 C   -1.3442050374   -2.4188903631   -0.2232891255
 N   -0.5301327217   -3.3826149433    0.4598590115
 C    0.4813420614   -3.0258916017    1.4516982006
 C   -0.7607341452   -3.7499180688    1.8595765306
 C   -1.8041617036   -3.0772920075    2.7239278507
 H   -0.2078531255    1.4351892421    1.8338399462
 H   -0.0223241491    1.2225789549    0.0682722369
 H   -1.6238840215    1.5959636591    0.7591487577
 H   -2.5363194250   -0.5405049086   -0.1617531600
 H   -1.0802510540   -1.2630693839   -2.1497886085
 H    0.3601099807   -1.2768596025   -1.0227051244
 H   -2.2394553098   -2.8987071046   -0.6125104047
 H    1.4250647126   -3.5588080621    1.3548330973
 H    0.5627063662   -1.9883565526    1.7559283475
 H   -0.6833821650   -4.8259206629    2.0161149191
 H   -1.7798919057   -1.9915706449    2.6145803496
 H   -2.8110746333   -3.4326120939    2.4756086000
 H   -1.6233969643   -3.3193431326    3.7771950193