24

 C   -0.5724562314    1.0861307494    1.0464795292
 C   -0.3909582574   -0.3802297419    0.6439494482
 C    0.4945573442   -0.5530655701   -0.5961274344
 C    0.6848653453   -2.0165085247   -1.0482241845
 C   -0.5786269982   -2.5621675875   -1.7523660128
 C   -0.7430087678   -4.0859607591   -1.7202557518
 C    1.9333648923   -2.1030468506   -1.9302236837
 O    2.2043721121   -3.4576241683   -2.2655517212
 H    0.3915625671    1.5606730834    1.2618604071
 H   -1.0499394769    1.6607841947    0.2448783767
 H   -1.1967364475    1.1808997796    1.9405454001
 H    0.0532345327   -0.9373739692    1.4792857470
 H   -1.3752290079   -0.8313594833    0.4696064361
 H    0.0755561011    0.0303727573   -1.4286497894
 H    1.4755842389   -0.1074517604   -0.3808981421
 H    0.8793867038   -2.6281292554   -0.1551299915
 H   -1.4634940814   -2.1078788745   -1.2908604275
 H   -0.5746027589   -2.2119557978   -2.7941035482
 H   -1.6675247990   -4.3868670574   -2.2247225707
 H    0.0982038323   -4.5826139936   -2.2050179725
 H   -0.7977886885   -4.4494485286   -0.6875935628
 H    1.7742686399   -1.4969332086   -2.8386459363
 H    2.7869376640   -1.6621949008   -1.3904395010
 H    2.9622705911   -3.4739614425   -2.8568382740