12

 O    0.0557071541   -0.0801699611   -0.0027443832
 C    0.0147849499    1.1264308298    0.0085352091
 C    1.1969135561    1.9893993536    0.0027863782
 C    1.3794497825    3.3547183811    0.0135120161
 C    0.3459463552    4.4083464559    0.0355867534
 O    0.5856967060    5.5887250803    0.0434292422
 N    2.7370589319    3.6274615851    0.0001929175
 C    3.2896830379    2.4589429557   -0.0173459342
 O    2.4320981379    1.4155259436   -0.0171692775
 H   -0.9422146188    1.6856455667    0.0255457876
 H   -0.6967962527    4.0261078523    0.0437928055
 H    4.3416007501    2.2178589170   -0.0319676847