21

 C    0.1378795277    1.6462402942    0.0121167909
 C    0.1133235219    0.1181630775   -0.0349430924
 C    0.8081929049   -0.5548962235   -1.2055133438
 C    2.3204882741   -0.5424823895   -1.2121205644
 C    1.5874516055   -1.7697448247   -0.7216275705
 C    1.6492398266   -3.0532362053   -1.5137485156
 C    1.4217962382   -1.8531217173    0.7878522432
 C    0.7670591632   -0.5293697992    1.2014825055
 O    0.7662858959   -0.0606356967    2.3103300859
 H    1.1592915669    2.0233062185   -0.0992936503
 H   -0.4698754854    2.0755286919   -0.7896013865
 H   -0.2478142910    1.9971686307    0.9728766652
 H   -0.9361724896   -0.2171895354   -0.0138863398
 H    0.2964443335   -0.5888567601   -2.1616953093
 H    2.8155110114   -0.6099352317   -2.1749109184
 H    2.8440173575    0.0833086462   -0.4934834946
 H    1.6868557580   -2.8519767568   -2.5893284652
 H    2.5386886507   -3.6402400331   -1.2560578002
 H    0.7714364589   -3.6817206573   -1.3215715791
 H    0.7386497674   -2.6699180378    1.0611441829
 H    2.3489474538   -2.0113903304    1.3473704465