18

 C    0.0777747665    1.4541113705    0.1341883937
 C    1.3046837493    0.6327832894   -0.0422549055
 N   -0.0471969517   -0.0100687601   -0.0052194253
 C   -0.2049476044   -0.5092342020   -1.4224504251
 C    0.4566537812    0.4839615200   -2.3983081429
 C    1.3952402340   -0.5120229963   -3.1425890356
 C    2.6787354977    0.2395204566   -2.6562459066
 C    1.6983873368    0.3009961342   -1.4620653129
 C    1.1579366313   -1.1540781268   -1.7493577593
 H   -0.1776236482    1.8296297725    1.1219482425
 H   -0.2393009573    2.0958513238   -0.6825376110
 H    1.9698670827    0.4186486046    0.7886795629
 H   -1.1740873544   -0.9844849717   -1.5755980171
 H    0.1013803745    1.4373157956   -2.7900636650
 H    1.2227511273   -0.9638310419   -4.1189069258
 H    3.5832024438   -0.3624284372   -2.5245151663
 H    2.9132711489    1.1859718038   -3.1532957200
 H    1.5972844418   -2.0684721950   -1.3493544006