19

 O   -0.1078025378    1.1548506782    0.8268488020
 C   -0.0308488982   -0.1603009954    0.3175337315
 C   -1.3731433259   -0.6000755379   -0.2374095783
 C   -1.6238863474   -2.1046241653   -0.4660139869
 C   -2.7550612462   -1.9349776887    0.5711649119
 C   -2.7012852770   -2.7790840429    1.8423000037
 C   -3.6855461824   -2.2930787299    2.8874310466
 O   -4.5260786713   -2.9838788771    3.4038706380
 O   -2.3858405500   -0.5520558711    0.8067591593
 H   -0.8497318987    1.1609022335    1.4438699909
 H    0.7243841017   -0.1573129232   -0.4769000966
 H    0.2953453388   -0.8765971550    1.0902296985
 H   -1.6616183319    0.0487996716   -1.0736398159
 H   -1.9330991486   -2.3974874163   -1.4692936328
 H   -0.8063252234   -2.7506360872   -0.1354813577
 H   -3.7600555429   -1.9875708396    0.1317113451
 H   -2.9156829950   -3.8282569671    1.6158230894
 H   -1.6901613380   -2.7062156689    2.2654941371
 H   -3.5781314759   -1.2188520375    3.1520792843