20

 C    0.7936676835    1.5035598036    0.3913575497
 C    0.5400849325    0.0703323168    0.3597499943
 C    0.3299759707   -1.1161585772    0.3337786064
 C    0.1081841096   -2.5433977805    0.2673034410
 C    0.0222593718   -3.4075526241    1.5716002257
 C   -1.3483499077   -2.7424407220    1.8806481269
 C   -1.3361455539   -3.1408674168    0.3781304470
 N   -0.6418840157   -4.4550767422    0.6938560012
 C   -1.4114583196   -5.5164684982    1.3326110135
 H    1.5235638574    1.7945298790   -0.3722671716
 H   -0.1227557758    2.0754610831    0.2073135179
 H    1.1896758169    1.8177613066    1.3635864983
 H    0.6974027963   -3.0311087142   -0.5123262299
 H    0.8390385762   -3.6568101572    2.2515629781
 H   -2.0300568682   -3.2828566971    2.5358078161
 H   -1.3426638768   -1.6761248464    2.1124505932
 H   -2.1356688558   -3.0728083043   -0.3619623799
 H   -2.0231275732   -6.0058221021    0.5672155014
 H   -0.7106791916   -6.2634846222    1.7203119406
 H   -2.0777199366   -5.2206240949    2.1570536901