15

 C   -0.2992243438    1.4928792574   -0.0510818628
 C    0.0967220178    0.0371618051   -0.0175739645
 O    1.3241297846   -0.2228380097   -0.7823193596
 C    1.9938371629   -0.6797844362    0.3272923735
 N    3.1681248891   -1.0833187270    0.4765760806
 C    0.7939955933   -0.5300721870    1.2639545848
 C    0.9351330332    0.3210520304    2.4246918698
 C    1.0385348856    1.0339585407    3.3862489011
 H    0.5006906005    2.1259412552    0.3402264476
 H   -0.5224570240    1.7962702667   -1.0780007970
 H   -1.1934805309    1.6519753352    0.5593835288
 H   -0.7016622626   -0.6098646881   -0.3918098101
 H    3.6894588057   -1.0493029969   -0.4010922283
 H    0.3966755399   -1.5086090846    1.5510332605
 H    1.1454870586    1.6583831286    4.2387036855