13

 O   -0.0632816594    0.0058152850   -0.0277032481
 C   -0.0039495006    1.2028244934   -0.0205869674
 C    1.3411792525    1.9692033383    0.0344100953
 O    2.3830529271    1.3551703490    0.0731850670
 C    1.2484253551    3.4470837202    0.0354935312
 C    2.3136952959    4.2090138656    0.8220126030
 C    2.3714268906    4.2136152068   -0.6610726627
 H   -0.9168061579    1.8404447081   -0.0532356663
 H    0.2529925028    3.8748127083   -0.0019058723
 H    1.9891395676    5.1031340721    1.3411117895
 H    3.0271553833    3.5876253252    1.3511837148
 H    3.1239936774    3.5952567492   -1.1369504851
 H    2.0881519055    5.1109886987   -1.1984042489