23

 O   -0.0243252669    1.4361363650   -0.0184241763
 C    0.0362485847    0.0176398111    0.0311580099
 C   -1.3870165826   -0.5292865248   -0.0101504952
 C   -2.1212439262   -0.1336348802   -1.3029667637
 C   -3.5524071360   -0.6897996450   -1.3376591301
 C   -3.5877073739   -2.2137643122   -1.1406844749
 O   -3.0947389683   -2.9102336769   -2.2852813320
 C   -2.8347645791   -2.6160861128    0.1389862611
 C   -1.4047846785   -2.0556865074    0.1714050760
 H    0.8744321422    1.7768365269   -0.0330353207
 H    0.6108995200   -0.3853514735   -0.8204082607
 H    0.5347552401   -0.3248969243    0.9526672739
 H   -1.9260823565   -0.0772777856    0.8358643755
 H   -2.1281864866    0.9544165426   -1.4055256499
 H   -1.5510291139   -0.5113503415   -2.1665975304
 H   -4.1419887721   -0.2190891398   -0.5399775902
 H   -4.0394890718   -0.4412489752   -2.2863387174
 H   -4.6295182279   -2.5421744424   -1.0592420575
 H   -2.1954238223   -2.6135093397   -2.4551143280
 H   -3.3910890701   -2.2376723180    1.0067737995
 H   -2.8214998871   -3.7081360490    0.2153375075
 H   -0.8074172527   -2.5240868610   -0.6254290919
 H   -0.9167022046   -2.3343001865    1.1127018555