12

 O   -0.0379200777   -0.0412413151   -0.0494713260
 C   -0.0645471425    1.1516042984   -0.0093270708
 N   -1.1124483949    1.9831903964    0.3231289540
 C   -0.8476666842    3.3570281883   -0.0468456568
 C    0.7046435649    3.3134872196   -0.0657740727
 O    1.0344320807    1.9408532706   -0.2863251773
 C    1.2950832291    4.1552931547   -1.1074761240
 N    1.7417817762    4.8526392509   -1.9117832480
 H   -2.0395943790    1.5913457867    0.2838467971
 H   -1.2495256290    3.6225074878   -1.0324489997
 H   -1.2164537011    4.0723493600    0.6917082667
 H    1.1102149975    3.6195478218    0.9060124677