17

 O   -1.1145392619    1.1844662749    0.7416143216
 C   -1.3916186118   -0.1818526768    0.6918663279
 C   -1.1597469816   -0.7362545527   -0.7045732693
 O   -0.7911134548   -0.0008189126   -1.5940884802
 C   -1.3226712827   -2.2363256181   -0.9368657111
 O   -2.1304838327   -2.8871365092    0.0177704746
 C   -3.5134884511   -2.8503120433   -0.2612358903
 C   -4.2241235504   -3.7063404930    0.7755826057
 O   -5.4192101039   -3.7974069022    0.8486170152
 H   -0.8342690732    1.4234606705   -0.1563208506
 H   -0.7623682560   -0.7535014627    1.3944627829
 H   -2.4315580463   -0.3898355920    0.9893454317
 H   -1.6741716204   -2.3977441608   -1.9649747825
 H   -0.3211057594   -2.6787158584   -0.8586843467
 H   -3.9283587093   -1.8309184153   -0.2280145007
 H   -3.7320720276   -3.2586209080   -1.2614926420
 H   -3.5329232669   -4.2488352103    1.4567811939