18

 C   -0.4015245918   -1.2196583320    0.2438334803
 C   -0.2291164996   -0.0318725876    0.1604142133
 C   -0.0432189676    1.3855951055    0.0106023468
 C    0.5395870597    2.1941719587    1.1311959054
 N    1.3041880982    1.9880850416   -0.0893845454
 C    2.4519993225    1.1043196791   -0.0067009430
 C    3.0163364672    0.6393605420   -1.3643062448
 O    4.2946322409    1.2512597559   -1.0914246524
 C    3.8068183272    1.8299873525    0.1355857834
 H   -0.5574941356   -2.2668629294    0.3280660810
 H   -0.7691980903    1.8678619608   -0.6395206383
 H    0.1804747303    3.2043810333    1.3060476976
 H    0.8345024102    1.6441805432    2.0228316234
 H    2.3114017854    0.2856049754    0.7100300309
 H    3.0995627609   -0.4428674037   -1.5128723675
 H    2.5135768075    1.0936797634   -2.2267366229
 H    3.7272578814    2.9226170470    0.0781451778
 H    4.4244807936    1.5497501444    0.9969274843