21

 C   -0.0482478949    1.5568613722   -0.0571347035
 C   -0.0032804012    0.0455425880    0.0109328356
 C   -1.2237878270   -0.6500687233   -0.5607410730
 C    1.3233686527   -0.6619662216   -0.1636141824
 O    2.4661427358    0.1259429598   -0.3426362073
 C    3.3713429414    0.1440635992    0.7555570111
 C    2.6925282544    0.4038653368    2.0767694786
 C    1.4196678333    0.0574442684    2.2639520345
 C    0.6746102718   -0.6549724155    1.1977789571
 H    0.8487133496    2.0087760811    0.3664494011
 H   -0.1325600802    1.8893565066   -1.0980225053
 H   -0.9188369624    1.9417788383    0.4864690146
 H   -1.3837180048   -0.3613996021   -1.6062704775
 H   -1.1204614695   -1.7396003428   -0.5278207542
 H   -2.1280438939   -0.3850185378   -0.0002097123
 H    1.3423470950   -1.5869972134   -0.7398972045
 H    3.9430868557   -0.7993485147    0.8011557799
 H    4.0886420095    0.9391413138    0.5268534572
 H    3.2782656128    0.8796892882    2.8577367670
 H    0.9142849809    0.2574460216    3.2050010333
 H    0.1924839711   -1.5757736228    1.5187987200