21

 C   -0.0284695000    1.6190104023    0.0850259576
 C   -0.0817754037    0.0810554070    0.0378063444
 C    0.6981089451   -0.5707512359    1.2058725546
 N    2.1066825698   -0.2639289059    1.1188489435
 C    2.9512592078   -1.0156581509    0.1627183861
 C    4.0880216537   -1.0061165924    1.2123109636
 C    2.9837299195   -0.6620263202    2.2405651633
 C   -1.4658000995   -0.4006285362    0.0326372519
 N   -2.5580083412   -0.7789961793    0.0446237922
 H    1.0156133309    1.9328296422    0.1349563948
 H   -0.4986322925    2.0575035369   -0.7982791243
 H   -0.5480256100    1.9943066853    0.9714952601
 H    0.3760497147   -0.2601285002   -0.9002158545
 H    0.3138929751   -0.1745785340    2.1532329289
 H    0.5058123328   -1.6601912749    1.2067560008
 H    2.5731378750   -2.0334451144   -0.0316419261
 H    3.1283995217   -0.5167861006   -0.7955864744
 H    4.6356065743   -1.9364797396    1.3612005503
 H    4.7932758447   -0.1873005957    1.0614476746
 H    3.1792964628    0.1279419670    2.9728833592
 H    2.6228570388   -1.5574304402    2.7720695636