18

 C   -0.1583506147    1.5518039894    0.0593518996
 C    0.0216792682    0.0542504758   -0.0391195129
 C    0.6852023294   -0.6247033964   -1.2016503724
 C    1.2419315034    0.1189672415   -2.3940358848
 C    1.3955622708   -0.6059085905    0.1617027523
 C    2.5591991032    0.1869634372    0.3627922174
 C    3.5567658425    0.8500612524    0.5450177003
 C    4.6767182786    1.6004288884    0.7465501572
 N    5.6308205323    2.2429974924    0.9165459575
 H    0.7013626922    2.1007271668   -0.3299674091
 H   -1.0442433244    1.8681846477   -0.5011997353
 H   -0.2956765536    1.8547733940    1.1021336209
 H   -0.7825132412   -0.5132228816    0.4219232488
 H    0.2841224242   -1.6046574146   -1.4468758244
 H    1.7188556861    1.0597279049   -2.1120689383
 H    1.9933298813   -0.4878559977   -2.9090188018
 H    0.4449097008    0.3446808957   -3.1102285172
 H    1.4014015307   -1.5423596554    0.7119624120