17

 C    0.0412530320    1.5084227467   -0.2721829419
 C   -0.0359749015    0.0264075958    0.1394222103
 C   -1.4236551277   -0.5273149055    0.1765147554
 C   -2.2099871469   -0.9482260823    1.2191365134
 C   -3.4749669155   -1.3729523118    0.6979281586
 C   -3.4072755020   -1.1913735143   -0.6605721981
 O   -4.2768954003   -1.4120177535   -1.6819902542
 N   -2.1808472349   -0.6833818134   -0.9789755799
 H    1.0778684718    1.8607874860   -0.2778315503
 H   -0.3684458574    1.6674088320   -1.2756299304
 H   -0.5320889620    2.1325144429    0.4196484216
 H    0.5957575588   -0.5659014677   -0.5385778871
 H    0.3966249912   -0.0964374889    1.1376456594
 H   -1.9140696407   -0.9547573848    2.2576486605
 H   -4.3159197074   -1.7619720632    1.2509163323
 H   -5.0883542799   -1.7709176273   -1.3111852261
 H   -1.8871754176   -0.4733410108   -1.9172024035