21

 C   -0.1033477633    1.4980649629   -0.0517359060
 C   -0.0306821099    0.0034504752   -0.0715003020
 C    0.0502331313   -0.7907709849   -1.1396052945
 C    0.1390891172   -2.2543887453   -0.7874939153
 C    0.4029907956   -2.2233955309    0.7355930549
 C   -0.0229008185   -0.8187228106    1.2215057427
 O    0.9279041493   -0.3411341435    2.1703699956
 C   -1.3979775436   -0.8580126661    1.9060751694
 O   -1.6546897774    0.4420209623    2.4373899451
 H    0.7206627641    1.9086561937    0.5439181631
 H   -0.0364840610    1.9135688025   -1.0609418052
 H   -1.0307821823    1.8460397470    0.4146537522
 H    0.0416412851   -0.4386351201   -2.1668175826
 H   -0.7943095207   -2.7819761997   -1.0296492042
 H    0.9312584687   -2.7747019874   -1.3383122871
 H   -0.1016221862   -3.0279014086    1.2791125595
 H    1.4731203566   -2.3127034990    0.9399498496
 H    0.4764981039    0.3507126098    2.6711457244
 H   -2.1742158852   -1.1561800170    1.1869383741
 H   -1.3619477966   -1.6022302878    2.7145683050
 H   -2.3904210570    0.3844979675    3.0529552012