23

 C    0.2279509599    1.5363100706    0.2144823706
 C    0.0580006326    0.0312103110   -0.0104059424
 C    0.6111555393   -0.4733193687   -1.3668282774
 C   -0.1547306700    0.1025610072   -2.5608844161
 O    1.9626233443   -0.0478974439   -1.5169086263
 C    0.5806034882   -2.0192932327   -1.4018460098
 C   -0.7163481418   -2.7274362635   -1.0761592821
 C    1.5876353942   -2.7144786527   -2.2152990285
 O    1.7474744186   -2.6052996769   -0.7881918153
 H    1.2696208702    1.8300712114    0.0656668226
 H   -0.3887982468    2.1240430805   -0.4725496421
 H   -0.0672649192    1.8075251789    1.2326139176
 H    0.5823382030   -0.5154148973    0.7845993976
 H   -1.0009864774   -0.2374591350    0.0767239971
 H   -0.0273261902    1.1867698161   -2.6003329916
 H    0.2300837999   -0.3150008921   -3.4952314587
 H   -1.2240924635   -0.1157943760   -2.4928703606
 H    2.4818684451   -0.6329990860   -0.9465428600
 H   -1.5183173136   -2.4086824497   -1.7492906636
 H   -0.5906067988   -3.8078124711   -1.1797142253
 H   -1.0340404209   -2.5226241026   -0.0503683843
 H    1.3805333241   -3.7209309798   -2.5749847119
 H    2.2987912927   -2.1369705176   -2.7991177394