17

 N   -0.0204432234    1.4267071448    0.0798066828
 C    0.0074586696    0.0192893169    0.0248603185
 C   -1.0729815463   -0.8361378037   -0.0090374752
 N   -0.5929032916   -2.1332908831    0.0566959270
 C   -1.4069221014   -3.3278153751   -0.0557761231
 C   -1.8019348448   -3.6580437680   -1.4273039516
 C   -2.1313981395   -3.9327353408   -2.5491698695
 C    0.7732717488   -2.1030396615    0.1079043987
 C    1.1803829437   -0.7888399396    0.0991207751
 H    0.7689760949    1.8394022153   -0.4012682901
 H   -0.8712862991    1.8109462700   -0.3115049190
 H   -2.1313700945   -0.6404942766   -0.0711514848
 H   -0.8437523713   -4.1611006083    0.3781652758
 H   -2.3030634230   -3.2023806875    0.5641088862
 H   -2.4172479252   -4.1719315836   -3.5436304827
 H    1.3429020411   -3.0182356487    0.1455905804
 H    2.1989412121   -0.4369943905    0.1650809316