19

 C    0.0743075472    1.5942251685   -0.1181992607
 C    0.0092870112    0.0959702682    0.0546607965
 O    0.9502128516   -0.6361610820   -0.8250661308
 C    1.0684659558   -1.6650100602    0.2203607579
 C    2.2678504446   -2.3229712048    0.9450069111
 C    2.0497026316   -1.5211289981    2.2886160378
 C    2.0797940338   -0.0868869391    1.7533491792
 C    0.7319722235   -0.6061783983    1.2236494171
 O    0.5762043958   -1.3642261185    2.4688935845
 H    1.0814757118    1.9707390047    0.0766250335
 H   -0.2046082281    1.8687476013   -1.1399357713
 H   -0.6251377940    2.0820603298    0.5686074835
 H   -1.0082242658   -0.2867816320   -0.1043095624
 H    0.2589250314   -2.3887738318    0.0750039814
 H    2.1377442554   -3.4023577202    1.0407414805
 H    3.2589612871   -2.1206700031    0.5333869586
 H    2.5495948716   -1.8537115744    3.1972068791
 H    1.9297316301    0.6554391428    2.5381208856
 H    2.8582854655    0.2073222974    1.0473512091