21

 C   -0.1557324263    1.5581156558    0.0187023205
 C   -0.0276273593    0.0337455974   -0.0355307212
 C    0.8287205590   -0.4404390860   -1.2104114264
 N    0.9220388416   -1.8879773852   -1.2605180948
 C    1.7315679906   -2.6102069047   -0.2552713607
 C    2.1690922219   -3.5982273901   -1.3619782172
 C    1.6962211032   -2.4988658421   -2.3557638683
 C    0.9237819157   -2.8939779903   -3.5336404499
 N    0.3210290311   -3.2139332406   -4.4664518336
 H    0.8244009793    2.0377156592    0.1169246306
 H   -0.6259623941    1.9489313407   -0.8902956556
 H   -0.7663181485    1.8727273585    0.8699687432
 H    0.4113682810   -0.3313839587    0.9019487332
 H   -1.0167879498   -0.4306023085   -0.1162213257
 H    0.3788194239   -0.1047105155   -2.1534452915
 H    1.8332568074    0.0263554584   -1.1505812422
 H    2.5773094445   -2.0144275638    0.1260862857
 H    1.1667135768   -3.0079411306    0.5920373235
 H    3.2212836150   -3.8743547574   -1.4120608615
 H    1.5444893625   -4.4899835795   -1.4095245210
 H    2.5433581646   -1.8756893170   -2.6889220172