18

 C    0.1772920051    1.5802267804    0.2144341876
 C    0.0294862043    0.0541586529    0.0653879364
 O    0.6118782488   -0.6287038225    1.1635087377
 C   -1.4357367508   -0.3608098491   -0.1026832520
 O   -2.0859019500   -0.0212068381    1.1252874747
 C   -3.3821133644   -0.3781196270    1.2478771307
 N   -3.9998228298   -0.1269360830    2.3174505418
 C    0.8285625447   -0.3898863938   -1.1562079318
 O    0.3939949261   -0.3962535335   -2.2784055726
 H    1.2273911044    1.8385281493    0.3745195201
 H   -0.1835195301    2.0980769924   -0.6790611788
 H   -0.4025035331    1.9221040448    1.0759850550
 H    0.0458111929   -0.4637496191    1.9273469806
 H   -1.8925099574    0.1616636284   -0.9491904820
 H   -1.4961858032   -1.4418538233   -0.2743149285
 H   -3.7848860508   -0.8747978299    0.3552158891
 H   -4.9612527620   -0.4542112255    2.2514982707
 H    1.8692078353   -0.6952100535   -0.9138939887