16

 C    0.2519845092    1.4275249964    0.1418450926
 N    0.2414455452   -0.0264271573    0.1161202582
 C    0.3976232821   -0.6111530907   -0.9980743664
 O    0.5763680598    0.0740552700   -2.1760500014
 N    0.7442991793   -0.6105681090   -3.3960778173
 C    0.7233836101   -1.8960778298   -3.3476996763
 C    0.9004828112   -2.6324288353   -4.6391809603
 N    0.5508079540   -2.6972661503   -2.2067532676
 C    0.3982482794   -2.0630491256   -1.1036281877
 H    1.2048045790    1.8313275543   -0.2254684447
 H   -0.5370974624    1.8499340331   -0.4942774432
 H    0.0978722942    1.7680068771    1.1674755452
 H    1.0269436429   -1.9353767962   -5.4674942317
 H    1.7732697837   -3.2899876504   -4.5726869542
 H    0.0302407977   -3.2708393999   -4.8227162707
 H    0.2586124646   -2.6128102162   -0.1748280043