19

 C   -0.0807870623    1.5061273178   -0.0191918770
 C   -0.0185117188   -0.0071481231    0.0754244352
 O    0.0254893773   -0.5795151202    1.1396833288
 C    0.0005822949   -0.7694049438   -1.2568319334
 C    0.5944477584   -2.1759893763   -1.0934444224
 O    0.3873354994   -2.9560644542   -2.2583034693
 C   -0.9791525023   -3.2336814619   -2.4835944965
 C   -1.8541585865   -2.0195949456   -2.3394026707
 C   -1.4076398142   -0.8843111759   -1.8096118816
 H    0.8826045087    1.8810939259   -0.3859377764
 H   -0.8396920043    1.8346496410   -0.7366669440
 H   -0.2807249904    1.9342854636    0.9636815650
 H    0.6087182594   -0.1838011967   -1.9623566969
 H    1.6758383471   -2.1306842876   -0.9420147352
 H    0.1469021673   -2.6512866035   -0.2105428725
 H   -1.0469348591   -3.6336243566   -3.5023294801
 H   -1.3336463791   -4.0314421661   -1.8042298751
 H   -2.8766882508   -2.1057584025   -2.6972304473
 H   -2.0546347147   -0.0134518744   -1.7466840807