18

 C   -0.0645104846    1.4601290672    0.0497216862
 C   -0.0183014417   -0.0249721531   -0.0173061510
 C   -0.0247364291   -0.8926156203   -1.0332250608
 C    0.0435274830   -2.2682983156   -0.3567006035
 C   -0.9941051433   -2.0675631311    0.7980614365
 C    0.0547043269   -0.9695986576    1.2164449023
 C    1.1421013919   -1.9975520269    0.7251168545
 C    0.0807149604   -0.3866661595    2.5381976113
 N    0.1019397279    0.0788198653    3.5968295933
 H    0.8183954795    1.8653002647    0.5592093095
 H   -0.1131322881    1.8947490377   -0.9521368322
 H   -0.9349302103    1.8080196879    0.6194593451
 H   -0.0674608571   -0.6979389920   -2.0954126984
 H    0.0516189610   -3.1619957595   -0.9772639289
 H   -1.9911774413   -1.7136539285    0.5313380963
 H   -1.0411728266   -2.9001961562    1.5054019089
 H    1.2916112125   -2.8237264474    1.4257639572
 H    2.0933971391   -1.5797985149    0.3918513637