16

 C    0.0144332977   -1.1974997695   -0.0056739059
 C    0.0397832466    0.0027352031    0.0018678476
 C    0.0267646396    1.4579936860    0.0115596475
 O    1.3571406119    1.9489301074   -0.0006920858
 C    1.4610257276    3.3064676917    0.0061018360
 C    0.4626464694    4.2605473869    0.0242238942
 N    1.0927978479    5.4895378922    0.0238056536
 C    2.4487610939    5.3223748153    0.0059891302
 C    2.7164792637    3.9734910434   -0.0054383182
 H    0.0009674499   -2.2593112232   -0.0124399335
 H   -0.5220320500    1.8370185542   -0.8654285754
 H   -0.5014539560    1.8253428854    0.9059874690
 H   -0.6102387212    4.1829983677    0.0370915274
 H    0.6180038634    6.3737271876    0.0348958733
 H    3.1148051657    6.1699452314    0.0028020464
 H    3.6852979898    3.5013204103   -0.0202893364