20

 C   -0.2082042868    1.3110171055    0.0834033846
 O    0.0529397330   -0.0713744830    0.0315184473
 C    0.7317599842   -0.4934357811   -1.1441045890
 C    1.4309527134   -1.8183441549   -0.8066778402
 C    1.9745540540   -2.5078358345   -2.0528664905
 N    1.1766746607   -3.6377868028   -2.5778613280
 C    1.2269570455   -2.3542862046   -3.3257060480
 C   -0.0004532249   -1.5176064730   -3.3044121818
 C   -0.2215612143   -0.6579455108   -2.3107152327
 H    0.7209962724    1.9014533468    0.0390223149
 H   -0.8651401086    1.6510142025   -0.7315787994
 H   -0.7078903564    1.5101261336    1.0347857906
 H    1.4932290082    0.2643544531   -1.4035362020
 H    2.2279705178   -1.6331496180   -0.0803563184
 H    0.6919313125   -2.4678484645   -0.3298210067
 H    3.0560106700   -2.5951007563   -2.1197415441
 H    1.7955433946   -4.3098000291   -3.0278098033
 H    1.7923748968   -2.3519398768   -4.2557266624
 H   -0.7136488201   -1.6302756271   -4.1169781415
 H   -1.1206037520   -0.0480904948   -2.2945598194