20

 C    0.0285672819    1.5322087293   -0.1312680199
 C   -0.0007410878    0.0217785599    0.0063654613
 O    0.6863627457   -0.5294446688   -1.1289564866
 C    0.7570378863   -1.8711738957   -1.2019219132
 N    0.2720433051   -2.6302128344   -0.3117250143
 C    0.3911579041   -4.0702307841   -0.5281298613
 C    0.6721932271   -4.4395054654   -1.9815036880
 O    1.7632926376   -3.6754100247   -2.4760282935
 C    1.4672576148   -2.2986284786   -2.4697568551
 H    1.0574327651    1.9028028294   -0.1523591829
 H   -0.4698900501    1.8511191438   -1.0511741892
 H   -0.4861411970    1.9928115964    0.7172609055
 H    0.4942014374   -0.3171982751    0.9223982661
 H   -1.0230970160   -0.3704824623    0.0297755619
 H    1.1922230809   -4.4562857610    0.1162641076
 H   -0.5372746514   -4.5496483095   -0.1939904239
 H    0.9577643921   -5.4903685938   -2.0803350698
 H   -0.2249441200   -4.2657003355   -2.5992620410
 H    0.8448216805   -2.0133005329   -3.3358714671
 H    2.4138757037   -1.7569897370   -2.5563816266