19

 C   -0.1102377684    1.5651755912    0.0937260394
 C    0.0290058164    0.0509406525    0.0206319353
 O   -1.2828390495   -0.4154368158   -0.1467763834
 C    1.1435720313   -0.6060491847   -0.8419790935
 C    2.2041011680   -0.1223235299    0.2665709060
 C    0.9850024153   -0.7009688950    1.0557628118
 C    0.2647004150   -1.6717104551    2.0092421146
 O   -0.0704462553   -2.5105500597    0.8252836219
 C    1.0504373008   -1.8621320498    0.0983698949
 H    0.8323265777    2.1015665450    0.1998294808
 H   -0.6072450772    1.9185631377   -0.8147077824
 H   -0.7548130826    1.8245799079    0.9385959122
 H   -1.2733681655   -1.3713329844    0.0187591059
 H    1.2846439043   -0.5491534077   -1.9259414616
 H    3.1174469673   -0.7166419543    0.3237269065
 H    2.4291918443    0.9422022748    0.3016586233
 H    0.8918924343   -2.2377565606    2.7052585853
 H   -0.6409907996   -1.3070063835    2.5005433991
 H    1.9047766934   -2.5436658287    0.0921016539