15

 O   -0.0471214123    1.4248101919   -0.0629326891
 C    0.0140523511    0.0299396766   -0.0024770803
 C   -0.0191675241   -0.6650692943    1.4159252150
 C   -1.5009031070   -0.1574064279    1.5128072241
 C   -1.3965665805   -0.6615436363    0.0143652712
 C   -2.3954909376   -0.6528707075   -1.0018148965
 C   -3.2366238229   -0.6628238686   -1.8613543187
 C   -0.6258793156   -1.8460361057    0.6643056138
 O   -0.5833793143   -3.0331818057    0.6172223188
 H    0.8379190594    1.7733656501    0.0834437555
 H    0.7326848714   -0.3784659205   -0.7217454343
 H    0.7456193254   -0.6561060371    2.1877029770
 H   -2.1789422285   -0.7044729979    2.1674491146
 H   -1.6024504938    0.9212337216    1.5996157555
 H   -3.9797064307   -0.6731327988   -2.6199247166