19

 C   -0.0030191006    1.5282955642   -0.0827213499
 C   -0.0005771297    0.0119141301   -0.0348218264
 O    0.6720695346   -0.4700387702   -1.1930282269
 C    0.7587405493   -1.8153685547   -1.2981362325
 C    0.3053551598   -2.8021947452   -0.4724181389
 O    0.6326402381   -4.0211878264   -1.0019664021
 C    1.2927240073   -3.7838002343   -2.1630242214
 C    1.4093391553   -2.4531798029   -2.4125287722
 C    2.0587878667   -1.7662390409   -3.5704547154
 H    1.0197370315    1.9149359761   -0.0974819322
 H   -0.5190579150    1.8846297460   -0.9785274441
 H   -0.5141849829    1.9318372494    0.7961769854
 H    0.5143230768   -0.3561709451    0.8650741308
 H   -1.0259334817   -0.3865108204   -0.0168297349
 H   -0.2285499765   -2.8173288321    0.4605367886
 H    1.6201194377   -4.6566615932   -2.7047957385
 H    1.3443099152   -1.1381469888   -4.1139896577
 H    2.8707897158   -1.1088363703   -3.2404676942
 H    2.4753659983   -2.4919695711   -4.2740544574