16

 O   -0.0589430876    0.0131206358    0.3018028398
 C   -0.0288654258    1.1881426423    0.0855149766
 O   -1.1563709999    1.9396084312   -0.1247935774
 C   -0.8673845255    3.3481475366   -0.0926053758
 C    0.6701827405    3.4322096948   -0.0324479062
 C    1.4520101199    3.7004185078    1.2646901435
 C    1.0660499236    2.7258453217    2.3515779400
 C    1.9155178229    2.2475675642    1.2133063670
 N    1.1007704097    2.0164113449   -0.0019396918
 H   -1.2782003275    3.8012922126   -0.9979884799
 H   -1.3572632229    3.7908115065    0.7810357597
 H    1.0915161449    3.9689287934   -0.8866550106
 H    2.0385364148    4.5882566894    1.4566226445
 H    1.5977359327    2.8690539545    3.2866722174
 H    0.0453404182    2.3722899198    2.4705315761
 H    2.8987389422    1.8081780445    1.3097876471