15

 C    0.1503175493    1.5208067537    0.0159239799
 C    0.0867552541    0.0675471925    0.0144753867
 C    0.0242220175   -1.1347081372    0.0268720574
 C   -0.0297034405   -2.5676868183    0.0013890377
 N   -0.4924659888   -3.2708420487    1.2145199895
 C   -1.3319319622   -3.3348722364    0.0022361449
 C   -2.6099768056   -2.6834682812    0.0332970953
 C   -3.6911503927   -2.1590817346    0.0208256172
 H    1.1858873849    1.8746946951   -0.0360617323
 H   -0.3896313841    1.9438601081   -0.8383968573
 H   -0.2961608248    1.9320358034    0.9278401183
 H    0.7664293315   -3.0437794440   -0.5690526353
 H    0.0183095280   -4.1447426227    1.3174349716
 H   -1.3137845610   -4.2620367829   -0.5679177584
 H   -4.6421570556   -1.6870098467    0.0229092747