18

 C   -0.1796952747    1.5952793836   -0.1476038693
 C   -0.0088638643    0.1045336001    0.0505656551
 N    1.1660234524   -0.5598242978   -0.7080058439
 C    2.1300609200   -0.1427057855    0.4332044323
 C    2.5439245972   -1.5371478235    0.8865486511
 O    2.4247733856   -1.5590657211    2.3325878538
 C    1.2078376397   -0.8167408270    2.6405656051
 C    0.8228450137   -0.4709717968    1.2157242366
 C    1.1389206536   -1.7089595705    0.3260376932
 H    0.7416968223    2.1464461835    0.0605276595
 H   -0.4745139215    1.8030599808   -1.1810370356
 H   -0.9634425977    1.9833603606    0.5115081905
 H   -0.9470745783   -0.4270322997   -0.1492783593
 H    2.6885174143    0.7915925944    0.4127791059
 H    3.4402433127   -2.0846677089    0.6009396346
 H    0.5005738260   -1.4698324796    3.1626960428
 H    1.4530305778    0.0417273472    3.2745391165
 H    0.5169614212   -2.5926178499    0.1825873611