16

 C    0.1385004032    1.6348973932   -0.0214299962
 C    0.0599441476    0.1086133268   -0.0178139237
 C    0.7224368003   -0.5883231706   -1.1997434976
 N    2.1784781056   -0.4801609837   -1.1397555155
 C    1.5251531469   -1.7688231843   -0.7497213317
 C    1.4392504075   -1.8518761414    0.7398314652
 O    1.7635236420   -2.7522470909    1.4647292100
 C    0.7384096716   -0.5303166136    1.2011262577
 O    0.7194723702   -0.1286966115    2.3311198602
 H    1.1736468714    1.9566006090   -0.1631482823
 H   -0.4721537243    2.0602657650   -0.8231958429
 H   -0.2164782008    2.0276136462    0.9346186364
 H   -0.9927646602   -0.2103553226    0.0293730538
 H    0.2271452858   -0.6077842131   -2.1652433607
 H    2.5917951825   -0.5989928602   -2.0614802198
 H    1.6742520307   -2.6571683982   -1.3507987931