22

 C   -0.1385409635    1.5334299568    0.0010575930
 C    0.0627618460    0.0196824354    0.0126047330
 C    1.0497546553   -0.5731311668   -1.0262993350
 C    2.4179958420   -0.0478845810   -0.5315310752
 C    2.2584366404   -0.0572286977    1.0229635589
 C    0.8188823640   -0.5866930315    1.2231805279
 C    0.8059909197   -2.0895473624    0.8630900690
 C    0.9657643410   -2.0801470049   -0.6943056387
 H    0.7991464687    2.0879070940    0.1003839894
 H   -0.6119318570    1.8554530450   -0.9330579995
 H   -0.7918061833    1.8449502547    0.8235964795
 H   -0.9205202396   -0.4572725078   -0.0911941578
 H    0.8388421406   -0.3393567092   -2.0727957877
 H    3.2403477782   -0.6828017494   -0.8746055195
 H    2.6183668073    0.9601828861   -0.9057906994
 H    2.9947635752   -0.6971264886    1.5183772551
 H    2.3772907709    0.9460881542    1.4420719320
 H    0.3995011839   -0.3651818444    2.2077310063
 H    1.6068160848   -2.6395437519    1.3666225392
 H   -0.1397702446   -2.5538046890    1.1592852163
 H    0.1003419179   -2.5395704279   -1.1818642651
 H    1.8527421622   -2.6251778137   -1.0313038916