12

 C    0.1035031696    1.5359763386    0.0270839185
 C   -0.0278817283    0.0590967376   -0.0297228811
 C   -1.0959466908   -0.7868135712    0.0570982559
 N   -2.4499310134   -0.5071481761    0.2659657961
 N   -0.6015907940   -2.0667028653   -0.0371504241
 N    0.6549763895   -2.0486013753   -0.1705561249
 O    1.0687830976   -0.6963385448   -0.1936639525
 H    0.9308676191    1.8268000928    0.6809367130
 H    0.2960420376    1.9666443076   -0.9622405759
 H   -0.8210015634    1.9685132172    0.4174456159
 H   -2.8728507662    0.0026592693   -0.5006687632
 H   -2.9672977671   -1.3658850705    0.4107522322