19

 O   -0.0197857856    1.2950997244   -0.4662549983
 C   -0.0183128017   -0.0170744660    0.0886114810
 C   -1.4252243459   -0.5331689509    0.0725075195
 C   -2.0043269247   -1.1340281516   -1.1976029755
 C   -1.7463042241   -2.0055830731    0.0014323229
 O   -0.7261718204   -2.9552692060    0.0047323806
 C   -2.9222678812   -2.2096050451    0.9476052079
 O   -3.4961155910   -0.9221083747    1.1204573968
 C   -2.4520699614    0.0493942762    1.0285573193
 H    0.8748748207    1.6434627949   -0.4056117451
 H    0.6266165465   -0.7001334805   -0.4827084637
 H    0.3562413536   -0.0030901199    1.1252225512
 H   -3.0293180573   -0.9008518721   -1.4683611114
 H   -1.3126778914   -1.2342739462   -2.0271975550
 H   -0.9509299741   -3.6399013749   -0.6340159208
 H   -3.7076573988   -2.8693755740    0.5622501986
 H   -2.5424158601   -2.6293819460    1.8935871073
 H   -1.9851450292    0.2265372723    2.0119186908
 H   -2.9057231040    0.9839091432    0.6871437340