20

 C    0.1683837527    1.5537311863   -0.1454439829
 C    0.0551035898    0.0469173781    0.1023843126
 C   -1.3956109345   -0.4858159276    0.0418932633
 C   -2.2691549357    0.0596357988    1.2039210762
 O   -1.7358935918   -0.2416092193    2.4720333602
 O   -2.0979393193   -0.1164482180   -1.1288611860
 C   -1.5998448643   -0.6188322209   -2.3592727421
 C   -1.3615221146   -1.9662815082    0.1882814364
 N   -1.3502241427   -3.1126258300    0.3396468876
 H    1.2216521000    1.8451991793   -0.1852575565
 H   -0.3008062415    1.8431688090   -1.0895949184
 H   -0.3002869876    2.1340913389    0.6540212262
 H    0.6647241505   -0.5006038097   -0.6236552099
 H    0.4449076659   -0.2069930814    1.0924281128
 H   -2.3047940619    1.1476353432    1.1181841326
 H   -3.2881529723   -0.3236606602    1.0676514919
 H   -1.8423156085   -1.1869459311    2.6280056569
 H   -0.6147571731   -0.2043775003   -2.6081694411
 H   -1.5350965506   -1.7145825960   -2.3507328598
 H   -2.3150876307   -0.3106257909   -3.1242493299