12

 O   -0.0538130960    1.3553766004    0.0099240771
 C    1.2579029305    1.7760700985   -0.0005479090
 C    2.1486621116    0.7381946714   -0.0146439102
 C    1.3137754663   -0.4136371946   -0.0127679699
 C    0.0126251748    0.0024835291    0.0020282300
 C   -0.8222611854   -1.1493485516    0.0039321370
 C    0.0684971681   -2.1872235001   -0.0102514128
 O    1.3802138187   -1.7665303459   -0.0206555631
 H    1.3929875911    2.8446726923    0.0038342864
 H    3.2229979737    0.8186707195   -0.0245758016
 H   -1.8965968054   -1.2298247277    0.0138876253
 H   -0.0665880581   -3.2558258614   -0.0146756391