20

 C   -0.2449380862    1.5032597986   -0.0054146477
 N    0.0988429194    0.0989734866    0.0127664424
 C    1.0033940544   -0.4853636151   -0.9894019854
 C    2.4114335981    0.1818490124   -1.1041807791
 C    2.8268074974   -0.5159165716    0.2159974893
 O    4.1061745849   -1.0702700392    0.3098208508
 C    2.2166696520    0.1674344406    1.4662615082
 C    0.8425786606   -0.4972609280    1.1332235114
 C    1.5624931311   -1.4387298202    0.1150511606
 H    0.6151033349    2.1916963212    0.0635750490
 H   -0.7820097498    1.7326950522   -0.9326150049
 H   -0.9157073265    1.7228121927    0.8328273966
 H    0.5188818104   -0.7909786623   -1.9199887479
 H    2.9640652560   -0.2643568264   -1.9371873359
 H    2.4741194108    1.2731168466   -1.1691073970
 H    4.7439721666   -0.3490408579    0.3587820892
 H    2.6379569660   -0.2885441155    2.3679183948
 H    2.2679390645    1.2578522590    1.5521494486
 H    0.2236239360   -0.8128539748    1.9766913684
 H    1.5533542094   -2.5237241292    0.1082679685