19

 C    0.0584250644    1.5044527031    0.1963612858
 C    0.1061596448   -0.0127025474    0.0175215818
 C    0.5852544042   -0.4497324765   -1.3894641936
 C    1.9637982984   -0.0396228058   -1.6487617821
 N    3.0673870767    0.2422501273   -1.8521576221
 C    0.3419266094   -1.9711293322   -1.5877293919
 O   -0.7685061594   -2.4200010568   -1.3723830564
 N    1.4006228891   -2.7051497459   -2.0023448542
 C    1.3093058260   -4.1350292948   -2.2354673650
 H    1.0466070125    1.9578297566    0.0686060178
 H   -0.6205315587    1.9674028747   -0.5280897524
 H   -0.2990813191    1.7592250903    1.1980432610
 H    0.7635187719   -0.4645785714    0.7686187638
 H   -0.8839175347   -0.4561263556    0.1467655829
 H   -0.0533726772    0.0420906339   -2.1345560605
 H    2.2854911120   -2.2437547497   -2.1456556137
 H    0.2786893150   -4.4349501193   -2.0450856436
 H    1.5718531149   -4.3804314733   -3.2696605057
 H    1.9745611098   -4.6870244771   -1.5631095619