20

 C    0.0227526281    1.5430407853   -0.0145047428
 C   -0.0194221601    0.0101623948   -0.0262179880
 C   -1.4801474387   -0.4733512817    0.0948647018
 C    0.6225084785   -0.5284761459   -1.3231806468
 C    1.0341473068   -1.9707039425   -1.2130461390
 C    1.3139702506   -2.5319930855   -0.0359673692
 C    1.2538632638   -1.7615496377    1.2318915923
 O    1.6395861383   -2.2150672222    2.2967310794
 N    0.7784607843   -0.4762838785    1.1092452882
 H    1.0542891336    1.9037631674   -0.0556013571
 H   -0.5240486720    1.9493808616   -0.8707869106
 H   -0.4436534619    1.9393079303    0.8945006024
 H   -2.0956288505   -0.0667747329   -0.7147679750
 H   -1.5366626956   -1.5644209351    0.0558195942
 H   -1.9120955641   -0.1451791659    1.0455854740
 H   -0.0792408781   -0.3924382734   -2.1533340239
 H    1.5096938859    0.0712931110   -1.5739501007
 H    1.1346357897   -2.5395204651   -2.1341207266
 H    1.6411411301   -3.5598873093    0.0666046611
 H    0.6401278413   -0.0162595345    1.9993325663