20

 C    0.6154909187    1.4164443759    0.0728567838
 C    1.1624377858    0.1489392065   -0.5776323241
 C    0.1134600225   -0.6205920978   -1.3536779297
 O   -1.0313455834   -0.2477044595   -1.4674926182
 C    0.5251488734   -1.9562333128   -2.0027720558
 C   -0.0180163181   -2.0852292620   -3.4230663993
 O    1.9497410512   -2.0702101868   -1.9825177740
 C    2.4775788850   -3.2963146591   -1.7911495405
 N    3.7255131712   -3.4634263578   -1.8563428480
 H    0.2028258610    2.0946645988   -0.6783200328
 H   -0.1895201321    1.1827250594    0.7745415745
 H    1.4071022127    1.9402287559    0.6152735194
 H    1.9907391411    0.3642083961   -1.2644405295
 H    1.6038317535   -0.5323849963    0.1620563153
 H    0.0905324477   -2.7425709408   -1.3658540223
 H    0.1624059713   -3.0897499269   -3.8154783401
 H   -1.0908780944   -1.8849111794   -3.4191637900
 H    0.4741898684   -1.3634625106   -4.0809164810
 H    1.7228101268   -4.0659368912   -1.5739922084
 H    3.9573632478   -4.4363999616   -1.6684356391