16

 C   -0.1687154686    1.3431039288   -0.2471584507
 C    1.2136870621    1.0390678407    0.2436033619
 C    0.2207774510   -0.0984228583    0.0469157907
 C   -0.3343679014   -0.7749217973    1.1805184650
 C   -0.8071534756   -1.3431853767    2.1340856381
 C   -1.3481080462   -2.0519052321    3.2595466191
 C   -1.8877484175   -1.3501172544    4.4414958288
 O   -2.7651697692   -1.9552742315    3.5026500551
 H   -0.8631816685    1.8129264518    0.4386391132
 H   -0.3039626982    1.6137453163   -1.2880743974
 H    2.0394883407    1.0984561630   -0.4562036681
 H    1.4630248544    1.3020211059    1.2644782848
 H    0.3911600792   -0.7264063547   -0.8227680801
 H   -0.9523998400   -3.0555038573    3.4137987782
 H   -1.8296255695   -1.8314881565    5.4173141922
 H   -1.8866977727   -0.2616408478    4.4516706492