19

 C    0.2860081606    1.3179592873   -0.2856618521
 O    0.1058710527   -0.0599994117    0.0042158015
 C   -1.2128561231   -0.4403556247    0.0218436590
 C   -1.7752900782   -1.8122473528    0.0365727051
 C   -2.3086240275   -1.6508132312    1.5095668276
 C   -2.2658584266   -0.1600998229    1.1273672510
 C   -3.3919243099    0.3654185596    0.6044449989
 C   -3.3528583940    0.2637900845   -0.9199744627
 C   -2.1714947241   -0.7095779519   -1.0753916313
 H    1.3587990517    1.5159234306   -0.2355265864
 H   -0.0791011419    1.5673250147   -1.2917985068
 H   -0.2329187321    1.9518680443    0.4456014534
 H   -1.2874513035   -2.7088391740   -0.3384755366
 H   -3.2868573986   -2.0569427229    1.7817430715
 H   -1.5414347166   -2.0091082268    2.2045473021
 H   -4.3484544850    0.3082571738    1.1185072600
 H   -4.3191981576   -0.1398215018   -1.2472988836
 H   -3.1838930082    1.1819706764   -1.5014291568
 H   -1.8072473381   -0.9938801406   -2.0609304039