22

 C   -0.5821249374    1.2387056711   -0.0958628249
 C    0.0287681629   -0.1539008521   -0.1606184077
 C    1.3474984338   -0.3367363204   -0.9764981815
 O    2.0110065142    0.9075105930   -1.0979178405
 C    1.9133510028   -1.2420209471    0.1561523481
 C    0.7720533288   -0.7567449105    1.0537920990
 C    0.8484159685   -0.1993048141    2.4274235574
 N    0.2472968436   -1.5106629271    2.1761649219
 C   -1.1975128860   -1.6141953938    2.3183206478
 H    0.1529764937    1.9716915444    0.2424502126
 H   -0.9364846102    1.5524893708   -1.0835987666
 H   -1.4379202174    1.2633472671    0.5868685671
 H   -0.7142303746   -0.8738415866   -0.5257488232
 H    1.2304103201   -0.8145314608   -1.9581375315
 H    2.9041343083    0.7356778918   -1.4120351260
 H    1.8403384266   -2.3109993660   -0.0657890720
 H    2.9327427168   -1.0092904422    0.4769821827
 H    1.7870849827   -0.2027199839    2.9771304423
 H    0.1830558837    0.6289759782    2.6704981483
 H   -1.7449975693   -0.7022390752    2.0304818128
 H   -1.5655033587   -2.4415466435    1.7022196587
 H   -1.4389442931   -1.8389741330    3.3621622052