15

 N    0.0083800502   -1.1661421619   -0.1983202863
 C    0.0165459891   -0.0171007789   -0.0701897053
 C    0.0478264819    1.4299541882    0.0530358826
 C   -0.5523288375    2.2985082969   -1.0818801428
 C    0.7011892674    3.2258759123   -1.0181003410
 C    1.3440893260    2.3104440054    0.0598036659
 C    0.9348532479    2.6320678696    1.5038996627
 O   -0.3114046511    1.8977785371    1.3671200857
 H   -0.6487701136    1.7612380501   -2.0276537105
 H   -1.5142513313    2.7386424502   -0.8142763398
 H    1.2629676734    3.2596417128   -1.9528481557
 H    0.5167845613    4.2514906195   -0.6896435637
 H    2.3429281076    1.9194207142   -0.1212057888
 H    1.5724237511    2.1800759762    2.2725829808
 H    0.7652677275    3.6877533483    1.7437083561