16

 O   -0.0063287331   -0.0758171755    0.0139783712
 C   -0.0125751870    1.1396374236   -0.0046594629
 N   -1.1541314581    1.9144599788   -0.0045379703
 C   -1.0991992460    3.3449664771    0.0824905287
 C   -0.0536382075    4.0691568771   -0.8186789632
 N   -0.1164213762    5.2097977877    0.1662722458
 C   -0.0257699060    3.9748559588    1.0264854645
 C    1.0341508426    3.3568800466    0.0506589743
 N    1.1219432121    1.9257083514   -0.0419814793
 H   -2.0239775145    1.4201869760    0.0921388920
 H   -2.0903911634    3.7941809888    0.1183908092
 H   -0.0781286678    4.2163827718   -1.8988349227
 H    0.7866526937    5.6939267809    0.1768304272
 H   -0.0179607197    4.0115927368    2.1164365534
 H    2.0258395119    3.8147876512    0.0569046127
 H    1.9992425391    1.4416499190    0.0426267195