15

 O   -0.0476445807    1.3033157405   -0.6842681101
 C    0.0728738506    0.1674348384    0.1510493204
 C   -1.2672574927   -0.5014033049    0.3394486520
 O   -1.7598308355   -1.2454095950   -0.7914598092
 C   -1.5019544562   -1.9519158380    0.4162940568
 C   -0.3937091490   -2.9952151571    0.3920672201
 C   -0.8674476054   -4.2793979450   -0.1257048794
 N   -1.2516063245   -5.2925577060   -0.5257087562
 H   -0.4063306310    0.9996941037   -1.5260602270
 H    0.8121943315   -0.5436007456   -0.2432504792
 H    0.4410658740    0.5332863063    1.1158852404
 H   -2.0198675790    0.1462988277    0.7918490172
 H   -2.3998282003   -2.2850264275    0.9382604802
 H    0.4416436416   -2.6549796857   -0.2245126066
 H   -0.0132902335   -3.1502430218    1.4089443707