19

 O    0.0919862852    1.4001484699    0.0915603532
 C    0.0948039956   -0.0078373861    0.0883242456
 C    0.1207411209   -0.6479965739    1.5005431049
 C   -1.3947258771   -0.2895028531    1.6025273866
 C   -1.3512648457   -0.6099674598    0.0878017805
 O   -2.3195827185   -0.1154741173   -0.7813484542
 C   -1.0761703233   -2.1133639007    0.0736819093
 O   -0.7130320224   -2.4715374318   -1.2546582726
 C    0.0734644172   -2.1490475730    1.1362209175
 H   -0.5936349264    1.6736316160   -0.5310563273
 H    0.8053573500   -0.4031427721   -0.6480706796
 H    0.8374106054   -0.3264621569    2.2538422508
 H   -2.0351737592   -0.9070888943    2.2386490152
 H   -1.5579198796    0.7693853504    1.7912518031
 H   -2.2339562842   -0.6218076593   -1.6002059262
 H   -1.9598823608   -2.6842497239    0.3888371459
 H   -0.6485966777   -3.4291402115   -1.3113240517
 H    1.0040315790   -2.5057391162    0.6840194048
 H   -0.1649131184   -2.7828964664    1.9946514343