20

 C   -0.3766019303    1.0382037553   -0.4179678973
 C    1.0144302483    1.0594974190    0.1147230797
 N    0.2233844889   -0.1666039574    0.1324654249
 C   -0.2298880280   -0.6835860936    1.4002041612
 C   -0.7812444339    0.1823065517    2.5984807398
 C   -1.9752056792   -0.8071982862    2.7341223903
 C   -3.2098598650   -0.3726347347    1.9373426513
 O   -2.6302401497   -0.8527154982    0.7008855934
 C   -1.5413205132   -1.4928391540    1.4035070695
 H   -1.1410833695    1.5555232904    0.1541707210
 H   -0.5585235771    1.0151099411   -1.4885133621
 H    1.8701636885    1.0605565111   -0.5549167802
 H    1.1745209181    1.5810037217    1.0572961332
 H    0.5662722368   -1.3317826852    1.7873434169
 H   -0.1108626651    0.2307782706    3.4586053910
 H   -1.0950540963    1.2002328673    2.3514989559
 H   -2.1090745535   -1.3209281746    3.6841148049
 H   -4.1291002468   -0.9219176279    2.1823011526
 H   -3.4319926721    0.7017790754    1.9073792025
 H   -1.5008603008   -2.5669512918    1.2030206816