15

 C    0.0016178570    1.4757370273    0.0488733459
 N   -0.0742306585    0.0313415440   -0.1303197292
 C   -1.1923199801   -0.7270570084   -0.0466483952
 C   -1.3270367721   -2.0739054810    0.0535704176
 C   -2.7345693459   -2.4025030259    0.0541925138
 N   -3.2910206836   -3.5332309360    0.1347960224
 O   -3.4613903859   -1.2004356361   -0.0482899695
 C   -2.5835508110   -0.1556553959   -0.1196467663
 O   -2.9433170492    0.9829487658   -0.2239307808
 H    0.8839589831    1.8468564531   -0.4783629044
 H   -0.8884208734    1.9439202191   -0.3654243469
 H    0.0827191155    1.7591830313    1.1070274059
 H    0.7915905471   -0.4708492612   -0.0077805738
 H   -0.5552798453   -2.8248462286    0.1243875945
 H   -4.3070065577   -3.4394152275    0.1141509960