19

 C    0.0244464613    1.5735879789    0.0790611960
 C   -0.0223684085    0.0409541942    0.0302544648
 O    0.7278142800   -0.5265332550    1.1063824191
 C   -1.4264171386   -0.4975226139   -0.0055690758
 C   -1.9686638243   -1.2943677824   -0.9334693321
 C   -3.4096883752   -1.6540816752   -0.6371780535
 C   -3.6548060259   -0.9889338893    0.7120083928
 O   -2.8256434250   -1.4717428199    1.7697570274
 C   -2.4319831132   -0.2578006538    1.0854634898
 H    1.0648324855    1.9082897850    0.1061217846
 H   -0.4662803553    2.0113464667   -0.7961532649
 H   -0.4757999608    1.9574956053    0.9755200179
 H    0.4976783736   -0.2961053260   -0.8733207805
 H    0.2229003939   -0.4112797401    1.9188456840
 H   -1.4372117445   -1.6870967005   -1.7939603206
 H   -4.0967921154   -1.2657205752   -1.4002245000
 H   -3.5662882802   -2.7385174601   -0.5895555488
 H   -4.6518016347   -0.6742468920    1.0083354155
 H   -2.4303389127    0.6353791033    1.7041341541