20

 C   -0.1311364481    1.5148336495    0.1768902588
 C   -0.0075212107    0.0104899971    0.0957648196
 O   -1.2130421219   -0.6470895802   -0.2078068785
 C    1.2739317693   -0.6216488009   -0.4070122322
 C    0.8727230660   -0.7501786951    1.0425900482
 C    1.5657613426   -0.2027491885    2.2994226985
 C    0.8645973090   -1.3264688403    3.1195446224
 C    0.4431358877   -2.0197217415    1.7896809839
 H    0.8185458748    1.9805015001    0.4537690390
 H   -0.4328180766    1.9315204490   -0.7922778391
 H   -0.8870658828    1.8015337496    0.9156907806
 H   -1.4322073834   -0.4535023992   -1.1258896245
 H    1.1792990492   -1.5086001599   -1.0265223562
 H    2.1085748355    0.0266710303   -0.6597505374
 H    2.6538292321   -0.3192026059    2.2640600396
 H    1.3395955997    0.8283836085    2.5849983512
 H    1.5002217697   -1.9046516704    3.7935752124
 H    0.0071250280   -0.9553881519    3.6862884192
 H   -0.6063553051   -2.3006584102    1.6858879293
 H    1.0652356848   -2.8868546103    1.5461718155