16

 O   -0.3565254159   -0.0055315601   -0.6169632076
 C   -0.1522770163    1.1440972755   -0.2854325477
 N   -0.9487219678    1.9747207907    0.4980486096
 C   -0.3657795745    3.2261988813    0.6640303797
 C    0.8120714878    3.2245429727   -0.0017296254
 N    0.9334209332    1.9580775772   -0.5864779349
 C    1.8348129543    4.2669832309   -0.1762144617
 C    1.9993077298    5.3345331202    0.8398147418
 N    3.0375773749    4.3028858583    0.6994066050
 H   -1.8273891586    1.6644435506    0.8725155210
 H   -0.8460283670    4.0174399250    1.2128474993
 H    1.7188765833    1.6216215961   -1.1156801285
 H    2.0781316307    4.5090780772   -1.2095025308
 H    2.2935912489    6.3307662682    0.5238292961
 H    1.3570196135    5.3079500440    1.7154342427
 H    2.9193303238    3.6155847422    1.4414337016