19

 C    0.0819942551    1.5062761344    0.5103763717
 C    0.0334314468    0.0728200657    0.0149698222
 C    1.0945196196   -0.3789200068   -0.9637077606
 C    1.1201946825   -0.8749432687    0.4633791226
 C   -1.3740384677   -0.4704720675   -0.1258896607
 C   -2.2375467150   -0.0224985619   -1.3265322074
 O   -2.3562066169   -1.4144581370   -1.7708759697
 C   -1.5650543159   -1.8610886850   -0.7459155059
 O   -1.2134289571   -2.9778849556   -0.5328140746
 H    1.1152494694    1.8550428076    0.5978853114
 H   -0.4396795383    2.1872245616   -0.1731393535
 H   -0.3872022412    1.6009997370    1.4969248919
 H    0.8289011992   -1.0912485821   -1.7376378564
 H    1.8360110176    0.3507532927   -1.2706173332
 H    1.8817591970   -0.4843145688    1.1298908470
 H    0.8528504237   -1.9115972005    0.6325545764
 H   -1.9070773422   -0.3953805054    0.8284788546
 H   -3.2209943726    0.3954330550   -1.1047193782
 H   -1.7200408942    0.5748846551   -2.0799618078