17

 N    0.8579997899   -0.5672345003   -0.0196257511
 C   -0.2519139772   -0.0130201584    0.5169524807
 O   -0.2194788844    0.8738773556    1.3545555460
 C   -1.6063824138   -0.5632413512    0.0154275117
 C   -1.4946634306   -1.5544442008   -1.0509600695
 C   -1.4045045804   -2.3831638900   -1.9183351627
 C   -2.4710985154   -1.1186116966    1.1652382493
 C   -1.8782638013   -1.6946663569    2.3952737112
 N   -2.6039102144   -0.4125391071    2.4350466765
 H    1.7559964608   -0.2167882643    0.2705784777
 H    0.7957756915   -1.2799925624   -0.7271400746
 H   -2.1283171765    0.3187863011   -0.3817188592
 H   -1.3428800165   -3.1108089396   -2.6899841022
 H   -3.4003312399   -1.5413878174    0.7899509532
 H   -2.3688151032   -2.5246290680    2.8961271092
 H   -0.7965368415   -1.6782098050    2.5020907589
 H   -1.9243164473    0.3479287615    2.4575625350