21

 C   -0.1750311469    1.5429747598    0.0503274855
 C   -0.0320966446    0.0238779845    0.0000739154
 C    1.1812397634   -0.4721827576   -0.8492571300
 C    2.0000102005   -0.6459617946    0.4618263454
 C    0.6631136138   -0.6125220934    1.2306433116
 O    0.5894271922    0.1710720349    2.4259757317
 C    1.0489146136   -0.4144434569    3.5539443152
 C    0.8995214662    0.5148320071    4.7349524210
 O    1.5094821962   -1.5274812107    3.5913819468
 H    0.7749817564    2.0325858409    0.2872855759
 H   -0.5146268441    1.9211788967   -0.9195449604
 H   -0.9003672000    1.8483105280    0.8098999054
 H   -0.9967857433   -0.4258098561   -0.2530192788
 H    0.9835174250   -1.4247407075   -1.3467646544
 H    1.5726904804    0.2315340476   -1.5876200385
 H    2.6178838694   -1.5370401647    0.5790376842
 H    2.6035658605    0.2374507261    0.6859484739
 H    0.2995786035   -1.6188863639    1.4486922822
 H   -0.1530314168    0.7771246601    4.8751304338
 H    1.2842746262    0.0286616326    5.6305366152
 H    1.4436879086    1.4455961972    4.5513756891