21

 C   -0.0130060763    1.4851681151    0.3034524087
 C   -0.0382037675   -0.0063572382    0.0325920624
 C    0.9472983594   -0.5965806986   -0.9485799273
 C    1.0991751681   -0.8677666063    0.5292162726
 C   -1.4008845695   -0.6095284419    0.0619872305
 C   -2.3950750852   -0.7789460993    1.2504382410
 C   -2.9090447391   -1.5838820709    0.0383231589
 C   -2.6150312681   -0.3865193707   -0.8896710131
 O   -1.5294167015   -2.0736567033   -0.1932845182
 H    1.0124082057    1.8647394830    0.2696155110
 H   -0.5979485240    2.0370803894   -0.4412796932
 H   -0.4230361439    1.7192472309    1.2926304565
 H    0.6042934738   -1.4154400625   -1.5700057122
 H    1.6483773804    0.0798608558   -1.4259959340
 H    1.9044844813   -0.3774744372    1.0659632683
 H    0.8557934252   -1.8646030835    0.8776947159
 H   -2.0214982727   -1.3775500764    2.0820976558
 H   -2.9700025597    0.0932062025    1.5720692531
 H   -3.7107186220   -2.3198244747   -0.0142222294
 H   -3.2101501376    0.5216780766   -0.7645841572
 H   -2.4343393867   -0.6409927499   -1.9347249201