23

 O    0.0345075774    1.4319990426    0.3007140638
 C    0.0101903714    0.0178914549    0.4323151163
 C   -1.2224295221   -0.5012193750   -0.2998875188
 C   -1.3482265199   -2.0081096194   -0.2394474425
 C   -1.9803634866   -2.6832028915    0.9625843794
 C   -2.6847791732   -2.6776246583   -0.3654521109
 C   -4.0581811819   -2.0462821807   -0.6464806328
 C   -4.5352822687   -3.4329692901   -1.1721155950
 C   -3.0569885352   -3.9233205317   -1.1831954126
 H    0.8070004189    1.7638321327    0.7670468704
 H    0.9167637621   -0.4380886797    0.0007639068
 H   -0.0336785609   -0.2865337517    1.4901257791
 H   -2.1099888980   -0.0299750249    0.1384245663
 H   -1.1731918344   -0.1618925667   -1.3423957874
 H   -0.5175271884   -2.5478045534   -0.6926764513
 H   -1.5540309650   -3.6162599156    1.3187271720
 H   -2.3764587201   -2.0454418710    1.7485882323
 H   -4.5992150011   -1.6315897766    0.2084363272
 H   -4.0237173252   -1.2861000539   -1.4339344586
 H   -5.1437807311   -3.9671617085   -0.4383954394
 H   -5.0618609876   -3.4397546963   -2.1288046639
 H   -2.6180495668   -3.9184932539   -2.1865825647
 H   -2.8560308236   -4.8950991313   -0.7231256256