16

 C   -0.0711194896    1.5212755067   -0.0691080476
 C   -0.0394396009    0.0233178503    0.0783422103
 O    1.2529351847   -0.6146250446   -0.0466749150
 C    0.6008429122   -0.6467706521    1.2082362151
 C    1.2845399943   -0.1200698823    2.4968129670
 C    0.8961701468   -1.4580035050    3.1537915769
 O   -0.5274467781   -1.5748092737    3.0598535743
 C    0.2604956378   -1.9511466330    1.9188303676
 H    0.7422871455    1.9867849257    0.4932150777
 H    0.0299563521    1.8082501270   -1.1209059696
 H   -1.0233698331    1.9180713762    0.2988325026
 H   -0.8365137593   -0.5156730530   -0.4368460798
 H    2.3607099183   -0.0076347841    2.3415379620
 H    0.8733015832    0.7743364111    2.9702230032
 H    1.3922254755   -1.9972703518    3.9514727428
 H    0.1383071805   -2.9489245575    1.5144004027