17

 C    0.0349893442    1.5719531324    0.1218301344
 O    1.4978811488    1.5356257761   -0.0788601652
 C    1.2806662807    0.2949056850   -0.8555852299
 C    1.6236414764   -1.2008596484   -0.6966578559
 C    1.7640917574   -1.3772730954    0.8145906609
 C    0.3246410061   -0.9352956024    1.0925684642
 O   -0.4420860070   -2.0028554906    0.4539705265
 C   -0.0828517372   -1.3954582297   -0.7577841672
 C    0.0211063149    0.0453245256   -0.1359927628
 H   -0.2302014224    1.9113700206    1.1269084420
 H   -0.4493485714    2.1926360497   -0.6404793245
 H    1.1378078636    0.5652177316   -1.9095537074
 H    2.2972353722   -1.7231813820   -1.3748366721
 H    1.9329695435   -2.4046464994    1.1419535248
 H    2.5195558538   -0.7122280791    1.2383746495
 H   -0.0136161956   -0.7108721355    2.1031726113
 H   -0.5719345579   -1.7611534885   -1.6595362085