21

 C   -1.0588744790    1.0401172600   -0.1575118529
 C   -0.0664263733   -0.1128758693   -0.0870070671
 C    1.3191952828   -0.0269015111   -0.8072505022
 C    1.9804578081   -0.6823050102    0.4339454931
 O    2.6589660103    0.2556452094    1.2914922258
 C    1.4613425012    0.4349161619    2.1040931769
 C    1.1594606858    1.9132109858    2.2740698664
 O    2.2239351218    2.5349661058    2.9741113983
 C    0.6485188125   -0.5536779827    1.2256317320
 H   -0.6078276985    2.0008324330    0.1010494917
 H   -1.4630979002    1.1315452730   -1.1718886376
 H   -1.9045442360    0.8741390409    0.5194428591
 H   -0.5753925224   -1.0127623943   -0.4526691479
 H    1.3946160877   -0.5774544738   -1.7483387739
 H    1.6918861988    0.9889855598   -0.9617858125
 H    2.5454123134   -1.6074147925    0.2970098251
 H    1.6391204853    0.0161740160    3.1045912289
 H    1.0050564753    2.3905380869    1.2977164828
 H    0.2534645546    2.0560585242    2.8733191750
 H    3.0254067167    2.3274594225    2.4784920183
 H    0.1855475950   -1.3694894254    1.7808837807