23

 C   -0.2242327225    1.5488590591    0.0229067550
 C   -0.0422436174    0.0313105165    0.0137353250
 C   -1.3552766895   -0.6837104195   -0.2876361399
 C    1.1937041552   -0.4195520105   -0.8048205885
 O    1.9526763747   -0.6806254893    0.3907495604
 C    0.7737086299   -0.5400284142    1.2206580358
 C    1.0140109469    0.2660627553    2.4592605873
 C    0.1021296971    0.0824429959    3.6520651301
 C    1.5181512125   -0.4234658880    3.7043843618
 H    0.7243675880    2.0687992367    0.1867044163
 H   -0.6255306072    1.8879228438   -0.9389040790
 H   -0.9227887490    1.8631673517    0.8056175106
 H   -1.7591633218   -0.3746323994   -1.2586024790
 H   -1.2228574426   -1.7703443996   -0.3106897604
 H   -2.1116546343   -0.4531383721    0.4713871672
 H    1.0364532743   -1.3314088236   -1.3986938001
 H    1.6710287026    0.3389488551   -1.4372098279
 H    0.3956567100   -1.5341415301    1.5134375821
 H    1.3895093057    1.2692102060    2.2867608567
 H   -0.1583311752    0.9598573081    4.2330225699
 H   -0.6956060913   -0.6491071155    3.5736501950
 H    1.6786091114   -1.4952835569    3.6562896221
 H    2.2338099223    0.1063371406    4.3225843795