22

 C   -0.1733089196    0.9893087402    0.7953718713
 C   -0.0638113678   -0.3800032806    0.1209367502
 C    0.6337080426   -0.3316453093   -1.2418520636
 O    1.9467214494    0.1589051052   -0.9993598514
 C    2.6672544102    0.5524437883   -2.1435507559
 C    0.6423110572   -1.6872348440   -1.9233952625
 C   -0.5982790435   -2.1821824267   -2.6247967740
 C    0.6212248787   -1.8155817972   -3.4280281550
 H    0.8169617574    1.4297775866    0.9320009562
 H   -0.7686242062    1.6819169234    0.1890947355
 H   -0.6540706162    0.9086402444    1.7751256833
 H    0.4963218206   -1.0702020680    0.7641191102
 H   -1.0586520437   -0.8168095295   -0.0197490050
 H    0.0967308511    0.3823907735   -1.8953670051
 H    2.9395333308   -0.2972425965   -2.7836721409
 H    2.1002794576    1.2745383538   -2.7530773874
 H    3.5837498726    1.0354174532   -1.7935209144
 H    1.2205673339   -2.4336981036   -1.3844367370
 H   -0.8623002430   -3.2290204368   -2.5265528748
 H   -1.4526634072   -1.5139052776   -2.6724756464
 H    0.5793705542   -0.9036059922   -4.0149475352
 H    1.1998955708   -2.6106176866   -3.8855711781