20

 O    0.0596305160    0.0562866137    0.4548877467
 C   -0.0244004760    1.2050997100    0.1078555846
 C   -1.1626341449    2.2262739297   -0.1506046301
 C   -0.0209110247    3.2653610258   -0.3482673440
 C    0.2045022779    4.3331099189    0.7224509439
 C    1.7084672419    4.6533928649    0.8305079922
 C    2.5261449995    3.3944598921    1.1749838261
 C    2.3330467658    2.2858959620    0.1238089461
 N    0.9291270933    2.1526144188   -0.1930839218
 H   -1.7732071301    2.0162397151   -1.0306165624
 H   -1.8097152031    2.3983666109    0.7119673295
 H    0.0199949251    3.7112258379   -1.3505204783
 H   -0.3734342595    5.2349995942    0.4938389920
 H   -0.1504170243    3.9560993076    1.6907630726
 H    2.0639805072    5.0757795941   -0.1200814973
 H    1.8726529186    5.4222914566    1.5924216783
 H    3.5906559748    3.6389038314    1.2549358062
 H    2.2067475447    3.0170332978    2.1544379565
 H    2.8963063257    2.5321572244   -0.7875621099
 H    2.6906625123    1.3171316541    0.4830896290