24

 C    0.0287643789    1.5572648819    0.0626406685
 C    0.0777593920    0.0286310280    0.0214782809
 C    0.6432638509   -0.5474021680   -1.2917863562
 C    0.8136735181   -2.0726711782   -1.2184187014
 N   -0.1284598971   -0.1243434733   -2.4751120337
 C    0.5108964294    0.7052914879   -3.4957521182
 C    1.4244756627   -0.0831558458   -4.4385658745
 C   -1.4149473552   -0.5246030123   -2.6685543055
 O   -2.1052032834   -0.2465646662   -3.6311969779
 H    1.0290897087    1.9897022371   -0.0537913935
 H   -0.6042373696    1.9565867188   -0.7353288027
 H   -0.3748387077    1.9097847106    1.0163225484
 H    0.7016411680   -0.3436474219    0.8433659725
 H   -0.9250057942   -0.3812406697    0.1941125559
 H    1.6385988120   -0.1120977393   -1.4361463647
 H   -0.1379103705   -2.5763607633   -1.0224559771
 H    1.2166524469   -2.4653043686   -2.1557841391
 H    1.5013582846   -2.3379479036   -0.4092615015
 H   -0.2952931184    1.1715184117   -4.0651293705
 H    1.0752440292    1.4988348432   -2.9928784850
 H    2.2414188250   -0.5727287520   -3.8978672279
 H    0.8537612685   -0.8501716186   -4.9693078601
 H    1.8703255797    0.5875055345   -5.1801410545
 H   -1.7936480686   -1.1463822329   -1.8357293820