19

 C   -0.1466008033    1.5369108000   -0.0207948238
 C    0.1598946472    0.0542760720   -0.0163892952
 O    1.3677691432   -0.3395083546   -0.7588353448
 C    1.7831892667   -1.1722487697    0.3324655584
 C    2.1377181239   -0.2950294420    1.4778004753
 O    2.7055325001    0.9614299367    1.2841882634
 C    0.6673052975   -0.6511879613    1.2419180449
 C   -0.2124745244   -1.3015483172    2.2643673287
 O   -0.9452463658   -0.3428295634    3.0196503220
 H    0.6615030765    2.1156386835    0.4291747535
 H   -0.3217646560    1.8907371429   -1.0418760402
 H   -1.0575607331    1.7076868592    0.5622460142
 H   -0.6830447819   -0.5077210949   -0.4409324531
 H    2.1592714527   -2.1628401447    0.0999654681
 H    2.5584575708   -0.8030668537    2.3430868410
 H    2.7039247468    1.1025754014    0.3269673026
 H   -0.9704864813   -1.9287378521    1.7807275918
 H    0.3855315717   -1.9594189340    2.9155921826
 H   -0.3063645813    0.2566906119    3.4205235404