13

 O    0.1125909437    0.1584900424   -0.6045923000
 C   -0.0373250144    1.2054422865   -0.0651811255
 C   -1.1828616219    2.1641312554    0.2775419258
 C   -0.0644573049    2.9925374419    0.8899834465
 C    0.2447767400    4.4446985851    0.8413713088
 C    0.0445541968    3.7284664694    2.1757850356
 O    0.9274325436    2.0026084987    0.5074855938
 H   -1.6853540453    2.5897497334   -0.5930913569
 H   -1.9197226265    1.7512532359    0.9690765120
 H    1.2575219565    4.7282205346    0.5773070712
 H   -0.5252314946    5.1253404816    0.4938902087
 H   -0.8622125068    3.9198992589    2.7397507440
 H    0.9271983737    3.5465918963    2.7788012761