19

 C   -0.3917203250    1.4944260061    0.0566853797
 C    0.0974776137    0.0620006857   -0.0522721853
 N    1.4131567018   -0.1139971947   -0.7141768994
 C    1.9919553089   -0.7940538374    0.3345448934
 N    3.0525026318   -1.4514360466    0.5749963386
 C    0.7494023009   -0.5849687188    1.2167137164
 O    0.8817517237    0.3101118418    2.2874405207
 C    0.2261571440   -1.9321684067    1.7111785750
 O    1.1450719391   -2.4306666161    2.6701301337
 H    0.3631299151    2.1235889573    0.5313521496
 H   -0.6210858534    1.8984011835   -0.9349444793
 H   -1.3038902360    1.5366151269    0.6596201663
 H   -0.6765550073   -0.5822258230   -0.4902512489
 H    1.6069630910   -0.2064370623   -1.7013645346
 H    3.6845696887   -1.5023517268   -0.2251471432
 H    1.2266417839   -0.2210893204    3.0193964600
 H   -0.7342408866   -1.8029375505    2.2219978602
 H    0.0846206504   -2.6284311334    0.8709814836
 H    2.0022782054   -2.4920795646    2.2136485034