19

 O    0.0416147208    1.4351250948    0.1873794721
 C    0.0100266226    0.0327141425   -0.0032473498
 C   -1.4032094491   -0.4504104289   -0.0247935142
 C   -2.5051613183    0.2970368314    0.0794272682
 C   -3.7649444674   -0.5158312706   -0.0127013292
 C   -4.3853239264   -0.6296065609   -1.4272671618
 O   -3.6951809291   -1.8741495170   -1.6675787843
 C   -3.2448575632   -1.9511280403   -0.2947336601
 C   -1.7160741377   -1.9275474424   -0.1646226101
 H    0.9598438967    1.7185293556    0.1706353883
 H    0.5014704926   -0.2568258187   -0.9494599432
 H    0.5590087092   -0.4955840171    0.7976445887
 H   -2.4984923740    1.3737687725    0.1930238726
 H   -4.4701394073   -0.3532690650    0.8061569657
 H   -5.4758037345   -0.7625388398   -1.4367274128
 H   -4.1073911163    0.1444501819   -2.1517447889
 H   -3.7209897486   -2.7863029215    0.2307526128
 H   -1.2603185873   -2.3802801129   -1.0542839613
 H   -1.3624500828   -2.5016978438    0.7032823475