16

 C   -0.5255350705   -1.2337380307   -0.2076336615
 C   -0.2074935217   -0.0917180760   -0.0043209999
 C   -0.0022205613    1.3279146324    0.1093692605
 C    0.4966934300    2.1057764109    1.2651071337
 C    1.7083944252    1.4978261982    1.9910274640
 O    1.7797334632    0.0620015022    2.0715816986
 C    2.6086188858    0.0009648088    0.8734474104
 C    2.4490935724    1.5134473972    0.6572946249
 N    1.2521410859    2.1165733592   -0.0709732817
 H   -0.7738563031   -2.2575185877   -0.3423292200
 H   -0.7849079919    1.8677793101   -0.4243975638
 H   -0.0379585787    2.9850054472    1.6150786300
 H    2.0265194308    2.0035599714    2.9050578565
 H    3.6387933696   -0.2780016894    1.1293355472
 H    2.2130164558   -0.6815570150    0.1207542160
 H    3.3325141084    2.1109187313    0.4418508251