18

 C    0.5842587330   -2.4394527546   -0.1029301916
 N    0.4440198863   -0.9953923731   -0.2451689701
 C    0.5496890526   -0.5223161656   -1.6098418483
 C   -0.0202943504    0.9001747860   -1.7031916288
 O   -1.3755132249    0.8357268244   -1.2815885628
 C    1.9993551182   -0.4720068944   -2.1075317303
 O    2.2710295067   -0.5855647691   -3.2832513774
 C    3.0325749459   -0.2272285251   -1.1146907058
 C    3.9336982595   -0.0149763580   -0.3449414088
 H   -0.1070238508   -3.0194823194   -0.7390082813
 H    1.6055196152   -2.7435274199   -0.3572811851
 H    0.4096419933   -2.7191113798    0.9396578975
 H   -0.4548905079   -0.6928679090    0.1136506176
 H    0.0061784182   -1.1473498649   -2.3404742401
 H    0.5666357546    1.5660595370   -1.0540915994
 H    0.0655424489    1.2506203266   -2.7404621332
 H   -1.6938850134    1.7327555141   -1.1463180924
 H    4.7234156049    0.1717899346    0.3415184703