16

 C   -0.0200826137    1.4571187968    0.1254171631
 N    0.0192576839    0.0115408112    0.0656981375
 C    0.5253451818   -0.5865585964   -0.9309177090
 O    0.5703908457   -1.9376019684   -1.0041015106
 C    0.0072792121   -2.6303757735    0.1217256118
 C    0.1308065284   -4.0605687449   -0.1062815750
 C    0.2147573555   -5.2483947967   -0.2586460479
 C    1.1115796613    0.0083622172   -2.1021588890
 C    1.5942145269    0.5391390087   -3.0668119760
 H    0.5093149416    1.7923186614    1.0246671602
 H    0.4167739697    1.9587008220   -0.7471480834
 H   -1.0612492965    1.7823325514    0.2325975192
 H    0.5284550821   -2.3255714462    1.0365422672
 H   -1.0409700934   -2.3350527611    0.2457307302
 H    0.2912005503   -6.2984344288   -0.3977893307
 H    2.0234394443    0.9976530772   -3.9239905176