22

 O    0.2014708330    1.3347932271    0.3719725392
 C   -0.0177038129   -0.0664000727    0.4106349969
 C   -1.2674349684   -0.4955142493   -0.3653131079
 C   -1.4461943403   -1.9963310697   -0.3543666421
 N   -2.0639883718   -2.5931610024    0.8459257967
 C   -2.7527772999   -2.7035421562   -0.4548284722
 C   -4.0988052455   -2.0280403234   -0.5830180713
 C   -5.2229153413   -2.8838371559    0.0103194764
 O   -6.5044449643   -2.2949196582   -0.1437341908
 H   -0.5283241846    1.7576145990    0.8355133150
 H    0.8750527359   -0.5156091435   -0.0396576345
 H   -0.0837683438   -0.4383752601    1.4443197431
 H   -2.1445932200   -0.0144221058    0.0812479398
 H   -1.1861061226   -0.1333923916   -1.3974750673
 H   -0.6010417269   -2.5371692687   -0.7824328255
 H   -1.6090891317   -3.4682237620    1.0897330125
 H   -2.7075445488   -3.6773506768   -0.9444004346
 H   -4.0791723623   -1.0615696837   -0.0674386950
 H   -4.3222782870   -1.8308484275   -1.6386128153
 H   -5.2770969740   -3.8455693006   -0.5128461158
 H   -4.9996531198   -3.0992577574    1.0662470605
 H   -6.5177987729   -1.4843308705    0.3749336922