18

 O   -0.0418768393    1.4157097980   -0.0468811885
 C    0.0091410113    0.0069872715   -0.0241215456
 C   -1.2794812732   -0.5931054004   -0.4895317923
 C   -1.7341352099   -1.5075895401    0.3671235318
 C   -0.8517508117   -1.7077236382    1.5832353960
 C    0.2946137384   -0.7027989475    1.3558722532
 C    1.6356977141   -1.1985653860    0.7769525540
 N    1.3147284067   -2.0364030134   -0.3987297087
 C    1.3623033242   -0.5635325587   -0.5453629677
 H    0.8219955276    1.7489270876    0.2219708532
 H   -1.7508884070   -0.3064260813   -1.4222612204
 H   -2.6415759985   -2.0862109482    0.2241859517
 H   -1.3999137625   -1.5261462689    2.5159210930
 H   -0.4801335649   -2.7382926198    1.6271871506
 H    0.4277412931    0.0179891056    2.1651507682
 H    2.5725357142   -1.3271237722    1.3063416709
 H    2.1957860904   -2.4000267905   -0.7613235730
 H    2.0274180671   -0.0945109875   -1.2629247064