18

 C    0.5735910932    1.6090585309    0.6441209310
 C    0.3198421403    0.1554760470    0.2319184483
 C    0.5398377340   -0.8336843733    1.3810136699
 O   -1.0146282204    0.0021493958   -0.3374380508
 C   -2.1108413162    0.2410982897    0.4047578865
 O   -3.2139033720    0.1219728379   -0.0405180065
 C    1.3145904912   -0.2001186765   -0.9012744794
 N    0.7681109175   -0.5504042880   -2.0867332032
 O    2.5110565728   -0.1509750953   -0.6838134663
 H    1.6361087568    1.7269007877    0.8646873205
 H    0.3085807224    2.2891451175   -0.1702599631
 H   -0.0021062641    1.8821835156    1.5327105891
 H   -0.0357061673   -0.5552937963    2.2680648597
 H    0.2513993399   -1.8436368979    1.0764395884
 H    1.6006966783   -0.8369151024    1.6380256093
 H   -1.8917729125    0.5503424711    1.4400108464
 H   -0.2292417500   -0.5737065730   -2.2092487578
 H    1.3853045461   -0.7878467604   -2.8452984821