18

 C    0.0248701008    1.4844206090    0.0593699642
 C   -0.0189415406   -0.0134795079   -0.0308254145
 C    0.6214386691   -0.8381669326   -1.1796968438
 C    0.6969146588   -1.8512969695   -0.0126030534
 O    0.8845494534   -0.7177677147    0.8985858342
 C   -0.7631198736   -2.1559681033    0.2341956578
 C   -1.3573672148   -0.7562581737    0.2403094973
 N   -1.2583091084   -3.3094616056    0.3973083619
 O   -2.6478043737   -3.2370272463    0.6184448698
 H    1.0401758995    1.8539535949   -0.1078267853
 H   -0.6369837003    1.9302027681   -0.6902379529
 H   -0.3066232329    1.8187742430    1.0477726811
 H    0.0262317960   -1.0838668841   -2.0631884304
 H    1.6087329370   -0.4588636168   -1.4473457109
 H    1.4325628071   -2.6472089498    0.0729606164
 H   -1.7823295136   -0.4919293331    1.2124488005
 H   -2.1228063091   -0.6115204713   -0.5278707125
 H   -2.8818770548   -4.1633065862    0.7410980204