18

 N   -0.2403119675    1.1940457289   -0.1600888464
 C    0.2444207547   -0.1687280751   -0.0556964864
 C    0.9396866114   -0.5117534631    1.2587104083
 O    1.1033051367    0.2445232047    2.1783178008
 O    1.3669976829   -1.7999043922    1.2512916689
 C    2.0262957151   -2.2670052612    2.4170605376
 C    1.2643996549   -3.2194987960    3.3032350442
 C    2.3352263275   -3.7317098025    2.3591436961
 O    1.9744515816   -4.4620845478    1.2291777856
 H   -0.8743739318    1.3825196777    0.6114138883
 H    0.5356010590    1.8356576617   -0.0220767043
 H   -0.5860423164   -0.8724925175   -0.1890280942
 H    0.9442860694   -0.3810382393   -0.8726288404
 H    2.7160599829   -1.5472399868    2.8391693013
 H    1.4539147993   -3.1915739755    4.3705806342
 H    0.2407972139   -3.4332604644    3.0153990814
 H    3.2762649047   -4.0685056884    2.7850147043
 H    1.6637263417   -3.8335556131    0.5670380006