17

 C   -0.1829470870    1.5400007438    0.0180743235
 C   -0.0257659730    0.0267625617    0.0201041422
 C   -1.2937981976   -0.6967582724   -0.4011006062
 O    1.1027070107   -0.3762582618   -0.8100209392
 C    1.8875914284   -0.7722159941    0.3219417295
 C    0.6882646106   -0.5805177034    1.2843766455
 C    0.8791449776    0.2558943982    2.4534019021
 N    1.0353790599    0.9303825817    3.3796374228
 H    0.7413222152    2.0359905379    0.3244432667
 H   -0.4354403258    1.8754459961   -0.9921461972
 H   -0.9807300488    1.8529800004    0.6986864523
 H   -1.5920822997   -0.3754536525   -1.4038449861
 H   -1.1355885257   -1.7784896198   -0.4234750734
 H   -2.1142348091   -0.4737057967    0.2889305119
 H    2.2629483800   -1.7967481644    0.2346312119
 H    2.7260245270   -0.0920407340    0.5116654246
 H    0.2364317772   -1.5271467909    1.5886679289