22

 C   -0.0858940709    0.6766963464   -2.1751467115
 N    0.0845661889   -0.3286969751   -1.1321058125
 C    1.3047772181   -0.3299767052   -0.3165878250
 C    2.4275701871    0.6600755154   -0.5237493642
 O    3.1597574077    0.4162798350   -1.7204423400
 C   -0.0158751808    0.0620619322    0.2574296984
 C   -0.3931531991    1.4273602219    0.8679908479
 C   -0.9052595610    0.6592048327    2.1222033481
 C   -0.8373674069   -0.6744616554    1.3217244051
 H    0.1239641831    1.7091902819   -1.8603052401
 H    0.5768704748    0.4391198900   -3.0109018260
 H   -1.1213798152    0.6398130056   -2.5285853938
 H    1.6624117584   -1.3407214031   -0.1003412895
 H    2.0500555543    1.6808879777   -0.6162342330
 H    3.0894035967    0.6388646640    0.3575872677
 H    3.4570682726   -0.4994226766   -1.6996716060
 H    0.3996371891    2.1626410799    1.0257111402
 H   -1.2050212113    1.9122892696    0.3158541322
 H   -0.1857731093    0.6882516499    2.9439229635
 H   -1.8837442088    0.9519802420    2.5073024021
 H   -1.8110366523   -0.9868006190    0.9322901925
 H   -0.3657630252   -1.5304345798    1.8112446640