15

 N    0.0585066109    1.4305360776    0.0230422060
 C    0.0532172790   -0.0082309955    0.0228601798
 C   -0.4891010089   -0.7211502204    1.2367284081
 C   -1.3215671325   -0.7464145436   -0.0340858965
 O   -2.4062614008    0.1277100044   -0.1185700889
 C   -1.4670144921   -1.9761402853   -0.7716741965
 N   -1.6079859664   -2.9635272588   -1.3583535277
 C    1.1555592560   -0.6060373870   -0.6802035218
 C    2.0703734151   -1.0962180139   -1.2848819519
 H    0.2177156273    1.7642810440   -0.9233863358
 H   -0.8578594685    1.7688381942    0.3033010721
 H   -0.0026148163   -1.6359300569    1.5517435923
 H   -0.8777233579   -0.0946007146    2.0333115467
 H   -3.1299987641   -0.2297286423    0.4095099881
 H    2.8754225192   -1.5397487620   -1.8173800841