15

 C    0.0332317146    1.4440596577    0.0136392659
 N   -0.0581701490   -0.0139553542   -0.0128124653
 C   -0.3623692782   -0.6857709772   -1.1825939499
 N   -0.4628718636   -1.9569208276   -1.2976045818
 N   -0.2462986149   -2.6725686429   -0.1558858209
 C    0.0673983492   -2.1878276800    1.1041174974
 N    0.2660545033   -2.8757610911    2.1593951231
 C    0.1743489555   -0.6820665687    1.1869669549
 O    0.4389583642   -0.0804800082    2.1999909287
 H    1.0308636337    1.7532905484    0.3337650840
 H   -0.1697677997    1.8300615359   -0.9858036129
 H   -0.6900089418    1.8541662087    0.7222421642
 H   -0.5259201168   -0.0768329608   -2.0624959372
 H   -0.3333626917   -3.6693290680   -0.2825527480
 H    0.1665629853   -3.8773196822    1.9790488378