22

 C    0.1066609337    1.4467368664    0.0939941779
 N   -0.0877725670    0.0164538560    0.1624919791
 C   -1.3747678387   -0.4999315855    0.6674334173
 C   -0.6034598427   -1.6487629025    1.3418374725
 C    0.6555355396   -0.7519449077    1.1789766000
 O   -1.0462117036   -1.9571581517    2.6338100716
 C   -0.3167237670   -2.9970086418    3.2687419546
 C   -1.0637053284   -3.3311644497    4.5504166266
 O   -2.3868681284   -3.7469153511    4.2804434879
 H    1.1329062468    1.6669286120   -0.2189786002
 H   -0.5704452451    1.8780369009   -0.6511356820
 H   -0.0748575872    1.9578414276    1.0590797025
 H   -1.8383229631    0.1413142692    1.4352811981
 H   -2.1161053411   -0.7422401470   -0.1007223380
 H   -0.5511127953   -2.5534997501    0.7214972183
 H    1.5915781665   -1.1997822998    0.8289459020
 H    0.8419676665   -0.1887674437    2.1093637561
 H   -0.2753079661   -3.8821653701    2.6147811003
 H    0.7146226094   -2.6791795300    3.4880778943
 H   -0.5609198980   -4.1553736718    5.0668630557
 H   -1.0436912542   -2.4530072274    5.2156827492
 H   -2.7491603963   -3.0838219423    3.6808241062