18

 N    0.9643131629   -0.0760995729   -0.2393551665
 C   -0.1889243633    0.3799292609    0.0433111141
 N   -1.3042016057   -0.4549244377    0.0478453140
 C   -1.1015690110   -1.8695735470   -0.3034672385
 C   -2.2936954833   -2.7244287335    0.1143536287
 N   -3.5710572109   -2.1587042495   -0.3083713310
 C   -3.7562279751   -0.8414078041    0.2837693561
 C   -2.5538899730    0.1066965133    0.3060700784
 O   -2.6962620618    1.2836268912    0.5703273157
 H    1.6549916374    0.6702870554   -0.1859214522
 H   -0.4498704579    1.4059709484    0.3014934856
 H   -0.9361091035   -1.9446305785   -1.3865108007
 H   -0.1750239097   -2.1996207915    0.1734645291
 H   -2.1785268626   -3.7294343735   -0.3028843595
 H   -2.3187267740   -2.8286991297    1.2066151075
 H   -3.5889182479   -2.0846832409   -1.3213624967
 H   -4.5690184673   -0.3079094373   -0.2148838266
 H   -4.0654955332   -0.9573049632    1.3323429927