13

 N   -0.0360583241    1.3750979957    0.1403275993
 C   -0.0265728497   -0.0140167247    0.0396195230
 N   -1.1452412686   -0.6722272630    0.0375992308
 N   -1.0385551883   -2.0136766419    0.0453873283
 C    0.1344611561   -2.7608016871   -0.0129388240
 N    0.0619923320   -4.0344912364   -0.0595678211
 N    1.3242303970   -2.0109444485   -0.0082726650
 C    1.2347261095   -0.7280780113    0.0233088920
 H    0.6474419046    1.8411674707   -0.4413937504
 H   -0.9609646505    1.7634400600    0.0062126152
 H   -1.9123252538   -2.5171850605    0.0471235882
 H    1.0053758563   -4.4156044385   -0.0843607957
 H    2.1629062896   -0.1535186546    0.0404468294