17

 C    0.1329447603    1.6227051740   -0.0654928534
 C    0.1293382723    0.1275186676    0.0822653380
 O   -1.2007225686   -0.3789233139    0.4492835195
 C   -0.7083031638   -1.0511076994    1.5447115885
 O   -1.3258222909   -1.6595676241    2.3580420712
 C    0.7441229954   -0.7230108468    1.2354965111
 C    1.3109458463   -1.7304289473    0.1806645962
 C    0.8119583780   -0.7881462809   -0.9625236797
 O   -0.0629583244   -1.2829723427   -1.9361610397
 H    1.1471313383    1.9902128895   -0.2483056830
 H   -0.4972006142    1.9175015863   -0.9110086854
 H   -0.2564723176    2.1040048090    0.8360826564
 H    1.3891591038   -0.3553622934    2.0297442071
 H    2.3942521266   -1.8555923636    0.2207092266
 H    0.8345806444   -2.7124556479    0.1991493165
 H    1.6610533296   -0.2499391509   -1.4104123333
 H    0.4395758045   -1.8197251355   -2.5572446866