16

 C   -0.2263833026    1.4829842247    0.0034808114
 C   -0.0356945825   -0.0286380637   -0.0047025076
 C    1.1868788600   -0.5610797824   -0.7653733712
 O    1.6243543942   -0.5271754265   -1.8697869057
 O    1.7376228618   -1.1693413520    0.3392542310
 C    0.6494785347   -0.7048725550    1.1807941255
 C    0.9038447928   -0.2483974496    2.5723855946
 C    0.1364917252   -1.5394830759    2.2966205298
 H    0.6834017627    1.9957198663    0.3283157526
 H   -0.4768187523    1.8363124434   -1.0006221981
 H   -1.0401314320    1.7701921992    0.6766202089
 H   -0.9499592237   -0.5406324241   -0.3207825796
 H    1.9163515070   -0.3418221474    2.9489987739
 H    0.3577519603    0.6134823978    2.9416587944
 H   -0.9330644067   -1.5588582933    2.4786540761
 H    0.6491652512   -2.4743069714    2.4943477740