18

 N    0.6069452583    0.4579792931    1.2771294015
 C    0.4247426979   -0.2482207016    0.1228668795
 O    1.2567647905   -0.2404959848   -0.7685193103
 C   -0.8810227937   -1.0193319023    0.0674996986
 C   -1.8488098209   -0.9727049340   -1.1523676705
 C   -0.9998582408   -1.3718917554   -2.3733602940
 C   -0.2972216127   -2.6075960769   -1.7303267068
 C   -0.9707795388   -2.5177280385   -0.3485324864
 O   -2.3673517159   -2.2659893503   -0.7051597201
 H    1.4543139602    0.9925721032    1.3791848957
 H   -0.0651194207    0.4645107934    2.0230583350
 H   -1.4718206666   -0.8825492678    0.9755017938
 H   -2.6097437382   -0.1990021266   -1.2549555597
 H   -1.6461070970   -1.6357745734   -3.2131681552
 H   -0.2940822732   -0.5982938214   -2.6748767471
 H   -0.5572426441   -3.5497385241   -2.2174333582
 H    0.7860428770   -2.4975450065   -1.6858989012
 H   -0.8332462911   -3.3247877859    0.3711277856