21

 O   -0.6624361695    1.3831412975   -0.4640952834
 C   -0.2914013447    0.0195787370   -0.3063146459
 C   -1.5526904673   -0.7713299263    0.0126030901
 C   -1.2758737583   -2.2517386603    0.2660713999
 C   -2.5488531099   -3.0964378787    0.5043782043
 C   -2.7946630046   -3.7647891215   -0.8506259731
 O   -3.5440990603   -2.8546236826   -1.6459243373
 C   -1.3587975404   -3.9479164939   -1.3491031264
 O   -0.6343017785   -2.8198286762   -0.8926648900
 H    0.1179584169    1.8734296131   -0.7377157786
 H    0.1699355415   -0.3823149062   -1.2187269430
 H    0.4397734699   -0.0992714746    0.5119061733
 H   -2.0229016904   -0.3376604591    0.9039387471
 H   -2.2642323227   -0.6807955090   -0.8136991296
 H   -0.5839326279   -2.3532546371    1.1147894277
 H   -2.3735278487   -3.8607594599    1.2665735647
 H   -3.4077008979   -2.4955065751    0.8086278231
 H   -3.3195429100   -4.7260039956   -0.7572844675
 H   -3.5395451477   -3.1710321285   -2.5548534353
 H   -0.9365058301   -4.8839409031   -0.9458813413
 H   -1.2883813794   -3.9904133200   -2.4429016191