21

 C   -0.7214279720    1.4079568087   -0.0084640139
 C   -0.1416162190    0.0008501598    0.0794007905
 C    0.9500515323   -0.5005157940   -0.9453742906
 C    1.6713075258    0.5265032373   -1.8217171503
 O    2.9167913433    0.0297387667   -2.2816801767
 C    1.8001023033   -1.0109974408    0.2528349484
 O    2.8496388039   -0.0913104123    0.6318662133
 C    1.9698226355    0.5720423015    1.5783858361
 C    0.7998402322   -0.3828084187    1.2571904914
 H    0.0471320777    2.1858269656    0.0135008770
 H   -1.2938332888    1.5387447962   -0.9330390289
 H   -1.4021877329    1.5946042666    0.8297024474
 H   -0.9733255071   -0.7114356209    0.0722914866
 H    0.5935051724   -1.3202966474   -1.5755271069
 H    1.0719910396    0.7517742393   -2.7103394275
 H    1.8085169435    1.4711567153   -1.2788258751
 H    3.4869145408    0.0174272280   -1.5028539133
 H    2.1408120292   -2.0485165753    0.2518184201
 H    2.3616586507    0.4845653991    2.5983059026
 H    1.8311676724    1.6338386906    1.3429007243
 H    0.3638966871   -0.9098378555    2.1054140654