19

 N    0.3746956052    0.8656626961   -0.9526027383
 C    0.0492695522   -0.0126869188    0.0333277420
 O    0.7720987369   -0.2254396708    0.9965435159
 C   -1.2603633194   -0.7695570842   -0.1164966159
 C   -2.2455115819   -0.5082627814   -1.2467013718
 C   -2.8889263247    0.8867156446   -1.2863702931
 O   -2.1136964342    1.8581328723   -2.0041710901
 C   -1.2007420637   -2.1521617224    0.4516583277
 N   -1.9011995972   -1.0946178891    1.1782729538
 H    1.1936540718    1.4241855347   -0.7628831541
 H   -0.3575017192    1.2907096656   -1.5139527299
 H   -1.7765191968   -0.7153207179   -2.2183209447
 H   -3.0502081132   -1.2409647736   -1.1289219177
 H   -3.8906315074    0.8229467829   -1.7290731211
 H   -3.0031943788    1.2795091863   -0.2721936327
 H   -2.2137244826    1.6738532783   -2.9439092482
 H   -1.8359604105   -2.9202636198    0.0180610971
 H   -0.2413675466   -2.4828261612    0.8345101147
 H   -1.2722162598   -0.7617019514    1.9093209065