16

 C   -0.0542061014    1.3386098513   -0.0527217227
 O   -0.0052546492   -0.0780872217   -0.0207488020
 C    0.6303210188   -0.5971767663    1.0471507500
 C    1.2463188035   -0.0352031288    2.1197187599
 O    1.7397790925   -1.0006239818    2.9291465115
 N    1.4463446107   -2.2492764519    2.3835101053
 C    0.7924398304   -2.0031726409    1.2746348148
 O    0.3296227346   -2.9434334698    0.4505376453
 C    0.5896391762   -4.2928522578    0.8468842787
 H    0.9567962101    1.7670916489   -0.0802995962
 H   -0.5915792133    1.6134596364   -0.9609225540
 H   -0.5864892129    1.7341294928    0.8229032317
 H    1.4117171797    0.9801289793    2.4380918947
 H    1.6665014068   -4.4737171006    0.9194590395
 H    0.1311328903   -4.5058037297    1.8174729258
 H    0.1491492732   -4.9196681093    0.0713914477