18

 C   -0.0350631657    1.6074768275    0.0672384383
 C    0.0526605155    0.1044792624    0.0716131585
 N    1.1764232482   -0.6462631805   -0.7348534663
 H    1.3507130210   -0.6397861432   -1.7459380956
 C    2.1503801244   -0.2365724779    0.3717098201
 C    0.8670066147   -0.6807843503    1.1485900775
 C    0.8522875764   -1.8692634232    0.1376910448
 C    0.6023514140   -0.6603040060    2.6795145274
 O    0.0456616009    0.3961037885    3.0332758180
 O    0.9940035800   -1.6749001851    3.2666081474
 H    0.9292696344    2.1177553110    0.0608712090
 H   -0.6367691101    1.9790693817   -0.7664563818
 H   -0.5187081458    1.8503908750    1.0204282489
 H   -0.9111897116   -0.3487154045   -0.1733672504
 H    3.0220908447   -0.8893128293    0.4217725762
 H    2.4215227643    0.8155075835    0.3491547496
 H   -0.1059401098   -2.3257073410   -0.1126811613
 H    1.6707987745   -2.5868014683    0.1757619100