12

 N    0.0801491273    1.3218841117    0.1813171902
 C   -0.0752547910   -0.0313752301    0.0689212553
 C   -1.2042390956   -0.8289911581    0.0273653651
 C   -0.6779876699   -2.1513426991   -0.0078756723
 C    0.6899751870   -2.0362894117    0.0121563978
 O    1.0991963952   -0.7344145453    0.0592909425
 N    1.2645465926   -3.2386138461   -0.0303639872
 N    0.3955918059   -4.1423509405   -0.0733480069
 O   -1.0068707752   -3.4152644379   -0.0600652152
 H    0.9690619635    1.6775601350   -0.1396928293
 H   -0.7091570303    1.8756804336   -0.1133721229
 H   -2.2256779895   -0.4891578217    0.0266840030