21

 C   -0.2043823893    1.6673432341   -0.0361387162
 C   -0.0499036768    0.1592787678    0.0127088638
 C    0.6182915914   -0.5493701339   -1.1998188005
 C   -0.6065562749   -1.4820313627   -1.1236309282
 C   -0.3918568441   -2.8108645393   -0.3767522850
 C   -0.4654307058   -2.6757140611    1.1604691387
 C    0.3461686220   -1.5690829388    1.7978351267
 C    0.5118184787   -0.3328915873    1.3258587081
 O   -1.3094875573   -0.5173963770   -0.2989573688
 H    0.7675140298    2.1572048321    0.0887687115
 H   -0.6325216893    1.9757392801   -0.9932003137
 H   -0.8654272139    2.0117352677    0.7659699033
 H    0.6199047220    0.0708339662   -2.0997420672
 H    1.6056420294   -0.9849122805   -1.0414842936
 H   -1.1365837098   -1.6472875470   -2.0673857244
 H   -1.1534958873   -3.5361910957   -0.6853350940
 H    0.5753974250   -3.2325133120   -0.6766176609
 H   -1.5161673817   -2.5261828798    1.4371164105
 H   -0.1705679933   -3.6334582052    1.6031347554
 H    0.8017823674   -1.8128351139    2.7553539472
 H    1.1106279478    0.3781450463    1.8909063872