16

 C    0.0548450002    1.5113944492   -0.1145750650
 C   -0.0390002244    0.0203996681   -0.0514763157
 O    0.4286545196   -0.7203623929   -1.1846034006
 C   -0.2395990748   -1.8683260388   -0.5823273043
 C    0.6793049674   -2.1581036577    0.6180408780
 C    0.3342166772   -0.8120720606    1.2771703971
 O   -1.0883743816   -0.9821624721    1.5554813897
 C   -1.2658666806   -0.8830894472    0.1436917723
 H    1.1016493804    1.8321601278   -0.1351802983
 H   -0.4390808486    1.8940972386   -1.0122796615
 H   -0.4232237476    1.9512588427    0.7656265951
 H   -0.5106103896   -2.6472363169   -1.2912697130
 H    0.3739884753   -2.9931564727    1.2514785939
 H    1.7160791811   -2.2661665528    0.2945881903
 H    0.9074948035   -0.4260536518    2.1179261456
 H   -2.2847362975   -0.7406712430   -0.2121291137