23

 C    0.4202921014    1.3347819183   -0.1195198078
 C   -0.1541791393   -0.0908072713    0.0178455021
 C   -1.6849151986   -0.0189897408    0.1400995853
 C    0.2942151082   -1.0024445751   -1.1708839366
 C    1.4420839530   -1.8661933566   -0.6298654593
 C    1.8676814220   -3.1493510067   -1.3030103726
 C    2.7910903517   -1.9598019742   -1.3195543004
 C    1.3523551844   -1.7342746276    0.8478385322
 C    0.4825049973   -0.7919303428    1.2075968603
 H    1.5054673156    1.3079491840   -0.2582150001
 H   -0.0226597025    1.8530869226   -0.9780026134
 H    0.2116088653    1.9323699531    0.7749857149
 H   -2.1293044734    0.4282324194   -0.7565714329
 H   -2.1172817507   -1.0160214780    0.2714849050
 H   -1.9845122411    0.5934616252    0.9982512192
 H   -0.5396393798   -1.6474263300   -1.4708270469
 H    0.5826020870   -0.4181108300   -2.0501941136
 H    2.1296583450   -3.9954987583   -0.6756211983
 H    1.3665051782   -3.4204741906   -2.2270978159
 H    2.9154590836   -1.4205460407   -2.2532622498
 H    3.6821071116   -1.9909021102   -0.7008288148
 H    1.9554186033   -2.3338580483    1.5222740394
 H    0.2620674979   -0.4949209714    2.2280983738