15

 C   -0.0728213962    1.5542869315    0.0610233322
 C    1.4665354217    1.4277953360    0.0047918420
 C    2.0785800288    1.1411778727    1.3858579049
 C    1.3013485774    0.0181675167    2.0439459460
 C    0.2951182061   -0.5415236441    1.3721800461
 C    0.0323958431    0.0116721966   -0.0149514298
 O    1.3158646622    0.1623348433   -0.7020299045
 H   -0.5423154442    1.9985013104    0.9406218730
 H   -0.4686912405    1.9878475553   -0.8588260942
 H    2.0396452298    2.1591346953   -0.5716132714
 H    3.1345740621    0.8621814468    1.2737933769
 H    2.0614731358    2.0469433638    2.0076276609
 H    1.5915881634   -0.3077442348    3.0384669316
 H   -0.3161249102   -1.3424085274    1.7741546412
 H   -0.6878537394   -0.5590448723   -0.6040131347