19

 C   -0.1643035093    1.3388096003   -0.0914629286
 O    0.2898485165    0.0107998536    0.0761762606
 C    0.7963201982   -0.5603415180   -1.0948487734
 C    1.1467912449   -2.0566986702   -0.8969456534
 C   -0.3721939100   -2.3462145221   -1.0825029147
 C   -0.2901243551   -1.1484628319   -2.0909546002
 C    0.6346505815   -1.7311000162   -3.1435816833
 O    0.5695291998   -1.6602606070   -4.3414810512
 C    1.7145427028   -2.4251055951   -2.2795503262
 H    0.6357419316    1.9914950538   -0.4719708873
 H   -1.0180315116    1.3987906346   -0.7810428754
 H   -0.4771354329    1.6970587289    0.8916182649
 H    1.5652095963    0.0908579550   -1.5385785106
 H    1.6931077179   -2.3809356178   -0.0122928739
 H   -0.6678693964   -3.3227806939   -1.4747622258
 H   -0.9567783043   -2.0869820689   -0.2018573051
 H   -1.1537498362   -0.5872494757   -2.4405264826
 H    2.7064670530   -2.0122141940   -2.4899235478
 H    1.7454845532   -3.5029130855   -2.4654157359