18

 O   -0.1090382587    1.4815369165    0.1251810695
 C   -0.0384295638    0.0714632150    0.0054699184
 C    0.6808089645   -0.6304228007    1.1803995804
 C   -0.0930671027   -1.9504985584    1.3619590072
 N   -1.4711972447   -1.7510534224    0.8629041029
 C   -2.1138776237   -0.5403934863    1.3712768994
 C   -1.4511542499   -0.5176730205    0.0304635777
 C   -2.2141345949   -0.4872786719   -1.1848192346
 C   -2.8323343664   -0.4341474032   -2.2145227743
 H    0.7532609504    1.8454631536   -0.0970422774
 H    0.4243949321   -0.2081560980   -0.9514676715
 H    1.7430045722   -0.7953533365    0.9819268633
 H    0.6094982786    0.0137484893    2.0613830918
 H    0.3504822906   -2.7514981385    0.7614285819
 H   -0.1222794517   -2.2944023225    2.4006379616
 H   -3.1969164954   -0.5896732154    1.4129495056
 H   -1.6476637381    0.0218304173    2.1758430101
 H   -3.3880686785   -0.3957982674   -3.1183154419