20

 C   -0.2038939823    1.5147876414    0.0017335169
 C    0.0227275327    0.0079618788    0.0074909082
 C    1.2105026620   -0.5917310949   -0.8444222245
 C    2.1459564030   -0.1961033671    0.3473364379
 C    0.8850179594   -0.6275059712    1.1688881993
 C    0.7997433991   -2.1148166990    0.7774707479
 C    0.5248054402   -3.2414432322    1.7117437727
 C    1.0148898053   -2.0829372786   -0.5441043383
 H    0.7080662854    2.0945152808    0.1669997426
 H   -0.6283978763    1.8321613474   -0.9576307582
 H   -0.9198254691    1.7954424906    0.7828217912
 H   -0.9307172956   -0.5041343434   -0.1572616842
 H    1.4051593896   -0.2818383329   -1.8717748632
 H    3.0522139163   -0.7910097404    0.4822784767
 H    2.3801125195    0.8696615438    0.4071719447
 H    0.7436674500   -0.3571986388    2.2169717544
 H   -0.4409919937   -3.1165617290    2.2189132890
 H    0.5075584622   -4.2004547864    1.1854435600
 H    1.2833483535   -3.3030695210    2.5031294914
 H    1.0378827588   -2.8948616778   -1.2580975543