17

 O   -0.0009396179   -0.0267752516   -0.0057295448
 C   -0.0056198494    1.1638119665    0.0410110742
 C   -1.0690712250    2.2994409991    0.0010886551
 C   -0.6808808805    3.0389199024    1.2928023043
 O    0.7727422193    3.0156365289    1.2028570859
 C    1.0041898911    2.3374384571   -0.0429772501
 C   -0.0529204152    2.9398060059   -0.9794747809
 C   -0.0749858152    2.9444915047   -2.4726394848
 C   -0.0768004825    4.2494593024   -1.6939673947
 H   -2.1193885397    2.1348151211   -0.2259671920
 H   -1.0294027161    4.0776178163    1.3170367864
 H   -1.0067480100    2.5240426032    2.2032195533
 H    2.0664978334    2.2572089981   -0.2570572044
 H    0.8308196464    2.6671948999   -3.0021493622
 H   -0.9915004156    2.6499812518   -2.9736193720
 H   -0.9956257019    4.8269388118   -1.6744655853
 H    0.8279513187    4.8480013423   -1.6932587778