19

 C   -0.1117107821    1.5159917941    0.0199209043
 C    0.0266819529    0.0095133342    0.0332085570
 C    1.3885688118   -0.6463437348   -0.1253932096
 O    2.5486413044    0.1346161438   -0.1741569363
 C    0.6873609297   -0.6888966113    1.1943585571
 C    1.2620793478   -0.0987872652    2.5082725865
 C    0.7954413822   -1.3911123868    3.2034636702
 O   -0.6186857922   -1.5050255782    3.0062256539
 C    0.2531712604   -1.9320533235    1.9465798449
 H    0.7931593441    1.9958106524    0.4012474633
 H   -0.2859693650    1.8874060989   -0.9965419950
 H   -0.9545448701    1.8382538671    0.6397438451
 H   -0.7987691401   -0.5294661695   -0.4275470922
 H    1.4405659962   -1.5714593757   -0.7018558562
 H    2.6088339978    0.5290164774   -1.0508239868
 H    2.3477053553    0.0141128152    2.4664080601
 H    0.8049879569    0.8184267293    2.8874115122
 H    1.2205262491   -1.8942014443    4.0638308680
 H    0.1442657610   -2.9503743529    1.5904229235