19

 C   -0.0101585061    1.5265223018    0.0219254997
 C   -0.0161761805   -0.0088426770   -0.0205911283
 C   -1.4580240328   -0.5345363865    0.0199209903
 C    0.7692228588   -0.5534392891   -1.2467619600
 C    1.9306102622   -1.3079869388   -0.6272406915
 O    2.8629321183   -1.8657251572   -1.1531697514
 C    1.7057900488   -1.2028463237    0.8581621175
 N    2.5638559934   -1.8546275254    1.6847207169
 N    0.6857157148   -0.5026034997    1.1910734999
 H    1.0139665356    1.9121671728   -0.0104934927
 H   -0.5625009856    1.9431870442   -0.8268632410
 H   -0.4735810349    1.8790283824    0.9474721455
 H   -2.0341648618   -0.1611027093   -0.8332552173
 H   -1.4732239826   -1.6288000086   -0.0056448702
 H   -1.9503796408   -0.2124223272    0.9416327404
 H    0.1797297234   -1.2387419259   -1.8644444307
 H    1.1439116387    0.2321014656   -1.9094608160
 H    3.4259913102   -2.1678826447    1.2666433971
 H    2.5767687509   -1.6091428840    2.6605877419