17

 C    0.0148251246    1.5518221113   -0.0556628006
 C    0.0053436852    0.0576432989    0.0224636105
 C    0.0320068073   -0.8080460347   -1.0328042473
 O    0.0137437323   -2.1377777502   -0.6062688715
 C   -0.0250028736   -2.0412272240    0.7197588416
 C   -0.0378856195   -0.7810188676    1.1933807002
 C   -0.0225486948   -0.8668158362    2.6946123177
 C   -0.1655490386   -2.4238331981    2.8817569907
 O   -0.0242106030   -3.0756176157    1.5728676957
 H    0.8837742281    1.9747363148    0.4617694944
 H    0.0457682767    1.8930039970   -1.0940569769
 H   -0.8774655747    1.9830682150    0.4127410241
 H    0.0522898831   -0.6742375363   -2.1004624086
 H    0.9078222429   -0.4955131842    3.1424208108
 H   -0.8473303223   -0.3458227108    3.1928104514
 H    0.5981471019   -2.8510202785    3.5337378170
 H   -1.1537269157   -2.6924198406    3.2651439610