21

 C    0.1968221645    1.6106847629   -0.0401380081
 C    0.0084677603    0.1050341568    0.0274476619
 C   -1.4453986135   -0.3640879382    0.0154395455
 O   -1.4155979006   -1.6693804327    0.5989819873
 C   -0.5252317624   -1.5654262824    1.7148610129
 C    0.6345308748   -0.6828919908    1.2402797051
 C    1.6338712086   -1.3749710944    0.2775254897
 C    0.9168752008   -0.7413726654   -0.9478545111
 O    0.2545322048   -1.6297464179   -1.8146415673
 H    1.2565377452    1.8818977519    0.0139788426
 H   -0.1965275215    2.0142057454   -0.9807019990
 H   -0.3183099578    2.1179349076    0.7836295797
 H   -2.0801471306    0.3110375218    0.6119132240
 H   -1.8655579889   -0.4584912242   -0.9883441534
 H   -1.0458009290   -1.0986697837    2.5658810616
 H   -0.2307032676   -2.5793826651    1.9997286970
 H    1.0709255942   -0.0945479492    2.0496969571
 H    2.6690361513   -1.0471963742    0.4025042247
 H    1.6171598837   -2.4696467630    0.2828860684
 H    1.5590490461   -0.1267869525   -1.5847651308
 H   -0.3217717423   -2.1797127727   -1.2654541077