19

 C    0.2071122758    1.5294742176    0.2516555359
 C   -0.1058279046    0.0570159800   -0.0729252535
 C    0.5624455680   -0.4471462134   -1.3133820471
 C    0.0533195186   -0.7609985966   -2.5543374429
 C    1.1307966594   -1.1745485689   -3.3965247613
 C    1.0414071940   -1.6116472316   -4.8277969653
 C    2.2720788103   -1.0979584090   -2.6326780234
 N    1.9206143817   -0.6570137591   -1.3776821766
 H    1.2799816513    1.6855169442    0.4071756721
 H   -0.1042814260    2.1811029290   -0.5700615895
 H   -0.3113671629    1.8493844219    1.1612969734
 H    0.1714920312   -0.5677620020    0.7878328641
 H   -1.1863284470   -0.0650030111   -0.1988431545
 H   -0.9894744793   -0.7019565879   -2.8320820309
 H    0.6320807698   -0.8231346365   -5.4707610569
 H    2.0269499204   -1.8777130586   -5.2219327112
 H    0.3921042499   -2.4873784232   -4.9467108803
 H    3.2980985774   -1.3242037658   -2.8776341483
 H    2.5599796721   -0.5201052790   -0.6146641438