16

 O    0.0211752384    0.1039052300   -0.6818378549
 C   -0.0579042514    1.2177350313   -0.2442687905
 C   -1.2197271041    2.1625845726    0.1156060170
 C   -1.4580507024    2.3412422333    1.6366399466
 O   -0.4602848597    3.3815934059    1.7350032820
 C   -0.1636269303    3.3001779502    0.3279653566
 C    0.9604927820    2.3059512408    0.0164635058
 C    2.3145757578    2.1439375938    0.6071257771
 N    2.1618367413    2.5521432264   -0.7878113695
 H   -2.0779517564    2.1983273127   -0.5526971854
 H   -2.4550869394    2.7243594928    1.8802513783
 H   -1.2367861383    1.4780578556    2.2743904090
 H   -0.1528282134    4.2657846293   -0.1789123539
 H    2.6765128001    2.9179715665    1.2772694577
 H    2.6413090789    1.1318811849    0.8317854222
 H    2.3045008869    1.7531910038   -1.4057679481