18

 C   -0.1831198097    1.3433468127    0.0251739186
 O   -0.0482045456   -0.0788004041    0.0569836636
 C    0.5962192583   -0.5583459147    1.1515232252
 O    1.0454562974    0.1254117845    2.0452406997
 N    0.6454987121   -1.9151844773    1.1115168696
 C    0.5294736142   -2.8458688093   -0.0167917563
 C    1.2961178478   -3.8933286338    0.8289240687
 O    2.4234977125   -4.3848017005    0.1514366706
 C    1.5319233429   -2.7744581264    1.8954924195
 H    0.7960114275    1.8289312610    0.0465120117
 H   -0.6993236929    1.5707515803   -0.9082059740
 H   -0.7673936973    1.6986785765    0.8782320722
 H   -0.4969211972   -3.0922667069   -0.3014030743
 H    1.0945033241   -2.5411249209   -0.9039388343
 H    0.6564635650   -4.7043113105    1.1970573868
 H    2.8713803607   -5.0187814059    0.7206671569
 H    2.5697370059   -2.4234052688    1.9220131972
 H    1.1848637243   -2.9736579161    2.9139149086