14

 O    0.1232056121    1.4054494390   -0.3394629183
 C    0.0328053319    0.0414995489    0.0308828940
 C   -1.3400234514   -0.4721268213    0.0196658319
 C   -2.4881510336   -0.8339772487    0.0261073745
 C   -3.8510515139   -1.3572875918    0.0229780768
 C   -3.7801696565   -2.9127502928    0.1285930531
 O   -4.1683897440   -3.6350189623   -0.7395261588
 C   -4.6487273553   -0.8387859218    1.1420107797
 N   -5.2841681651   -0.4700711531    2.0333421488
 H   -0.4250423801    1.9138200442    0.2678227280
 H    0.6381053934   -0.5095126630   -0.6969158220
 H    0.4765692093   -0.1454214009    1.0211886781
 H   -4.3636562814   -1.1324629298   -0.9193162996
 H   -3.3177812053   -3.2729578067    1.0681614837