23

 C   -0.3027513016    1.2329441280   -1.4991434983
 C   -0.0604742649   -0.0820010757   -0.7863372173
 C    1.3226769913   -0.6005164391   -0.4406717990
 C    2.5982028019    0.1445854935   -0.7761876938
 C    0.3776697025   -0.1646998746    0.6629233043
 C    0.6119691992    1.0655890375    1.5219873725
 C   -0.6504187455    1.5167424073    2.2222176215
 C   -0.9361513937    2.9281161953    2.5063744551
 O   -1.6040562574    2.2454073418    1.4431645261
 H    0.4794689070    1.9711495887   -1.3059801144
 H   -0.3414659897    1.0803992569   -2.5835082560
 H   -1.2490932350    1.6775105639   -1.1775497724
 H   -0.7704117640   -0.8514208012   -1.0811596237
 H    1.4375667782   -1.6786660098   -0.5294586728
 H    2.4942005720    1.2286497695   -0.6895326519
 H    3.4136819848   -0.1586398512   -0.1096046537
 H    2.9154579842   -0.0706552803   -1.8027075346
 H   -0.0661250443   -0.9815167645    1.2298074227
 H    1.3683220533    0.8432043302    2.2882122610
 H    0.9985462794    1.9011842304    0.9324786021
 H   -1.1071080632    0.7712470244    2.8773526972
 H   -1.5625716538    3.2001109985    3.3550489801
 H   -0.2230066808    3.6913392307    2.1959009253