18

 C   -0.0853939993    1.5545046361    0.0828127079
 C    0.0066308357    0.0598482986   -0.0106394231
 C   -0.7841805904   -0.9002984876    0.8653168494
 C    0.7092427841   -0.9765406356    0.8394847707
 O    1.1622544969   -1.7264362008   -0.2936590013
 C    0.6058307912   -0.7144681224   -1.1910046077
 C   -0.2559540250   -1.3462511965   -2.2689054976
 O    0.4884390364   -2.3112472002   -2.9901775910
 H    0.8340394193    2.0336297907   -0.2719053765
 H   -0.9175759947    1.9431316241   -0.5163147472
 H   -0.2514385814    1.8744560472    1.1163394420
 H   -1.2098467030   -0.4320229604    1.7483639496
 H   -1.3724675132   -1.7154648053    0.4547570088
 H    1.3704568818   -0.9064426854    1.6957008910
 H    1.4353004549   -0.1635763523   -1.6537757804
 H   -1.1610970466   -1.7859512470   -1.8246729859
 H   -0.5734622429   -0.5827324597   -2.9881544343
 H    0.8642191861   -2.9049729932   -2.3287166844