16

 O   -0.0056771903    0.0300816766    0.0223292064
 C   -0.0348430393    1.2323294529    0.0196862632
 C   -1.2211099341    2.1370272325    0.0778991811
 C   -0.6803850513    3.4238807451    0.6468491572
 N    0.7202193024    3.2384839355    0.9535076318
 C    1.1725074606    2.1921474573   -0.0104533869
 C    1.2081619150    2.7760524940   -1.4110527030
 C    0.0721085539    3.3745827900   -1.7937848754
 C   -1.0597078128    3.3655603459   -0.8412080685
 H   -2.2046603759    1.7408683991    0.2855607068
 H   -1.2479246012    4.0516902587    1.3222479922
 H    1.2341474303    4.1023744288    0.7888209260
 H    2.0962814077    1.7148071898    0.3102654755
 H    2.1099584619    2.7449876318   -2.0106483092
 H   -0.0305548480    3.9024790795   -2.7355687959
 H   -1.9894962788    3.8399502126   -1.1311841214