15

 N   -0.1968271064    1.4281867920   -0.1138410734
 C   -0.0258902276    0.0330150323    0.0128566849
 C   -0.2323384046   -0.8844579888   -1.2307581593
 N    0.6604199165   -2.0224212799   -1.4124299571
 C    0.6571677250   -2.6102548824   -0.2860051102
 N   -0.1567837622   -1.9990351403    0.7575021231
 C   -1.0764049473   -1.1042265531   -0.0375629178
 C    0.6153781001   -0.7488402947    1.0912009677
 N    1.3536580413   -0.4546831368    2.0623314829
 H   -0.2220409648    1.8680126819    0.8011041921
 H    0.5656903829    1.8478755341   -0.6353711029
 H   -0.5951274550   -0.3733079241   -2.1128335213
 H    1.2595814681   -3.4775169192   -0.0418698296
 H   -2.1462638169   -1.0909875781    0.1178177927
 H    1.4878233509   -1.2542724829    2.6832734982