13

 O   -0.1667968506    1.3998551683   -0.0776126246
 C    0.0081958138   -0.0022814132    0.0248538383
 C    0.1882801541   -0.4754832084    1.4931410826
 C   -1.3549295695   -0.5763981123    1.5660944572
 O   -2.1528422380   -0.5055580662    2.4503513341
 C   -1.4385733353   -0.5995017056    0.0127039695
 O   -2.4405632633    0.0574818095   -0.6823807428
 H    0.6532822947    1.8390173980    0.1669039828
 H    0.7149388436   -0.3836765475   -0.7188305807
 H    0.6711551618   -1.4545460835    1.5749838985
 H    0.6617033683    0.2223357747    2.1870833846
 H   -1.4141197527   -1.6441303948   -0.3212891551
 H   -2.3119200468    1.0013252209   -0.5227823643