17

 O    0.1927969734    1.1970166064   -0.1845946343
 C   -0.0648993852   -0.1359116993    0.1996678382
 C   -1.5665188316   -0.4507852872    0.0825290144
 O   -2.0135040775   -0.0843875065   -1.2305082190
 C   -2.5202288554   -1.2266893686   -1.9279928490
 C   -2.4424040830   -2.3491794809   -0.9329023373
 C   -1.9072834159   -1.9154680820    0.2024742305
 C   -2.3631636967    0.3623206260    1.1141968161
 O   -2.0978024424    0.3847037964    2.2856598308
 H   -0.2098186077    1.3042169344   -1.0552472593
 H    0.4968150094   -0.8584056157   -0.4121626510
 H    0.2436358092   -0.2421702322    1.2434444684
 H   -3.5474984265   -1.0238002093   -2.2630319920
 H   -1.9159014125   -1.4195130171   -2.8274608602
 H   -2.7737089262   -3.3565135584   -1.1505175796
 H   -1.7250764299   -2.4766344035    1.1088283856
 H   -3.2323089317    0.9023513674    0.6786911279