17

 C   -0.3504293999    1.3761793240    0.4367905907
 N    0.1028435415    0.0570037502   -0.0046423704
 C   -1.0177345348   -0.8271107743   -0.3505745131
 C   -1.4176312608   -1.5618303860    0.9414696919
 O   -2.4498979738   -2.1438351231    1.1548886901
 C   -0.2250990638   -1.3974411034    1.8515384142
 C    0.8358354610   -0.6636692142    1.0556008815
 N   -0.0400418336   -1.7500596649    3.0656797717
 O   -1.1231855440   -2.3918250344    3.6337453920
 H    0.5198249368    1.9935588413    0.6774480288
 H   -0.8911800133    1.8623212565   -0.3801724594
 H   -1.0120402692    1.3587790738    1.3217236837
 H   -1.8609857669   -0.2824763640   -0.7793951309
 H   -0.6968411380   -1.5782008476   -1.0872849474
 H    1.5250664942   -1.3822314026    0.5901491962
 H    1.4301571400    0.0189386717    1.6649875045
 H   -0.8115605355   -2.5682832632    4.5293798359