22

 C    0.4029539752    1.4766172466    0.0783605681
 C   -0.2255218822    0.0871239445   -0.0893160015
 C    0.3681904376   -0.6722123266   -1.2570635337
 N    1.7366277953   -1.2525492454   -1.2858462685
 C    1.9914526554   -1.8749730135    0.0644941637
 C    0.7865184824   -2.8351359640   -0.0655263617
 C    0.4831560049   -2.1387859438   -1.3954962228
 C    0.2226697148   -2.8845718851   -2.6740585525
 O    1.2494351394   -3.8258147360   -2.9451571922
 H    1.4768727448    1.4019246958    0.2758012930
 H    0.2773623021    2.0776736407   -0.8285390230
 H   -0.0587134314    2.0207620602    0.9076660535
 H   -0.1339803136   -0.4778731328    0.8427139011
 H   -1.3028372761    0.1889634984   -0.2726476267
 H    0.1912412094   -0.1649081890   -2.2058982605
 H    2.9599254152   -2.3785505283    0.0493420313
 H    1.9846686810   -1.1638116628    0.8959730740
 H    1.0927940854   -3.8706694742   -0.2188901174
 H    0.0069561603   -2.8009848964    0.7007878442
 H   -0.7083384256   -3.4590879444   -2.5997767426
 H    0.1071157391   -2.1685390218   -3.5024020941
 H    2.0734691566   -3.3234642922   -2.9350571118