23

 C    0.0029649310    1.5692073072    0.2004572653
 C    0.0206566775    0.0396691664    0.0628281251
 C    0.7379512160   -0.5983564306    1.2611203096
 O   -1.3242586713   -0.4545428303   -0.0092811993
 C    0.6826013170   -0.4226228021   -1.2490873498
 C    0.0330956114    0.1004731851   -2.5252525516
 C    0.4566845475    1.4770132228   -3.0939319831
 O    0.8003996845    0.8993862992   -4.3679719423
 C    0.5802604151   -0.4351209829   -3.8679577526
 H    1.0151935818    1.9857426865    0.1870918178
 H   -0.5741192432    2.0273188259   -0.6066451621
 H   -0.4596450799    1.8610864628    1.1509243750
 H    0.2475522028   -0.3148918197    2.1998842600
 H    0.7149824566   -1.6888356801    1.1812950851
 H    1.7822863532   -0.2749011201    1.3217886310
 H   -1.7926403971   -0.1529908025    0.7761583324
 H    1.7453282416   -0.1495428097   -1.2300311938
 H    0.6389696778   -1.5190674203   -1.2615876181
 H   -1.0504352846   -0.0027886440   -2.4483451076
 H   -0.3260317889    2.2398033437   -3.1869932436
 H    1.3310776140    1.9272740348   -2.6019075743
 H    1.5202531984   -1.0001562617   -3.7839154406
 H   -0.1170379911   -1.0016784802   -4.4964875325