17

 O   -0.0611000536   -0.0414682107   -0.0455554606
 C   -0.0366210991    1.1439489984    0.0720478079
 C   -1.0900513163    2.2514064332    0.2247647492
 N    0.0156535802    3.1816993270    0.5613966049
 C    0.0045552303    4.4828665875   -0.0716478891
 C    1.1305947184    5.3645370488    0.5013202516
 C    1.1473060386    6.6959474592   -0.0975415528
 N    1.1421356056    7.7442221394   -0.5833547198
 C    1.0653040160    2.2126581591    0.1549055918
 H   -1.5905917543    2.4626575303   -0.7342904260
 H   -1.8489153243    2.1244713154    1.0034577955
 H    0.1121508227    4.4229324395   -1.1712793545
 H   -0.9593034259    4.9597603604    0.1322211391
 H    1.0056621701    5.4522904781    1.5853893383
 H    2.1044042941    4.8914777727    0.3292631163
 H    1.8685246326    2.0499187171    0.8803664359
 H    1.5087692449    2.4085139845   -0.8360469478