20

 C    0.2538195084    1.6188774050   -0.1949649797
 C    0.0366661465    0.1280226708    0.0177955017
 C    0.8008789240   -0.8919134913   -0.8707796532
 N    1.1980691382   -1.7136617583    0.3267309329
 C    2.6206475084   -1.5070549361    0.7908509801
 C    3.7749527073   -1.4787967681   -0.1956923788
 C    2.1735112712   -0.2251270985    1.5236339110
 O    2.7326533790    0.7001346744    2.0357745315
 C    0.7056675583   -0.5869880747    1.2206594029
 H    1.3155060331    1.8809032537   -0.1689523438
 H   -0.1503149985    1.9308149731   -1.1641980829
 H   -0.2497655023    2.2060154808    0.5800502851
 H   -1.0346282804   -0.0937682319    0.0201558652
 H    0.1970578003   -1.4640271077   -1.5798965887
 H    1.6410230372   -0.4488854001   -1.4164874923
 H    2.8167648874   -2.2820973787    1.5456913074
 H    3.6960728867   -0.6606383244   -0.9157548461
 H    4.7127009204   -1.3445905811    0.3511855221
 H    3.8325954123   -2.4226766520   -0.7466546183
 H    0.0917949326   -0.8375110948    2.0910056038