22

 C   -0.1027668484    1.4887408119   -0.0145674656
 C   -0.0307936139   -0.0397913106   -0.0356406206
 C   -1.4313751140   -0.6113044736    0.1451731656
 C    0.8624921975   -0.6396372541   -1.1624157774
 C    2.0397666985   -0.3898304692   -0.2028201929
 N    1.0617455687   -0.5095970004    0.9439393007
 C    0.8974240366   -1.9547016827    1.1887092164
 C    0.9477659569   -2.7923931116   -0.1250205907
 O    0.5996557021   -2.0324587838   -1.2882802433
 H    0.8723959628    1.9668124347   -0.1252620445
 H   -0.7470666880    1.8494261257   -0.8234257757
 H   -0.5280356591    1.8252808156    0.9361993420
 H   -2.1174669194   -0.1217307953   -0.5535834312
 H   -1.4822406392   -1.6829934027   -0.0480171728
 H   -1.7981648638   -0.4140122793    1.1586036998
 H    0.8440778243   -0.2231229742   -2.1743581917
 H    2.8589016745   -1.1119214364   -0.1970202362
 H    2.4602834782    0.6144922639   -0.2586591773
 H    1.7038074325   -2.2851330780    1.8538276312
 H   -0.0412964944   -2.1093467405    1.7258305864
 H    1.9537730192   -3.2110923363   -0.2633320426
 H    0.2516311784   -3.6361656431   -0.0837657598