15

 O   -0.1871799564    1.2947062663   -0.0732038229
 C   -0.0010532660   -0.0685336975   -0.0736803958
 C    0.9575529302   -0.9028587906   -0.9172085867
 C    0.1261280705   -2.1135295820   -0.4157416248
 N    0.4811734889   -2.1608937126    1.0457608708
 C   -0.3369199658   -0.9402828132    1.1823073266
 C   -1.0922065276   -1.0993704461   -0.1200542510
 O   -2.3823831349   -0.9650297945   -0.5504877651
 H    0.4997382912    1.6960769266    0.4709104370
 H    0.8073882127   -0.7135905171   -1.9830928767
 H    2.0219621778   -0.9210029787   -0.6652307373
 H    0.1035239770   -3.0534885473   -0.9624932357
 H   -0.0375896222   -2.9310155686    1.4680009750
 H   -0.6004411341   -0.4730789695    2.1233762025
 H   -2.9331984313   -1.6076674853   -0.0888252958