10

 N   -0.2394464701    1.3135332116    0.0116252253
 C   -0.0272003202    0.0768215529    0.0026392525
 O   -1.1279069625   -0.7572494093    0.0077988710
 C   -0.9144904676   -2.1049085258   -0.0014291469
 O    0.1477372784   -2.6530627382   -0.0138396153
 C   -2.2808324483   -2.8092979253    0.0067291262
 O   -2.3652897627   -4.0030212931    0.0008206446
 H    0.6449027883    1.8203476331    0.0065447538
 H    0.9158006551   -0.4693387844   -0.0089695184
 H   -3.1514188103   -2.1256688515    0.0181804273