20

 C   -0.2592181352    1.3790391712   -0.1058675393
 O   -0.1644442798   -0.0245234814   -0.0656408607
 C    0.7074112606   -0.5411834608   -1.0514737537
 C    0.7398976640   -2.0198734797   -0.9358816459
 C    1.1278720789   -3.1200069663   -1.8514576834
 C    1.8996516626   -3.8492056978   -0.7533336425
 C    1.0175655953   -3.0442161817    0.2399287483
 C   -0.3908159573   -3.5693208761   -0.0734965340
 N   -0.3138629836   -2.9476670623   -1.4381337732
 H    0.7178985027    1.8609015290    0.0610609824
 H   -0.6548389724    1.7349608635   -1.0703975868
 H   -0.9430808841    1.6836839668    0.6898755885
 H    0.3644369823   -0.2695956856   -2.0642122011
 H    1.7204124728   -0.1200868547   -0.9222279979
 H    1.3179421215   -3.0911934771   -2.9167369009
 H    1.8515449043   -4.9426617049   -0.7043535304
 H    2.9429369672   -3.5232924598   -0.7336206897
 H    1.3576993481   -2.8249513226    1.2496717443
 H   -0.5549577535   -4.6535990938   -0.0595141494
 H   -1.1795404844   -3.0601901058    0.4843018056