20

 C    0.3809227330    1.6890658285    0.0137251389
 C    0.1866934478    0.1822285410    0.0395082988
 C    0.6728440466   -0.7218245202   -1.1366810285
 C    2.0026852695   -0.3269270305   -1.8383931304
 C    2.8111614374   -1.2020565504   -0.8296499929
 C    1.4940195433   -1.5531117682   -0.0892248148
 N    1.0854809102   -0.5817759987    0.9269838185
 C    1.1712465838   -0.5798551001    2.2750021713
 O    0.6048356509    0.2111501832    3.0045848949
 H    1.4188504680    1.9619850954   -0.1956241222
 H   -0.2598566774    2.1408945757   -0.7508896792
 H    0.1126863465    2.1058362049    0.9872361609
 H   -0.8601032444   -0.0383722589    0.2880261312
 H   -0.1075585832   -1.1569815619   -1.7583931001
 H    2.0636552578   -0.6850275177   -2.8682530093
 H    2.2370946756    0.7393551558   -1.8418789564
 H    3.2805834228   -2.0722669280   -1.2958815630
 H    3.5556030748   -0.6870502390   -0.2186779696
 H    1.3001230745   -2.5974816027    0.1668440989
 H    1.8320526325   -1.3899735481    2.6496441631