18

 C   -0.0364072111    1.3135122672   -0.1506032718
 O   -0.0507656883   -0.0333282211    0.2598651462
 C   -1.3104430305   -0.6448531475    0.1446678603
 C   -1.7285533195   -1.0468579081   -1.3128828387
 C   -1.7974813110   -2.5703885389   -1.0756252454
 C   -2.5796455897   -2.7003274976    0.2519501816
 C   -1.2515246835   -2.0703890762    0.7270354448
 O   -0.5678713119   -2.8151600524   -0.3260086192
 H    0.9754717329    1.6917013881    0.0134806968
 H   -0.2859232318    1.4271579478   -1.2164348447
 H   -0.7436346810    1.9246617284    0.4332446203
 H   -2.0749754883   -0.0299050702    0.6446223407
 H   -2.6755679677   -0.6113257412   -1.6417717230
 H   -0.9425931251   -0.7933448043   -2.0274171228
 H   -1.9383303378   -3.2339436514   -1.9287796056
 H   -3.5163596451   -2.1506654253    0.3814339702
 H   -2.6729251404   -3.7369344414    0.5756410649
 H   -0.8259264101   -2.1978571160    1.7214104053