19

 C    0.0325955255    1.5327815002    0.2318539648
 C   -0.1185494828    0.0364776061   -0.0730443075
 C    0.6822501738   -0.4457865316   -1.2658732186
 C    0.9440161203   -1.9635249722   -1.4504568341
 O    2.3788876051   -1.7551992560   -1.5278196712
 C    2.2263285557   -0.3383495863   -1.3896723706
 C    2.0456901454    0.4606060366   -2.7163834133
 O    1.2860910861   -0.3543554563   -3.6103637558
 C    0.5760835737    0.3569638383   -2.5980854991
 H    1.0772996809    1.7937924994    0.4314520186
 H   -0.3113264139    2.1561087805   -0.5995165519
 H   -0.5521346455    1.8080320339    1.1142895651
 H    0.1817127491   -0.5440475889    0.8079794015
 H   -1.1794049536   -0.1960319323   -0.2429918058
 H    0.6824453800   -2.5713914156   -0.5754863104
 H    0.5475846349   -2.4198914837   -2.3613257344
 H    2.8783836109    0.1142191400   -0.6371632097
 H    2.6823057854    1.2187166201   -3.1595565154
 H   -0.2140643211    1.0250244776   -2.9236812321