17

 C   -0.0545718841   -1.2111395692   -0.0943515253
 C   -0.0132814881   -0.0119081379   -0.0213855174
 C    0.0174109637    1.4341642371    0.0542470036
 C   -0.2832974077    2.0674667789    1.4464928904
 C    0.9346220158    1.5622996200    2.2389369699
 O    2.0055027134    1.6157894807    1.2694883073
 C    1.4177556924    2.0994788053    0.0828700825
 O    1.1107178287    3.4752846001    0.1989823518
 C   -0.0143656277    3.5423669228    1.1040694213
 H   -0.0810569305   -2.2704852232   -0.1625860235
 H   -0.6012575707    1.8776141461   -0.7314537597
 H   -1.2546351863    1.8544055755    1.8897469813
 H    1.1770792278    2.2071513366    3.0908071255
 H    0.8127441498    0.5315516427    2.5879513255
 H    2.1007746429    1.9482794028   -0.7499319320
 H   -0.8613780162    4.0220762226    0.5982199348
 H    0.2555253268    4.1378178991    1.9835799738