18

 C   -0.0800075410    1.5661994973   -0.0158224005
 C    0.0711886146    0.0423010589   -0.0159949134
 C    0.7621325524   -0.5100703297   -1.2674867262
 C    0.8978836287   -2.0274820588   -1.1477016505
 C    1.6516156757   -2.4077760119    0.0951268963
 N    2.4317349553   -3.3955377642    0.1518987994
 O    1.4483161763   -1.6228305737    1.2245013639
 C    0.7599276039   -0.4260901501    1.2602773871
 O    0.7313226089    0.1613053485    2.3016801233
 H    0.8972571856    2.0551008543   -0.0787758162
 H   -0.6766562583    1.8843302795   -0.8755673851
 H   -0.5658296677    1.9073194768    0.8993292664
 H   -0.9335999172   -0.4063021230    0.0326022787
 H    0.1824186488   -0.2469969380   -2.1569802460
 H    1.7505678470   -0.0481225783   -1.3831267411
 H   -0.1021605739   -2.4796369935   -1.0970949487
 H    1.4122424757   -2.4790585106   -1.9969071461
 H    2.8260813851   -3.4876702236    1.0903218287