21

 C    0.2520570152    1.5015946284    0.2730052076
 C    0.0396691675    0.0029429797    0.0725465706
 O    0.5836759845   -0.6368491625    1.2243369837
 C   -1.4556942473   -0.3345125003    0.0151014442
 O   -2.3222961836    0.3822040932   -0.4090736211
 C    0.6845634167   -0.5083795558   -1.2379483392
 C    0.2176029230    0.1813784327   -2.5094612667
 C    2.1280989013   -0.9416849335   -1.1727804130
 C    1.0434196193   -1.9773083819   -1.3433207921
 H    1.3095774304    1.7526808509    0.1598651846
 H   -0.3381895921    2.0701315929   -0.4466773215
 H   -0.0685929865    1.7820123114    1.2791784973
 H    0.3586284413   -1.5736537682    1.1962529914
 H   -1.6904882008   -1.3573700602    0.4013173658
 H    0.5095402293    1.2362153917   -2.5227677665
 H    0.6677778938   -0.2952226250   -3.3851475894
 H   -0.8696464547    0.1368485095   -2.6235153939
 H    2.7603759152   -0.7100900886   -2.0231305019
 H    2.6204254031   -0.8991957144   -0.2088181493
 H    0.8577361425   -2.6471110760   -0.5094972832
 H    0.9203969119   -2.4534729639   -2.3099525174