21

 C    0.0555360236    1.6911651823    0.0044994425
 C   -0.2209257815    0.1832381022   -0.0448732817
 C    0.5834339038   -0.5090594400   -1.1362223166
 C    2.1163353408   -0.7476864660   -1.0699486112
 C    2.3466702856   -1.5659517413    0.2162575322
 C    1.2173403771   -2.6250961859   -0.0218638380
 O    0.1983261370   -2.6884292670    0.9598064887
 C    0.6785571498   -2.0433702722   -1.3465915011
 O    1.9355631193   -1.8188297221   -2.0563960015
 H    1.1060733946    1.8977221278    0.2384318096
 H   -0.1667580650    2.1696453674   -0.9559390671
 H   -0.5552697772    2.1801898019    0.7694374384
 H   -0.0256653812   -0.2719549100    0.9280886799
 H   -1.2872329047    0.0136165290   -0.2418409215
 H    0.3655308088   -0.0651051885   -2.1129063193
 H    2.8527710525    0.0031297039   -1.3572613477
 H    3.3466654937   -2.0045143373    0.2340434777
 H    2.1880514207   -0.9984409341    1.1376586554
 H    1.6379603085   -3.6208514170   -0.2076859353
 H    0.5614076855   -3.1113821016    1.7434344047
 H   -0.0604794518   -2.6239116115   -1.8986166580