18

 C    0.3321390055    1.4234315794    0.1629145447
 C    0.0341720845   -0.0298548805    0.0210906259
 C   -0.0697389373   -0.8574695144   -1.0729233997
 N   -0.3633460058   -2.1188002636   -0.6551494427
 N   -0.4557784768   -2.1242073328    0.6411268963
 N   -0.2110159854   -0.8604993559    1.0723722759
 C   -0.2584639382   -0.5202706687    2.4642917362
 C    0.0939171879   -1.5724345850    3.4710198057
 C    1.0327723424   -0.4153358873    3.2447125001
 H    1.1968031258    1.5984167540    0.8121213582
 H    0.5494789271    1.8552674014   -0.8162004162
 H   -0.5132779433    1.9744192825    0.5912277004
 H    0.0522738729   -0.6176144860   -2.1174017205
 H   -1.0552572915    0.1753340203    2.7085733057
 H   -0.4911468149   -1.5998198615    4.3824855819
 H    0.3760705396   -2.5403715042    3.0788842501
 H    1.9517238769   -0.6157881888    2.7058211219
 H    1.1034839508    0.3623614411    3.9965379360