15

 O    0.0062705279    0.0195794031    0.1489008097
 C   -0.0180565472    1.2143647948    0.0252872870
 C   -1.2648193613    2.1140626720   -0.0356330560
 C   -0.6846579575    3.4677570042   -0.3773323933
 C    0.4245654614    4.0624590019    0.4137138475
 C    1.2068144837    3.0342043074    1.2173908725
 C    1.1686726746    2.1579726998   -0.0740973553
 N    0.7130177979    3.3562247003   -0.8958130379
 H   -1.9394564378    1.7538420999   -0.8187535842
 H   -1.8111516673    2.0706268075    0.9121749826
 H   -1.2907890104    4.1665077148   -0.9444972753
 H    0.5291883263    5.1392230694    0.5078830419
 H    2.2238405702    3.3751071236    1.4182675051
 H    0.7748816162    2.6346857910    2.1404365288
 H    2.0929261133    1.6947227902   -0.4104880431