22

 C   -0.0662878279    1.4663795499    0.4459526529
 C    0.0259461892   -0.0430356409    0.2800105485
 O    1.0475908374   -0.6808839121    0.4732706527
 N   -1.1273738129   -0.6501102209   -0.1029061342
 C   -2.4574680526   -0.1923537580   -0.4959615415
 C   -2.8239933540   -1.6794723038   -0.8334747406
 C   -3.8979257106   -2.2683582541    0.0768063023
 C   -3.1322648780   -1.9227619503   -2.3076782776
 C   -1.3605859043   -2.0552538846   -0.4139948053
 H    0.8953105950    1.8348450634    0.8018700358
 H   -0.3077301404    1.9514517141   -0.5062142507
 H   -0.8492440594    1.7407777272    1.1606879045
 H   -3.0416104193    0.2587682855    0.3161521237
 H   -2.4659653252    0.4912110782   -1.3546366869
 H   -4.8782351951   -1.8259363369   -0.1335144628
 H   -3.9824720244   -3.3509692840   -0.0691486895
 H   -3.6670668398   -2.0899344939    1.1320805118
 H   -2.3559664759   -1.4986333225   -2.9527937322
 H   -3.1955763107   -2.9955673913   -2.5212048939
 H   -4.0895426322   -1.4697979360   -2.5896365736
 H   -0.7224097671   -2.4393045656   -1.2178622223
 H   -1.2709998020   -2.7219343433    0.4508819790