19

 C    2.4210161649    0.8312892306    0.7936079740
 C    1.3984260322   -0.3037996368    0.6224678715
 C    0.0581097553    0.1263797120    1.0287467248
 C   -1.0336914636    0.4884543441    1.3767583304
 N    1.3856815399   -0.7127209008   -0.7878926258
 C    2.3370954460   -1.7467783435   -1.1905980771
 C    0.8733451420   -2.0324751981   -1.1677565859
 C    0.2757973687   -3.0160157389   -0.1841644734
 H    3.4176922278    0.4783526198    0.5127813512
 H    2.1543461303    1.6729528228    0.1505888386
 H    2.4478944048    1.1702699944    1.8322731302
 H    1.7013641159   -1.1314311219    1.2869196647
 H   -2.0002952684    0.8057547791    1.6810596836
 H    2.8693963679   -1.5705849654   -2.1216986096
 H    2.9364282763   -2.2175299770   -0.4103376308
 H    0.3449015825   -1.9994505931   -2.1196699968
 H    0.8771057231   -3.1234250830    0.7220913784
 H   -0.7322680652   -2.7104225024    0.1124546858
 H    0.2056419298   -4.0044627717   -0.6503237038