14

 O   -0.0348215129    1.2039701371   -0.2713995256
 C   -0.0812721691   -0.1626850038   -0.0497470350
 C   -0.5002648986   -0.6165670686    1.3394004284
 C   -1.4889929300   -0.6957284785    0.1636629679
 C   -1.3394682542   -2.1934826230    0.2952211493
 N   -1.1873498332   -3.3542971009   -0.3070973334
 C   -0.2318564054   -3.9296421840    0.5059283992
 N    0.2630959319   -3.1793502758    1.4899813777
 N   -0.5471823593   -2.0879351262    1.3867103223
 H    0.8680036585    1.5083022108   -0.1278413615
 H    0.6342358168   -0.7695250316   -0.6046790054
 H   -0.5165060001    0.0063704100    2.2224930582
 H   -2.3671819776   -0.0945271225   -0.0183589595
 H    0.0953315132   -4.9506357429    0.3679254071