21

 C   -0.0014941986    1.5172928905    0.0365142954
 C    0.0022037465    0.0089583201   -0.0164350169
 C    0.3959557607   -0.7858540949   -1.2948168769
 C   -0.4336964340   -1.9199494518   -0.6769151810
 C   -0.0390875204   -2.0731729790    0.8430353735
 C    0.7754399775   -0.7873369558    1.0608232536
 O   -1.3682916936   -1.6319713742    1.2543835644
 C   -1.3526124188   -0.8903178290    0.0238184962
 C   -2.6694960827   -0.3435212757   -0.4348420967
 H    1.0118855071    1.9210853583   -0.0743818597
 H   -0.6150496406    1.9475660035   -0.7626553881
 H   -0.3958294411    1.8778846937    0.9933308403
 H   -0.0838385191   -0.3983452337   -2.1990044618
 H    1.4625004785   -0.9394396927   -1.4860149252
 H   -0.8011650345   -2.7953060199   -1.2104592723
 H    0.2724217245   -3.0123523799    1.2980022761
 H    1.8432431871   -0.8703905571    0.8366347381
 H    0.6399089177   -0.4171292112    2.0797629963
 H   -3.0381507941    0.4103226826    0.2693507647
 H   -2.5735074808    0.1303244471   -1.4166749967
 H   -3.4161787015   -1.1399733711   -0.5051789833