19

 C   -0.3108950603    1.4608732497    0.0668777866
 C   -0.1973169913   -0.0577254073   -0.0856109508
 C    0.7773573629   -0.4652014752   -1.2014177438
 O    2.0651679252    0.0649761284   -0.9765015766
 C    0.7216887059   -1.9928707376   -1.5433916022
 O    0.2042969993   -2.7911922374   -0.5116068462
 C   -0.1982141039   -1.6886654529   -2.7762165953
 C    0.2431479391   -0.2330214000   -2.6248206384
 O    0.3726198804    0.6968934119   -3.3730912342
 H    0.6649800501    1.8970176532    0.2956662512
 H   -0.6853091177    1.9310993266   -0.8485328391
 H   -0.9952928525    1.7162882662    0.8809641981
 H    0.1684316336   -0.5128190461    0.8408491764
 H   -1.1801291416   -0.5023026731   -0.2753967137
 H    2.1928116049    0.7765493447   -1.6161612135
 H    1.7179764229   -2.3207176000   -1.8641619760
 H    0.2346072720   -3.7109511576   -0.7917715465
 H    0.0137339594   -2.1688871965   -3.7334877177
 H   -1.2536517885   -1.8284816969   -2.5204054281