17

 O    0.0973995219    0.0931406855   -0.7254513954
 C    0.0149227724    1.1304381744   -0.1137447937
 C   -1.3529296423    1.7567112513    0.2056952137
 C   -1.5885959735    2.3017224193    1.6362179508
 C   -1.0006744731    3.7137590515    1.8799738367
 C    0.3204596233    3.8153564924    1.1586969266
 O    0.6562214425    4.6627707438    0.3823410441
 O    1.0849948746    2.7006518574    1.4281911588
 C    1.3009288377    1.8675044975    0.2917899342
 H   -1.5115018817    2.5653249704   -0.5239620988
 H   -2.0816439779    0.9782966835   -0.0327834658
 H   -2.6674617857    2.3393741629    1.8159492599
 H   -1.1732074684    1.6014312605    2.3656497978
 H   -1.6540077443    4.5042716412    1.5032681917
 H   -0.8545375264    3.8776384216    2.9530060796
 H    2.0621509139    1.1341090310    0.5596380409
 H    1.6625711771    2.4558872161   -0.5616786812