15

 C   -0.7028605044   -0.4910989874   -1.2162314094
 C   -0.2113968813    0.1657606818   -0.3382616741
 C    0.3806827365    0.9603054586    0.7287011478
 C    1.6050986491    1.7748164436    0.3449284260
 N    2.1362411487    2.4990231659    1.3384326790
 C    3.2104332972    3.2252542521    1.0370664035
 N    3.8207873277    3.3144200019   -0.1464596388
 C    3.2770946018    2.5858686641   -1.1238845466
 C    2.1552315020    1.7878435911   -0.9328760157
 H   -1.1448816900   -1.0754888811   -1.9850044180
 H   -0.3631394174    1.6543655938    1.1403854607
 H    0.6631315872    0.3137573844    1.5693119750
 H    3.6381536839    3.8115683031    1.8472856517
 H    3.7588049851    2.6435366442   -2.0976508772
 H    1.7255565138    1.2023898440   -1.7354899939