25

 C    0.2957606090    0.4864789378    0.6922505754
 C    0.7324913086   -0.8194053060    0.0203706410
 C    0.8560218098   -0.7363663237   -1.5188799626
 C    1.8614234783    0.3430581592   -1.9825190620
 C    3.2784374434    0.2554911429   -1.3964235487
 C    1.0829792260   -2.1395336596   -2.1000616953
 C   -0.1285735693   -3.0550962970   -2.0839280817
 C    2.1260974552   -2.4381922206   -3.0962573493
 O    2.3112689821   -2.7947626999   -1.7234217067
 H    1.0366575163    1.2825589280    0.5720955066
 H   -0.6511468075    0.8498771960    0.2761602688
 H    0.1484212523    0.3373998525    1.7665670742
 H    1.6885373447   -1.1554974474    0.4358417470
 H    0.0065752185   -1.5982238157    0.2778015661
 H   -0.1254241806   -0.4221180440   -1.9046991599
 H    1.9111843403    0.3236802825   -3.0772356331
 H    1.4391232756    1.3233743885   -1.7335240637
 H    3.9297262188    1.0012252824   -1.8636122525
 H    3.2788872874    0.4546167477   -0.3202058457
 H    3.7210940001   -0.7324507713   -1.5396091536
 H   -0.9183785120   -2.6587092021   -2.7314113577
 H    0.1459350695   -4.0508558360   -2.4403503869
 H   -0.5433469497   -3.1624429798   -1.0776957222
 H    1.9814868235   -3.2766213291   -3.7778671632
 H    2.7891663198   -1.6620373152   -3.4690170042