20

 C   -0.0560806047    1.5751770080    0.0900250731
 C   -0.0155247438    0.0383175972    0.0475555676
 C    0.7382700710   -0.5115831634    1.2707047825
 C   -1.4483549408   -0.5267108857    0.0244085217
 O   -2.1154668920   -0.0987488622    1.2016736148
 C    0.6806247805   -0.4602520501   -1.2529443773
 O    0.0232291198   -0.0720376798   -2.4474774813
 C    2.1019350604   -0.0555958274   -1.2969133587
 N    3.2022196786    0.2939926053   -1.3510251072
 H    0.9527798771    1.9987524619    0.1052735919
 H   -0.5942213424    1.9897670557   -0.7703327437
 H   -0.5846453685    1.9043909569    0.9862940035
 H    0.1886091054   -0.2650000967    2.1810511236
 H    0.8316134006   -1.6026715959    1.2208931458
 H    1.7437239775   -0.0883663510    1.3440252340
 H   -1.9638579726   -0.1762411232   -0.8791346534
 H   -1.4019588456   -1.6276649170   -0.0238878120
 H   -3.0336266667   -0.3772221582    1.1457296538
 H    0.6533751520   -1.5564826870   -1.2580185529
 H    0.1355283145    0.8785790227   -2.5594832261