21

 C   -0.0628122849    1.4279378852   -0.3006739257
 O   -0.0660519736    0.1432041330    0.2822103784
 C   -1.2815192750   -0.5345804148    0.1383959232
 C   -1.6575887205   -1.1665855063   -1.2326571622
 C   -2.1496284629   -2.4140682175   -0.4473662845
 C   -1.3192285237   -1.9407409885    0.7701812760
 C    0.0117912933   -2.6439089658    1.1157865880
 O   -0.4121630303   -2.8693453440    2.4772672477
 C   -1.6724993855   -2.2135761053    2.2389750556
 H    0.9183233573    1.8688901299   -0.1101457388
 H   -0.2282716516    1.3868888416   -1.3873743940
 H   -0.8364691158    2.0747289046    0.1418984130
 H   -2.1127071409    0.0823115729    0.5213560083
 H   -2.3740476958   -0.6421305894   -1.8681001302
 H   -0.7538722099   -1.3840057576   -1.8093623578
 H   -3.2245820564   -2.3787867676   -0.2452957427
 H   -1.9048847785   -3.3971163574   -0.8564626938
 H    0.1962758543   -3.5860164993    0.5822188403
 H    0.9012310213   -2.0079940949    1.0607085868
 H   -1.7976166529   -1.3185276992    2.8640296349
 H   -2.5265036481   -2.8852482797    2.4030327277