20

 C   -0.0487533184    1.5640213948    0.0839468866
 C   -0.0965159506    0.0377076872   -0.0218591566
 C    0.6932262428   -0.5124751622   -1.2247266070
 N    2.1127023565   -0.2287053066   -1.1551339638
 C    2.9031950171   -1.3557184183   -1.2843625083
 O    4.1148872942   -1.3785515086   -1.3419298946
 C    1.9386971985   -2.4886416560   -1.3413598903
 C    0.6823625524   -2.0308903966   -1.3229767849
 C   -0.5899535999   -2.8109130334   -1.3848981058
 H    0.9752551810    1.9204577894    0.2346489996
 H   -0.4430080868    2.0388669230   -0.8217441422
 H   -0.6454011023    1.9162616748    0.9303465835
 H    0.3050475655   -0.4167698090    0.8911532117
 H   -1.1390069253   -0.2892424955   -0.1144856175
 H    0.2546620774   -0.0893982801   -2.1449862721
 H    2.5058374665    0.6897669882   -1.2714809683
 H    2.2648700909   -3.5174374610   -1.4085200421
 H   -0.3918579601   -3.8755364510   -1.5291256404
 H   -1.1754027537   -2.6970560021   -0.4645753760
 H   -1.2282383655   -2.4660155368   -2.2075409216