13

 O    0.0240218154   -0.0250722319    0.2166866228
 C    0.0039513768    1.1574999255    0.0222053400
 N   -1.1881979988    1.8809816264   -0.0692775362
 C   -1.2415857763    3.2560183085   -0.0240024432
 C   -0.1341304013    3.9757506234   -0.2742951314
 C    1.1048037482    3.2042774231   -0.6633891754
 O    1.1279887679    1.8942269805   -0.0643558070
 C   -0.1076643044    5.3886883603   -0.2220507446
 N   -0.0486429811    6.5466876195   -0.1968818963
 H   -2.0122294924    1.3329228108    0.1211310748
 H   -2.1981559434    3.6978427076    0.2247276288
 H    1.1724783719    3.0892715385   -1.7538576691
 H    2.0139307075    3.6971949779   -0.3159947033