20

 C    0.2042054857    1.5873330452    0.0999291080
 C   -0.1468928773    0.1129100445   -0.1705641410
 C    0.5555339374   -0.4433540581   -1.3228577416
 C    1.1595550224   -0.8739812930   -2.2721816091
 C    1.8673297118   -1.4361138107   -3.4213239743
 C    2.0788193697   -2.9560579066   -3.2853718191
 N    1.1522254874   -1.1004474030   -4.6579651811
 C    1.8002569327   -0.8867350661   -5.8304230451
 O    3.0010126788   -0.9788394683   -5.9853643395
 H    1.2742563299    1.7027543508    0.2915772984
 H   -0.0531947184    2.2123413404   -0.7593749865
 H   -0.3447826449    1.9555426834    0.9715956722
 H    0.0851479748   -0.4894846797    0.7170338652
 H   -1.2293682000    0.0146149984   -0.3234141639
 H    2.8528143693   -0.9660668198   -3.5171408461
 H    2.6349404236   -3.3225593702   -4.1515306426
 H    2.6474571997   -3.1781861119   -2.3783143105
 H    1.1181249855   -3.4753072800   -3.2279029822
 H    0.1525424784   -0.9846747490   -4.6136554591
 H    1.1020269435   -0.6137380665   -6.6464995823