16

 C    0.1436191375    1.3254314399   -0.4893664511
 C    0.0337196754   -0.0873529806    0.1353924641
 C    0.4878905330   -0.0646011400    1.5313556341
 N    0.8096696152   -0.0319142655    2.6409027437
 C   -1.3635293334   -0.6509625295    0.0440053503
 C   -2.0921683999   -1.0824900172   -1.0480901464
 C   -3.3431110527   -1.4572741072   -0.5150278412
 N   -3.3962621464   -1.2790040426    0.8019458500
 N   -2.1853360163   -0.7847132314    1.1155001463
 H    1.1718787437    1.6914994699   -0.4349177188
 H   -0.1628202871    1.2819314854   -1.5365515432
 H   -0.5091248879    2.0274552724    0.0343503729
 H    0.7101833965   -0.7569927691   -0.4098820190
 H   -1.7651270987   -1.1225136696   -2.0747101087
 H   -4.2027262381   -1.8511376118   -1.0369256041
 H   -1.9606663207   -0.5918111830    2.0793089511