16

 C   -0.1664134830   -1.2694991288   -0.0982428950
 C   -0.0804305900   -0.0715459184   -0.0343717765
 C    0.0534153194    1.3676596756    0.0473494015
 N   -0.2801632677    2.0207773884    1.3869143967
 C    0.7174107323    1.5211486212    2.3498058298
 C    1.1299010154    2.5956672918    1.4215747938
 C    1.4626577959    2.0032148018    0.0773092909
 C    2.7263088526    1.6314256118   -0.5532517657
 O    1.9462868005    2.7560522507   -1.0076231952
 H   -0.2591546664   -2.3258664256   -0.1596475307
 H   -0.5495374346    1.8613729507   -0.7202595305
 H    0.4853007365    1.8021231937    3.3722871046
 H    1.1099880918    0.5147572632    2.2292354415
 H    1.3288557463    3.6189041662    1.7199436905
 H    3.6686396164    1.8842139763   -0.0700928439
 H    2.7558633845    0.7827915215   -1.2341796919