18

 C    0.2125795874    1.4417051131    0.1959455092
 C   -0.1914244108   -0.0092730396   -0.0914125693
 C    0.5641855021   -0.5848018976   -1.2717365412
 C    1.8983716030   -1.2344289158   -1.1909566211
 O    2.0178784426   -1.9619098937    0.0630039077
 C    1.0028715022   -2.8341226765   -0.3285488405
 O    0.6591980447   -3.8324245256    0.2159178797
 C    0.7049378022   -2.0831136092   -1.6120760687
 N    0.3080729630   -2.5884864444   -2.8710488034
 H    1.2766793178    1.5100590046    0.4435861644
 H    0.0288776451    2.0869153691   -0.6702216913
 H   -0.3557507293    1.8452646573    1.0389263497
 H   -0.0107178550   -0.6226420088    0.7960212688
 H   -1.2670022084   -0.0621340241   -0.2988466814
 H    0.4402015299   -0.0334771471   -2.2041979152
 H    2.8152826473   -0.9917520052   -1.7085074577
 H    0.7059040690   -3.5052662341   -3.0469796334
 H   -0.7010449627   -2.6722246623   -2.9364093664