18

 C    0.1028378828    1.5492373723    0.0743296699
 C    0.0283311889    0.0536950356    0.0351075889
 C    0.0322012744   -0.7700668439   -1.0766783410
 N    0.0221599832   -0.4951258420   -2.4486204750
 N   -0.0258850703   -2.0476461223   -0.6162657645
 N   -0.0565438878   -2.1211524439    0.7359948026
 C   -0.0377557940   -0.8511699769    1.1305603096
 C   -0.0378925454   -0.5187322794    2.5908704275
 O    1.1188246369    0.2192134162    2.9910489863
 H    0.6437677614    1.9487007823   -0.7924815434
 H   -0.8870841552    2.0233237794    0.0826730651
 H    0.6310342174    1.8746815491    0.9741796832
 H    0.0302843541    0.5013427226   -2.6240706990
 H    0.7945859075   -0.9214792792   -2.9489753850
 H   -0.0994853373   -2.8892471202   -1.1615992096
 H   -0.8849628238    0.1276854892    2.8449548824
 H   -0.1435814036   -1.4510053064    3.1620220411
 H    1.8857955706   -0.3011984726    2.7293962110