21

 C   -0.1760431154    1.6861202854    0.1754450340
 C   -0.0476329973    0.1632884038    0.1135907018
 N   -1.3334269841   -0.5061724319   -0.0981731046
 C   -1.8473698777   -0.3185990760   -1.4507608887
 C   -1.4184084321   -1.8805181088    0.3035302293
 C   -0.2687098958   -2.8162164280    0.5681692589
 C   -1.1797903348   -2.3929446624    1.7251105118
 C   -0.6798188218   -1.5608094614    2.7795308745
 N   -0.2909623364   -0.8976168442    3.6454132749
 H    0.7939531885    2.1276234126    0.4232940235
 H   -0.4984909548    2.1201463051   -0.7752235211
 H   -0.8944504181    1.9734226311    0.9478111031
 H    0.6808006808   -0.1215794275   -0.6690404985
 H    0.3642283652   -0.1705774981    1.0673750995
 H   -1.2057942374   -0.7721395733   -2.2286179507
 H   -2.8468894102   -0.7555143761   -1.5332556906
 H   -1.9382609215    0.7472621330   -1.6691224032
 H   -2.2895604032   -2.3521102688   -0.1396981539
 H   -0.3271752047   -3.8492569266    0.2437453088
 H    0.7327736189   -2.4038157357    0.5790393032
 H   -1.8960118580   -3.1292546821    2.0752986579