20

 C   -0.3297756816    1.3476718176    0.0297311612
 C    0.0238845253   -0.1167971885   -0.0464852502
 C   -0.7002221606   -1.1417132622    0.7671015008
 N    0.6748186991   -0.7455877225    1.1168641015
 C    1.6948077516   -1.6860106603    0.6027028210
 C    1.4697956215   -1.8987818537   -0.9027444717
 O    0.7217512558   -3.0824965260   -1.1296324886
 C    0.6562219930   -0.6374666774   -1.3325454805
 O   -0.2707282358   -0.9223558653   -2.3764567279
 H    0.5564793483    1.9718961046   -0.1306433336
 H   -1.0661490714    1.6070681902   -0.7389375472
 H   -0.7471518734    1.5971764699    1.0082825676
 H   -1.4562901359   -0.8079038269    1.4730064645
 H   -0.8515172836   -2.1353961431    0.3561890754
 H    2.6755054576   -1.2312137804    0.7777420256
 H    1.6575639192   -2.6342294409    1.1459921242
 H    2.4236216291   -1.9504069793   -1.4463834356
 H    0.3299602311   -2.9717402001   -2.0073985098
 H    1.3362864020    0.1196894124   -1.7390152196
 H   -1.0963619914   -1.1846840181   -1.9543991771