18

 C    0.0282438756    1.5304402267    0.0277458689
 C   -0.0151815245    0.0337690976    0.0277868736
 C   -0.0304019733   -0.8045616607   -1.0783570184
 N   -0.0506513670   -2.1229841596   -0.6718258799
 C   -0.0860658002   -2.1456725885    0.7005289798
 C   -0.0456868100   -0.8546773368    1.1332207770
 O    0.0323891468   -0.7206434337    2.4955977086
 C   -0.1922821809   -2.0590493680    3.0078159286
 C    0.0429798732   -3.0911378291    1.8499594108
 H    0.9251735225    1.9121142097    0.5295599729
 H    0.0289363791    1.9213714003   -0.9939868713
 H   -0.8340181826    1.9623004057    0.5489356684
 H   -0.0522215948   -0.5515379500   -2.1269963501
 H   -0.1358087724   -2.9114434167   -1.2873893154
 H    0.4733045447   -2.2064184445    3.8609177187
 H   -1.2317375251   -2.1196365662    3.3529027439
 H   -0.7014579833   -3.8937455674    1.8955445223
 H    1.0346979424   -3.5621657190    1.9120453216