14

 C    0.0061852983    1.4654392675    0.0051091982
 N    0.0014591694    0.0158376372    0.0186157257
 C   -0.0637643057   -0.8134249249   -1.0666578643
 N   -0.0490493481   -2.0797792298   -0.7352154569
 C    0.0304961815   -2.0889738175    0.6480978600
 C    0.0622816803   -0.7943165245    1.1235749702
 C    0.0702260245   -3.2813967244    1.4102234590
 C    0.1047569499   -4.2874351574    2.0706225605
 H    0.9247508797    1.8564700102    0.4526326324
 H   -0.0514552037    1.8088987484   -1.0292682234
 H   -0.8525862264    1.8632748321    0.5539267166
 H   -0.1202998242   -0.4224973494   -2.0725004907
 H    0.1210170911   -0.3981689421    2.1235368994
 H    0.1347488134   -5.1794416856    2.6451780933