17

 C   -0.2928708895    1.7506500330   -0.0344027706
 C    0.0495077278    0.2536132867   -0.0179249264
 O    0.8342126414   -0.0847512946    1.1085652436
 C   -1.2292832192   -0.6122358233   -0.0154199803
 O   -1.8353842852   -0.4164972124    1.2576598933
 C    0.8263380781   -0.1184538063   -1.2896199291
 O    0.4257516673    0.2143956814   -2.3854952237
 C    2.0276210948   -0.9138845789   -1.1318533654
 C    3.0332611824   -1.5726210666   -1.0716730812
 H    0.6185345823    2.3367580194    0.1076598467
 H   -0.7498053124    2.0276492057   -0.9870934568
 H   -0.9865302091    1.9778209862    0.7788794076
 H    0.2061081275   -0.2083229237    1.8325930412
 H   -1.8894610012   -0.3058185247   -0.8363033446
 H   -0.9531205005   -1.6663292342   -0.1583207672
 H   -2.4670628893   -1.1242785065    1.4110153766
 H    3.9218930947   -2.1521086413   -1.0063813436