23

 C   -0.0290577305    1.5747771166    0.0132282502
 C   -0.0016810625    0.0387936479    0.0006919190
 C    0.6371663763   -0.5059478648   -1.2887927781
 C    0.8957932221   -2.0151145094   -1.1916531769
 C    1.8347908894   -2.3276217871   -0.0359511253
 C    2.3446663023   -3.7448915309    0.1189967782
 C    3.2895389719   -2.6655700852   -0.3307607174
 C    1.5464318532   -1.5442825751    1.1903754204
 C    0.7100267767   -0.5050179944    1.2183996983
 H    0.9875127735    1.9830700077   -0.0082601381
 H   -0.5684121859    1.9650105319   -0.8564316322
 H   -0.5230307116    1.9561511295    0.9133015544
 H   -1.0485857997   -0.3048528447    0.0342845299
 H   -0.0053117847   -0.2803322143   -2.1474781006
 H    1.5899263451    0.0127990857   -1.4599346701
 H   -0.0593701129   -2.5335415657   -1.0297420505
 H    1.3068675025   -2.4004029894   -2.1314788184
 H    2.4553814517   -4.1408685129    1.1232922228
 H    2.0158758347   -4.4759367400   -0.6127894910
 H    3.6050827669   -2.6575239588   -1.3690964499
 H    4.0442844950   -2.3190905199    0.3669583903
 H    2.0499726253   -1.8605008838    2.1023044583
 H    0.5259716213    0.0078952473    2.1604099667