19

 C    0.1509729854    1.4617643483   -0.0795169474
 C   -0.0594869694   -0.0093821557   -0.0914881918
 C   -1.1486961323   -0.8015186574   -0.2512872521
 C   -0.6940544542   -2.1634609596   -0.1469217580
 C   -1.5479654697   -3.3807892220   -0.2714240829
 O   -2.5996765131   -3.3036799274    0.6895216061
 C    0.6493285898   -2.0964994390    0.0728758305
 C    1.7190726170   -3.1100842218    0.2710944847
 O    1.0483534744   -0.7892082382    0.1027402837
 H    0.8542945971    1.7755976938   -0.8596302636
 H   -0.7990737039    1.9728298590   -0.2504636903
 H    0.5556462279    1.8037073679    0.8802145148
 H   -2.1648014075   -0.4738023399   -0.4065269784
 H   -1.9676919189   -3.4401304188   -1.2892351609
 H   -0.9391867597   -4.2860989340   -0.1238804159
 H   -3.2138715897   -4.0220600520    0.5081694539
 H    2.4532270963   -3.0913155743   -0.5433207691
 H    2.2638496306   -2.9312036332    1.2049132282
 H    1.2896426400   -4.1131645157    0.3148638485