16

 C   -0.0054778539    1.5090439409    0.0174931899
 C    0.0272681315    0.0037433976   -0.0151568911
 C   -0.0461215084   -0.7099506881   -1.2148645516
 C   -0.0114862773   -2.1024418115   -1.1871495357
 C   -0.0882213555   -2.8797718228   -2.4512321396
 O   -0.0646583624   -4.0849486380   -2.5126674182
 C    0.0961481841   -2.7456792622    0.0461380795
 C    0.1631973828   -1.9545084194    1.1855078784
 N    0.1306035698   -0.6186902015    1.1673369177
 H    0.9027457128    1.8981665923    0.4882366831
 H   -0.0906167399    1.9350970119   -0.9849412304
 H   -0.8504756708    1.8571783642    0.6197134471
 H   -0.1295028560   -0.1843595433   -2.1617692679
 H   -0.1717166582   -2.2562249525   -3.3691421756
 H    0.1250354464   -3.8275416161    0.0940088403
 H    0.2476712749   -2.4134304014    2.1676964442