23

 C   -0.1841912882    1.5986665389   -0.1606894061
 C    0.0081587268    0.0933742613   -0.0137248344
 C    0.9726683330   -0.6755759009   -0.9763678140
 C    1.6242116671   -1.3915507263    0.2445227498
 C    3.0373437857   -0.9834977010    0.7055865471
 C    2.8437439890   -0.9806512021    2.2559904046
 C    1.9122536923    0.2366692990    1.9329702120
 C    2.9494507398    0.5636775982    0.8178006739
 C    0.7656985745   -0.5042808989    1.2153919610
 H    0.7585668066    2.1511484640   -0.1161563777
 H   -0.6605832981    1.8358295978   -1.1189001996
 H   -0.8311912189    1.9885509608    0.6334234426
 H   -0.9809558380   -0.3759774910   -0.0593970198
 H    0.4712384572   -1.3389924978   -1.6855429033
 H    1.6570708754   -0.0382051457   -1.5438189231
 H    1.4663751563   -2.4715254269    0.2814653820
 H    3.8889331936   -1.4723705535    0.2301690570
 H    2.3916722855   -1.8631902668    2.7198311313
 H    3.7479825309   -0.6899393673    2.7960409252
 H    1.6472898798    0.9714458887    2.6943155745
 H    3.8637938249    0.9920640025    1.2354817177
 H    2.6443843419    1.1437574535   -0.0527692313
 H    0.1219293730   -1.0115875967    1.9390762206