10

 O    0.1193606531    1.2965135018    0.1637611269
 C    0.0758272554   -0.0229447693    0.0038413095
 N    0.1131664564   -0.7018981432   -1.1181736102
 C    0.0354314677   -1.9948998494   -0.6669730607
 N   -0.0456094768   -2.1404805362    0.6470413394
 N   -0.0182550571   -0.8502609566    1.0662479795
 C    0.0405011034   -3.1179430229   -1.5462150025
 N    0.0456347158   -4.0193699042   -2.2695830242
 H    0.1854795917    1.6931752211   -0.7151984122
 H   -0.0656429095   -0.6267109610    2.0470966646