20

 C    0.3172495819    1.5609848599   -0.0600145223
 C    0.0154992301    0.0802814257    0.0559314006
 O   -1.3126641352   -0.1630709193    0.5821837702
 C   -0.8028421232   -1.0892529026    1.5671082131
 C    0.6613525883   -0.7641543536    1.1966030742
 C    1.5770326256   -1.8350399972    0.5726437458
 C    1.2600951213   -1.8149826777   -0.9171196250
 N   -0.1592757271   -2.0872247672   -1.1966392159
 C    0.3266331018   -0.6934620621   -1.2237247786
 H    1.3437593584    1.7238270692   -0.4071980124
 H   -0.3641979916    2.0337029633   -0.7758562967
 H    0.1917962896    2.0565925337    0.9062809769
 H   -1.1127582065   -0.8062709755    2.5802875815
 H   -1.1129953824   -2.1176543694    1.3563743721
 H    1.1720880642   -0.1778285431    1.9627105477
 H    2.6298943560   -1.5739120921    0.7274618280
 H    1.4189983006   -2.8279246879    1.0077214436
 H    2.0102038409   -2.1437441289   -1.6305571689
 H   -0.2673245529   -2.4210435211   -2.1507650321
 H    0.3538000403   -0.1682586241   -2.1739545519