20

 C    0.1495772870    1.5102329472   -0.0833312579
 C    0.0012775028    0.0196990335   -0.0580495856
 C   -0.9399169231   -0.7303391353    0.8025075217
 N    0.5038127419   -0.8625228903    1.0799482919
 C    1.0009621898   -1.8379239302    0.0468882016
 C    0.5650529732   -0.9280133121   -1.1211624475
 C   -0.1930258924   -1.3496155148   -2.3963457213
 C    0.9882011891   -0.7069527507   -3.1451695266
 O    1.6539788162   -0.3932132278   -1.9019717395
 H    1.1419372335    1.7882997156   -0.4485612122
 H   -0.5963328414    1.9689373216   -0.7435194677
 H    0.0148305173    1.9239404449    0.9200640678
 H   -1.4738122185   -0.1702139546    1.5648469263
 H   -1.4835447390   -1.5908608782    0.4141723946
 H    2.0892259262   -1.9164435591    0.0920952524
 H    0.5510090260   -2.8349928174    0.1178082500
 H   -0.2958430051   -2.4282315077   -2.5301232206
 H   -1.1667792033   -0.8756583390   -2.5349673354
 H    1.5893710445   -1.3787352518   -3.7681486376
 H    0.7525042955    0.1963833163   -3.7201790244