16

 N   -0.0531718332    1.3936720117    0.0037914643
 C    0.0640460531    0.0178947367   -0.1087905239
 O    1.1397287380   -0.5352664816   -0.2453055497
 N   -1.1427414768   -0.6724855257   -0.0998593141
 C   -2.4406810708   -0.1125448526   -0.1467755866
 C   -3.3887705839   -1.0417348076   -0.0371921731
 C   -2.7486449569   -2.3957744088    0.1048206124
 C   -1.2542238988   -2.1022128912    0.0081250793
 N   -0.3395238325   -2.9698843988    0.0268769307
 H    0.8461446588    1.8347631113    0.1292018869
 H   -0.7804669427    1.7660720304    0.5948785775
 H   -2.5508182492    0.9483995911   -0.3119762142
 H   -4.4516274606   -0.8568190742   -0.0703063755
 H   -2.9750739757   -2.8834911920    1.0604851947
 H   -3.0464850425   -3.0996103934   -0.6799462060
 H    0.5746140937   -2.5248900952   -0.0664380529