20

 C   -0.0103039249    1.5746517331    0.2603215606
 C   -0.0669316603    0.0571210743    0.0035987005
 C    0.8144933351   -0.7111795833    1.0056701202
 C   -1.4780583748   -0.4553277367   -0.0124437353
 N   -2.0825715787   -0.9978256558   -1.0545828700
 C   -3.3509735286   -1.3198457761   -0.6363238565
 N   -4.2690367464   -1.8596228557   -1.5440112205
 C   -3.5268450624   -0.9727607656    0.6805818328
 N   -2.3099665227   -0.4201708790    1.0620466830
 H    1.0204606886    1.9383533461    0.1967634508
 H   -0.6132410460    2.1205123543   -0.4705229460
 H   -0.3861280281    1.8253573712    1.2594645367
 H    0.3101306815   -0.1356002442   -1.0056198021
 H    0.4752565598   -0.5578484091    2.0371196173
 H    0.7968545743   -1.7858698171    0.8040598737
 H    1.8525058354   -0.3677281906    0.9486375397
 H   -3.7832952220   -2.2703035856   -2.3312719001
 H   -4.8930846578   -2.5384224867   -1.1287424980
 H   -4.3604798492   -1.0493751971    1.3570491586
 H   -2.0901815130   -0.0631718365    1.9757712547