25

 C   -0.0832348198    1.4085607927    0.1482380913
 O   -0.0450207385    0.0033194490    0.1406407165
 C   -1.3058802700   -0.5815691158   -0.1094066500
 C   -1.1595095359   -2.0877105388   -0.0788618402
 C   -0.8693182490   -2.7681837148    1.2857871435
 C   -1.9307128076   -3.8654550974    0.9491960673
 C   -1.2852263421   -5.1381672844    0.3954225463
 C   -2.9277255384   -4.1993548963    2.0543790812
 C   -2.4566637332   -2.9336399195   -0.1922987977
 H    0.9306565627    1.7649166468    0.3474009525
 H   -0.4183758120    1.8152867133   -0.8197562908
 H   -0.7554829192    1.7971227116    0.9304792628
 H   -2.0368574744   -0.2558299097    0.6531560212
 H   -1.6961300055   -0.2513297961   -1.0892742834
 H   -0.4214414148   -2.3811322921   -0.8312732794
 H    0.1532582837   -3.1073767732    1.4698232172
 H   -1.1800301601   -2.1385286687    2.1261681666
 H   -0.7496009199   -5.6803465557    1.1833287223
 H   -2.0417399218   -5.8134666031   -0.0211976907
 H   -0.5663030548   -4.9131438902   -0.3996058020
 H   -3.3952363784   -3.2936703801    2.4554402373
 H   -3.7272939072   -4.8524649834    1.6840715937
 H   -2.4364448732   -4.7176884428    2.8866360995
 H   -3.3417768861   -2.3679102454    0.1192703003
 H   -2.6694125844   -3.4020134360   -1.1575479854