25

 C   -0.4711136516    1.3655099586    0.3650011872
 C   -0.1626482229   -0.1269637853    0.2230054075
 C    0.8413025975   -0.6351563609    1.2640297427
 C    1.1057142137   -2.1252502779    1.1461901944
 C    1.8703043970   -2.8408195407    2.2801930833
 C    0.6253890811   -3.7495084264    2.3612156045
 C   -0.1145941336   -3.8640549516    3.6821487533
 C   -1.4797533177   -4.5411312200    3.5298671303
 O   -0.0791001397   -2.9244502120    1.3981093623
 H    0.4340837675    1.9722063271    0.2471753315
 H   -1.1937870196    1.6972090410   -0.3871187701
 H   -0.8914287505    1.5902641490    1.3516849217
 H   -1.0849198139   -0.7112343429    0.3174377823
 H    0.2274760019   -0.3286801807   -0.7834588658
 H    1.7979036401   -0.1032838386    1.1593238696
 H    0.4682490067   -0.4218358180    2.2744271162
 H    1.5074237146   -2.3547309638    0.1472410412
 H    2.8118704516   -3.3209157132    2.0098615035
 H    2.0216768117   -2.2217108862    3.1688112314
 H    0.7967881059   -4.7530343701    1.9420152798
 H    0.5168882272   -4.4259565121    4.3836699429
 H   -0.2402499491   -2.8580747603    4.1015248729
 H   -2.0957403839   -3.9937713119    2.8107887828
 H   -1.3742861239   -5.5696803069    3.1672111951
 H   -2.0148054002   -4.5758928063    4.4835034495