19

 O   -0.0320775865    1.4206571715   -0.0103882503
 C    0.0239820733    0.0013121849    0.0313124933
 C    0.5356901235   -0.5817604201    1.3766393606
 C   -0.7353767101   -1.2971497402    1.8414041070
 O   -0.6825084693   -2.0326682148    3.0259966768
 C   -1.4058622662   -1.9891824995    0.6180458391
 C   -2.7970366075   -1.7128249571    1.2436940813
 C   -1.9882005983   -0.4135406042    1.4795814389
 C   -1.4020646675   -0.5395776672    0.0403287211
 H    0.8700918440    1.7548852297   -0.0234192097
 H    0.5975503018   -0.3842009596   -0.8241468978
 H    1.3736478787   -1.2771946673    1.2652573423
 H    0.8372346400    0.2212459115    2.0591527284
 H   -0.4256622145   -1.4383545537    3.7388846467
 H   -1.0565224789   -2.8948895743    0.1179049607
 H   -3.6384184660   -1.6432420643    0.5491480100
 H   -3.0526166347   -2.2969906326    2.1287712035
 H   -2.3089093046    0.5070356973    1.9695501614
 H   -2.0423929271   -0.3070925599   -0.8102138033