19

 O   -0.1408070503    0.4234892937    1.1931449930
 C   -0.1273064159    1.2931728100    0.3634556165
 O   -1.3106737334    1.8629786461   -0.0188135410
 C   -1.6473374593    2.0396281771   -1.4003238554
 C   -1.0061259886    3.2463396545   -2.0750737930
 C    0.4530160889    3.0253797078   -2.4770387337
 C    1.4298986493    2.7273926267   -1.3572248248
 C    1.3829644806    3.3745717861   -0.0114781385
 C    1.1586097583    1.8655271362   -0.1326144893
 H   -1.4176370040    1.1197947836   -1.9550080685
 H   -2.7343568922    2.1532752911   -1.3889982775
 H   -1.5844459405    3.4662194968   -2.9808120626
 H   -1.1147827163    4.1195862670   -1.4216819536
 H    0.4930393296    2.1987553010   -3.1995657041
 H    0.8154265065    3.9124399486   -3.0119013849
 H    2.4358851119    2.5601777080   -1.7350644129
 H    2.3019349096    3.7074203418    0.4568291137
 H    0.5085584155    3.9616323149    0.2450611147
 H    1.9829084101    1.2411540689    0.1907709019