18

 C   -0.5385789779    1.0831163320   -0.0719532758
 O    0.3897580539    0.0315681754    0.1488031445
 C    0.9103727323   -0.5376997723   -1.0416358826
 C    2.3109136837   -1.1150749074   -0.7588073287
 O    2.3557104442   -2.3914192148   -1.3756648234
 C    1.0657151378   -2.9538369443   -1.2078028470
 C    0.0810627375   -1.7987164648   -1.4833394533
 O   -1.1479638092   -1.9111187980   -0.8067600985
 H   -0.0732783942    1.9072811936   -0.6312869838
 H   -1.4240436596    0.7359333082   -0.6179438505
 H   -0.8420289899    1.4500436506    0.9115680338
 H    0.9335924308    0.2200831261   -1.8329531934
 H    3.1283388918   -0.5151540766   -1.1645026385
 H    2.4316166068   -1.1890192291    0.3333677937
 H    0.9686753482   -3.7965940106   -1.8954018355
 H    0.9111083266   -3.3179656290   -0.1776781409
 H   -0.1461711885   -1.7467602492   -2.5516917524
 H   -0.9860959343   -1.5698345400    0.0835989521