19

 O   -0.0382589259    1.3992843403    0.0759418036
 C   -0.0219415798   -0.0130672647    0.0261702935
 C   -1.4628618217   -0.5762166643   -0.1440810279
 C   -1.8185701057   -0.4791486204   -1.6901306276
 C   -0.6130627221   -1.4479296121   -1.7712609365
 C    0.4820094495   -2.1924426218   -2.5539271603
 O    1.4704212143   -1.6444175713   -1.6159275831
 C    0.5324559514   -0.5666559351   -1.3200997778
 C   -1.1087426501   -2.0537491202   -0.4330756399
 H    0.8682028031    1.7096732803    0.1694171684
 H    0.4521257779   -0.4426243263    0.9189104288
 H   -2.1905474590   -0.2846078819    0.6127595117
 H   -2.7976167228   -0.9223970650   -1.8851945973
 H   -1.7251883960    0.4892164523   -2.1861109708
 H    0.4673619778   -3.2860742872   -2.5401449521
 H    0.6670538574   -1.8269639249   -3.5723873692
 H    0.7423370729    0.2845746922   -1.9845568908
 H   -0.3771336569   -2.5490725311    0.2104005371
 H   -1.9889281843   -2.6862450186   -0.5720144497