19

 C   -0.5007315895   -1.1427338338   -0.6856803628
 C   -0.2877035310   -0.0138091566   -0.3300612729
 C   -0.0162675428    1.3453570395    0.1137411524
 C   -0.4405031374    1.6430082417    1.5796036127
 C    0.3354482343    2.9250866804    1.9254117928
 C    1.6893401705    2.7303910469    1.2478571659
 O    2.5176549921    1.7632930568    1.9362609300
 C    2.4628922898    0.8468447961    0.8200790165
 C    1.4787307636    1.7528401129    0.0582952131
 H   -0.6965225688   -2.1366990719   -1.0037846931
 H   -0.5637491111    2.0383890748   -0.5397547884
 H   -1.5235033024    1.7428485139    1.6798435467
 H   -0.1210645934    0.8219891083    2.2277127002
 H   -0.1593384783    3.8060867559    1.4968589322
 H    0.4424649200    3.0901271408    3.0009703750
 H    2.2347155339    3.6624446078    1.0632678681
 H    3.4435618245    0.7328794784    0.3416509578
 H    2.0881341203   -0.1419242370    1.1082242300
 H    1.7913582057    2.0629726851   -0.9383534961