19

 O   -0.0287744275    1.3309662046    0.1897359180
 C   -0.0707099610   -0.0875026270    0.1672866153
 C   -1.4685710587   -0.6270999309   -0.1487399946
 C   -1.5066919790   -2.1391475531   -0.2207075400
 O   -1.0888381300   -2.8008320376    1.0174044383
 C   -2.2813547314   -3.6021763375    1.0543751550
 C   -3.4243357275   -2.9432525339    1.8375509839
 O   -3.8483999351   -2.2084076987    0.6569007046
 C   -2.8664210054   -2.8651463418   -0.1652330264
 H   -0.5831267162    1.6279687548    0.9183206482
 H    0.6361913830   -0.3902532818   -0.6135735439
 H    0.2852037832   -0.5196122163    1.1133240538
 H   -2.1834648293   -0.2934962520    0.6122482210
 H   -1.8029612233   -0.2168119727   -1.1098012336
 H   -0.8864981160   -2.5093744384   -1.0509245631
 H   -2.0844063230   -4.6696896132    1.1636042256
 H   -4.2118288515   -3.6281296866    2.1766446838
 H   -3.1124148285   -2.2889526396    2.6580721892
 H   -3.2884481228   -3.2908731982   -1.0769997451