23

 C    0.1765901171    1.7148996713    0.1130568157
 C    0.1314257522    0.1843563245    0.1541287730
 C   -1.2685809233   -0.3656041391   -0.1583686584
 C   -1.4564787568   -1.8817017907    0.0235768570
 C   -1.3017586253   -2.4393413746    1.4846666633
 C   -2.6025548062   -3.2596281256    1.2757515690
 C   -2.9143794205   -2.4205258911    0.0071908492
 C   -0.5506920177   -2.6648419898   -0.9035224176
 O   -0.9153920392   -3.4577017987   -1.7355460884
 H    1.1799151746    2.0899455354    0.3368400402
 H   -0.1077290987    2.0929259493   -0.8751669645
 H   -0.5139589683    2.1506153961    0.8436787917
 H    0.8650805993   -0.2139544843   -0.5562055710
 H    0.4463220746   -0.1642205723    1.1462130364
 H   -1.9939992263    0.1309457501    0.5000130015
 H   -1.5526368530   -0.0885022939   -1.1829853534
 H   -0.3866462843   -2.9937526330    1.7150607530
 H   -1.4123524945   -1.6414071435    2.2252382513
 H   -2.3978057087   -4.3058467867    1.0364273324
 H   -3.3342894523   -3.2268099320    2.0853985212
 H   -3.6426222046   -1.6263302802    0.1917967093
 H   -3.1966456123   -2.9696111010   -0.8919359290
 H    0.5361995940   -2.4762556504   -0.7475979720