14

 N    0.0275143421    1.3101667890    0.3228316341
 C   -0.0107619857   -0.0190813871    0.0378729605
 N   -1.1452340274   -0.6120018082   -0.1232723200
 O   -1.1161457492   -2.0149482317   -0.3441387160
 C    0.0287063751   -2.7439064921   -0.3878990951
 N    0.0534728335   -3.9973125487   -0.5606498044
 N    1.2136892038   -2.0392181262   -0.2409916709
 C    1.3155474957   -0.6867570537   -0.0455561236
 N    2.3725903911    0.0204289337    0.0546835087
 H    0.9252368800    1.7502710937    0.1876886974
 H   -0.8081912495    1.8471789408    0.1604802156
 H   -0.8900603183   -4.3658871730   -0.6548657540
 H    2.0456607709   -2.6083421809   -0.3041989118
 H    3.2264950079   -0.5311758655   -0.0291570205