16

 C   -0.0651886153    1.5285532064   -0.0949658159
 C    0.0039664250    0.0290129535    0.0622981919
 N    1.3027312697   -0.6218432646   -0.1477317358
 C    0.6876358129   -0.6704635444    1.2058226557
 C    1.4314238879    0.0754240095    2.2988120166
 C    0.1071098821   -1.9247898068    1.6211315673
 C   -0.3550578089   -2.9774666394    1.9770003996
 H    0.8502219426    2.0134017133    0.2488077416
 H   -0.2001894367    1.7876099224   -1.1506954660
 H   -0.9126623594    1.9400609745    0.4633826348
 H   -0.8699302693   -0.4978038772   -0.3177270757
 H    1.1832015983   -1.5195018693   -0.6101456680
 H    1.8950948750    0.9804389395    1.9042237215
 H    0.7525187528    0.3472663557    3.1129172635
 H    2.2218658054   -0.5574129978    2.7130583314
 H   -0.7699945622   -3.9037824753    2.2887279277