20

 C   -0.4329085884    1.5062095203    0.3766949888
 C   -0.1362824746    0.0234160716    0.2151625439
 C    0.2905020852   -0.4835134218   -1.1678853428
 N    1.5888901125    0.1637728226   -1.4808644182
 C    1.5526128687   -1.0530834375   -0.6394294529
 C    1.2351260801   -0.5838680553    0.8033207540
 C    2.2414878110    0.3867335231    1.4298390528
 C    0.9699235172   -1.7104265340    1.6848078869
 C    0.7549504703   -2.6414416229    2.4160377417
 H    0.3491827441    2.1159807745   -0.0810955448
 H   -1.3836650116    1.7558675328   -0.1078619014
 H   -0.5193485875    1.7828038759    1.4326140881
 H   -0.9633364242   -0.5786803142    0.5981772463
 H   -0.3520971221   -0.8435967715   -1.9622093367
 H    1.8573314289   -0.1288698473   -2.4194826435
 H    2.0906804229   -1.9512778954   -0.9162120078
 H    2.4936450605    1.1753666697    0.7190673903
 H    1.8326565165    0.8385923657    2.3383436024
 H    3.1579188317   -0.1445824918    1.7044859175
 H    0.5653902087   -3.4609913044    3.0638331955