15

 C   -0.0312408702    1.4118846283   -0.0288908343
 C    1.4530370958    1.9025494470    0.0668707113
 C    2.1672143541    0.7379298062   -0.6338608048
 N    3.4850801988    0.2051821124   -0.2390302307
 C    3.2842829664   -1.0439802997   -0.0448382633
 N    1.9660517652   -1.5200995444   -0.2051604498
 C    1.1996112413   -0.3669280576   -0.2904535015
 N    0.0120908126   -0.0751959814    0.0456680940
 H   -0.6615784968    1.7978308637    0.7767896361
 H   -0.4872552942    1.7284514389   -0.9773461239
 H    1.6191844604    2.8766809911   -0.3976342024
 H    1.7626092106    1.9563803797    1.1155305564
 H    2.1931394036    0.9161765220   -1.7199115024
 H    4.0637413077   -1.7522898416    0.2180193417
 H    1.6364191647   -2.3540301347    0.2572819436