13

 C   -0.1618675665    1.4505022932   -0.1157710448
 C    0.2481681173    0.0095560523   -0.0156094048
 O    1.1559429701   -0.4558735362    0.6019751217
 O   -0.6235952759   -0.7697549214   -0.7724443281
 C   -0.3329674840   -2.0844036786   -0.8821618077
 N   -1.0942168990   -2.9876394677   -0.3264881245
 O   -0.5029223499   -4.1803978298   -0.7538016611
 C    0.5411653703   -3.8339218995   -1.5096579012
 N    0.7071823921   -2.5568611051   -1.6387593911
 H    0.4785969211    2.0535160394    0.5259204902
 H   -0.0755574388    1.7856490627   -1.1534513130
 H   -1.2089594560    1.5623797511    0.1777777995
 H    1.1302257391   -4.6332232804   -1.9345931351