16

 O   -0.1006190782    0.0779059022    0.5764505393
 C   -0.0630409647    1.2164522854    0.1784814989
 C   -1.3008527723    2.0232548381   -0.1835627721
 O   -2.0309913016    2.4782932867    0.9604785288
 C   -1.3017401991    3.4456955438    0.1960699836
 C   -0.0418668909    3.9954147434    0.8685887961
 C    1.2042594799    3.3504124122    0.2720569946
 C    2.0325212395    2.3414663619    1.0196669925
 N    1.1153580983    1.9324572242   -0.0285973020
 H   -1.9082518888    1.6462989440   -1.0041352232
 H   -1.9294120112    4.1438857076   -0.3546213985
 H    0.0114582334    5.0818808559    0.7634882349
 H   -0.1172726345    3.7735291952    1.9378748107
 H    1.7073590120    3.9277402008   -0.5017606697
 H    3.0907171696    2.2345809159    0.7984355308
 H    1.7466283888    2.1032563728    2.0411945654