15

 O   -0.0263061422    1.4249035437   -0.0389160240
 C   -0.0134680706    0.0386001642    0.0221748719
 C   -0.4583394555   -0.7594231630    1.2701405230
 C   -1.2371016679    0.0156473554    2.2808802120
 C   -2.3927875186    0.4977494084    1.7960487511
 C   -2.5641984123    0.0317519626    0.4041125146
 O   -3.5238663495    0.1119485960   -0.3303142158
 C   -1.3029789991   -0.7291642732    0.0174392668
 O   -1.4932967620   -1.7949741914   -0.8440301558
 H    0.7874637824    1.7575782737    0.3559002965
 H    0.7774290837   -0.4521730894   -0.5469789085
 H    0.1371938262   -1.6159867204    1.5627358273
 H   -0.8546000260    0.2040342223    3.2780855111
 H   -3.1145893289    1.1184129937    2.3085649637
 H   -2.3141097796   -1.5906427927   -1.3176451538