21

 C    0.1120041639    1.5403097380    0.0141236879
 C    0.0071331440    0.0073400743   -0.0158175132
 C   -1.4724324106   -0.4251675520   -0.0366044638
 C    0.7482808531   -0.6006983940   -1.1968033675
 C    1.5930102198   -1.5745321661   -0.8593493599
 C    1.6490475738   -1.7884900680    0.6277046124
 C    2.7809842588   -1.0308740561    1.3611393896
 O    1.8996737848    0.0721091316    1.6549192037
 C    0.7417029123   -0.6548589530    1.1796143651
 H    1.1543493464    1.8561344133    0.0810211823
 H   -0.3313716770    1.9714452342   -0.8900256324
 H   -0.4229014070    1.9526635736    0.8764960804
 H   -1.9654494740   -0.0852768334   -0.9536303910
 H   -1.5688424703   -1.5151817658    0.0069292430
 H   -2.0157782696    0.0015492144    0.8141473931
 H    0.5636633505   -0.2622386928   -2.2122229635
 H    2.1997964746   -2.1454989261   -1.5544423982
 H    1.4782468321   -2.8197291219    0.9457052246
 H    3.1350309893   -1.5201067511    2.2786128644
 H    3.6425182199   -0.7239538328    0.7570630852
 H    0.0666096452   -0.8950969064    2.0098026276