17

 O    0.0397313032    1.4367273509    0.1240881348
 C    0.0137258390    0.0407259363    0.0452937653
 C    0.1114995117   -0.6736750603    1.4308540832
 C   -1.3875098949   -0.2901739886    1.6325845582
 C   -1.4087435464   -0.6064390199    0.1021886708
 O   -1.1391546844   -2.0050092891    0.0371271934
 C   -0.0331493369   -2.1304820332    0.9772274558
 C   -2.4937579361   -0.1642356090   -0.8164222798
 O   -2.5990574474    0.9921320655   -1.1637864569
 H   -0.6528194128    1.7657087150   -0.4662571037
 H    0.6584877425   -0.3471756115   -0.7554603305
 H    0.8866819488   -0.4347629289    2.1570756386
 H   -2.0106165430   -0.9263593876    2.2641884876
 H   -1.5227442994    0.7668291406    1.8465247141
 H    0.8475406398   -2.5202491827    0.4555642616
 H   -0.3084833318   -2.8176307927    1.7842260221
 H   -3.1958960019   -0.9466983348   -1.1707529547