14

 N   -0.0830303949    1.3305810475    0.0574190170
 C   -0.0149586052   -0.0521772601    0.0892835513
 O    1.0182395018   -0.6778451712   -0.0495228734
 N   -1.2384354383   -0.6725599998    0.2707402150
 C   -2.5422875429   -0.2208963461   -0.2637184447
 C   -2.8391628680   -1.7073460245   -0.5652199009
 O   -3.7829742320   -2.3020808229   -0.9824494324
 C   -1.4285104558   -2.0907890474   -0.0871162058
 H    0.8196966340    1.7727570204    0.1402320903
 H   -0.8217950672    1.7823637570    0.5741961819
 H   -3.2122122941    0.2470690855    0.4666699500
 H   -2.4735870040    0.4146261011   -1.1554102995
 H   -0.7509206224   -2.4395715522   -0.8751035273
 H   -1.3879510409   -2.7902762472    0.7539963884