21

 C   -0.2306000866    1.5509997704    0.0041098926
 C    0.0277345259    0.0447613558    0.0009628537
 C    0.8798810196   -0.4815851028   -1.2035453206
 C    1.9935477231   -1.3165533360   -0.5281259491
 C    1.2582448933   -1.8879445982    0.7092986319
 C    0.8065224235   -0.5090397920    1.2393130264
 C    2.1396033600    0.2360526506    1.2927743903
 O    2.4680247090    1.1031886891    2.0607554616
 C    2.9843895572   -0.3431552340    0.1415433392
 H    0.7022304308    2.1239757817    0.0089867647
 H   -0.8002573558    1.8465742556   -0.8831337523
 H   -0.8044108568    1.8522307312    0.8866748817
 H   -0.9409394253   -0.4680408340   -0.0031229424
 H    0.2748217716   -1.0963859916   -1.8759772431
 H    1.2937566215    0.3385076389   -1.7995566721
 H    2.4651743413   -2.0500637594   -1.1838235295
 H    0.4161555575   -2.5372675469    0.4518556228
 H    1.9205158585   -2.4253081134    1.3954053927
 H    0.2493426630   -0.4639823132    2.1747585043
 H    3.8494538881   -0.8672040124    0.5654534414
 H    3.3655827607    0.4499021206   -0.5082271343