18

 C    1.1623793850    0.9751464614    0.3940093602
 C   -0.0101320904    0.0651335350   -0.0153417749
 C   -0.5732460603   -0.6900513769    1.1957484927
 O   -1.0986389472    0.8520519384   -0.5083598189
 C    0.4353724181   -0.8846638957   -1.0517090029
 C    0.8026399189   -1.6318683656   -1.9201843438
 C    1.2375395822   -2.5483718591   -2.9715306304
 C    2.2362285568   -1.9577573403   -3.8733502514
 N    3.0199703713   -1.5018564366   -4.5880730645
 H    1.9867978097    0.3926091999    0.8146398178
 H    1.5451415699    1.5232822864   -0.4724740100
 H    0.8148021760    1.6952015877    1.1399464477
 H   -0.9226709977    0.0327367143    1.9380809169
 H   -1.4163984543   -1.3132949464    0.8905528210
 H    0.1932222007   -1.3244323841    1.6469611724
 H   -0.8016836265    1.2946445002   -1.3112352854
 H    1.6672854419   -3.4587059631   -2.5338544303
 H    0.3815324559   -2.8755490057   -3.5757832462