18

 C   -0.3603968684    1.1886460893   -0.1198972861
 O   -0.1576148003   -0.2075565584   -0.2440533464
 C    0.8568579272   -0.5470107465   -1.1503464818
 C    1.0202364842   -2.0767284309   -1.1333761017
 C    0.6712833582   -2.5180298219   -2.5644788048
 O   -0.0568170145   -3.7314068436   -2.5333436089
 C   -0.1255059411   -1.3051804421   -3.0775893055
 O    0.5243409349   -0.1877885689   -2.4862099553
 H    0.5506502565    1.6940383872    0.2361118293
 H   -0.6593934476    1.6386315099   -1.0735395377
 H   -1.1552132363    1.3320030032    0.6152390216
 H    1.7713137571    0.0145674097   -0.9111513739
 H    2.0221000559   -2.3813315648   -0.8273710012
 H    0.2959099436   -2.5087031128   -0.4395500111
 H    1.5878803711   -2.6284300524   -3.1616506187
 H   -0.1644500549   -4.0420807818   -3.4375440376
 H   -0.1006041984   -1.1725900325   -4.1627644500
 H   -1.1705769073   -1.3954853126   -2.7472980101