18

 C    0.0091171065    1.5138792907    0.0609768624
 C    1.3264364697    2.2337697676   -0.0871338987
 C    2.4774505357    1.5779336448   -0.2320866440
 C    2.4813742851    0.0793700918   -0.2595948816
 C    2.1687530997   -0.7142319026    1.0213658516
 C    1.2962108022   -1.6974448031    0.2643930504
 C    0.6261591715   -0.6808131945    1.1331090612
 N    0.0723018270    0.0469072574   -0.0091486466
 C    1.1686160107   -0.5689445010   -0.8162480629
 H   -0.4580630169    1.7693178764    1.0223269476
 H   -0.6901547553    1.8748579756   -0.7084073586
 H    1.2906591212    3.3208178709   -0.1056055494
 H    3.4146327803    2.1146622853   -0.3520738944
 H    3.3602443144   -0.3371724248   -0.7583785430
 H    2.8096283610   -0.8969584145    1.8750181878
 H    1.2407939935   -2.7746057170    0.2264967035
 H    0.0955526637   -0.8011923819    2.0699886359
 H    1.0018119401   -0.6717751112   -1.8872852014