22

 C   -0.2985468572    1.4251566634   -0.1026865941
 C   -0.3356990404   -0.1054820230   -0.0234819589
 C    0.9742892767   -0.6688558678    0.5393267399
 C   -1.5554839883   -0.5539300666    0.8024153365
 N   -1.7543782948   -1.9976382095    0.8382708656
 C   -2.4798434095   -2.6573860891   -0.0940031854
 O   -3.0419992760   -2.1081831439   -1.0321066011
 C   -2.5947731323   -4.1779302129    0.0710860821
 O   -3.3636695899   -4.7081877793   -0.9659708143
 H    0.5384021158    1.7653709976   -0.7201844676
 H   -1.2202819422    1.8254662149   -0.5372238255
 H   -0.1763350836    1.8703387743    0.8924924981
 H   -0.4793504548   -0.5012317497   -1.0368311818
 H    1.1594268541   -0.2966661258    1.5549949014
 H    0.9596827503   -1.7629085666    0.5768938450
 H    1.8268842413   -0.3733584885   -0.0799884881
 H   -1.4602878079   -0.1988625871    1.8356087419
 H   -2.4638735250   -0.1176505504    0.3791696985
 H   -1.3006391612   -2.5341368895    1.5596820889
 H   -1.5825607645   -4.6143252137    0.0789268651
 H   -3.0444226015   -4.3957517619    1.0537459467
 H   -3.6180585792   -3.9317770448   -1.4947867631