21

 C    0.1358420033    1.5222517100    0.2371060507
 C    0.2275820960   -0.0036141102    0.1354626973
 C    0.6214072555   -0.5088286621   -1.2755269223
 C    2.0124745776    0.0090044852   -1.5969233230
 O    2.2616760336    0.8293720505   -2.4435913528
 C    0.5526192521   -2.0380675112   -1.3650646358
 C   -0.8286059783   -2.6520258628   -1.2678845521
 C    1.6071561055   -2.7966518185   -2.0588215808
 O    1.5737216490   -2.7314425847   -0.6291554734
 H    1.0886901768    2.0068876750    0.0033779776
 H   -0.6110826299    1.9197118796   -0.4583771982
 H   -0.1531902905    1.8239111821    1.2481655390
 H    0.9554388723   -0.3917462704    0.8582388860
 H   -0.7376458623   -0.4404573760    0.4100759359
 H   -0.0594630354   -0.0825355963   -2.0217662085
 H    2.8123787651   -0.4142901887   -0.9493046595
 H   -1.4753235424   -2.2742291971   -2.0667928281
 H   -0.7631304321   -3.7390226291   -1.3579261595
 H   -1.3049178059   -2.4240904360   -0.3102685471
 H    1.3713143773   -3.7705177380   -2.4857376893
 H    2.4416464227   -2.2823775813   -2.5339287660