22

 C    0.3778443819    1.0564377965   -0.6970182032
 C    0.3135770061   -0.3463681479   -0.0797384238
 C    1.1198425335   -1.3638505128   -0.8844300856
 O    1.5874742086   -1.1667454135   -1.9747259141
 N    0.6867697540   -0.4772030671    1.3331606443
 C    2.0079671243    0.0618209411    1.6439313738
 C   -0.3515179988   -0.0575540100    2.2813046934
 C   -1.4172725105   -1.1465177450    2.4307469394
 O   -0.8271039747   -2.3823485360    2.7677922370
 H    1.4029255216    1.4335766686   -0.7310289516
 H    0.0124078429    1.0221655329   -1.7257333841
 H   -0.2371243959    1.7638117143   -0.1341583510
 H   -0.7213101362   -0.7135174478   -0.1579515915
 H    1.2340993716   -2.3411764814   -0.3621918148
 H    2.0548058478    1.1625634388    1.6290173172
 H    2.3120842420   -0.2759563159    2.6387308900
 H    2.7421366270   -0.3142515332    0.9239479466
 H    0.1326741951    0.0764197025    3.2537187340
 H   -0.8160490352    0.9063256458    2.0138920833
 H   -2.1093854909   -0.8717890544    3.2344063875
 H   -2.0186038649   -1.2269731440    1.5081776958
 H   -0.0139838193   -2.4147277914    2.2434578775