18

 O    0.0142703824    0.0380617347    0.1452159468
 C   -0.0320490704    1.2362235834    0.0689082741
 C   -1.2356993081    2.1780815437    0.0130164833
 C   -0.8746885595    3.0941158519    1.2187338575
 C    0.2402826074    3.5222931683    0.2438132346
 C    1.1140013047    2.2640249656   -0.0389586734
 C    1.3961839321    2.3797350852   -1.5521946444
 C    0.0170490169    2.8880941548   -2.0726962251
 N   -0.7421509828    3.3087109420   -0.8723654734
 H   -2.2255970285    1.7601602152   -0.1623664766
 H   -1.6175647650    3.8779489970    1.3658432922
 H   -0.6003765472    2.6194714650    2.1624408293
 H    0.7463645655    4.4874701810    0.3045255502
 H    1.9804613333    2.0600023782    0.5898392445
 H    2.1961051268    3.1019765482   -1.7464108538
 H    1.6925174038    1.4236555800   -1.9904003445
 H    0.1227351023    3.7461727136   -2.7423203853
 H   -0.5415093838    2.1160403721   -2.6101638061