16

 O    0.5816509521    1.4497495774    0.5301595133
 C    0.2495257512    0.1037935150    0.4335138864
 C   -0.5173081146   -0.6340760096    1.5668671471
 N   -1.3930387832   -1.3096231388    0.5552203221
 C   -0.8920033950   -0.3851293472   -0.5134923125
 C   -2.0121698607    0.6159725226   -0.7731940090
 O   -2.0617696834    1.7145896850   -0.2498031595
 C   -3.0665287864    0.1452715371   -1.6473533487
 C   -3.9084113319   -0.2610382287   -2.4056264716
 H   -0.2532754290    1.9408052584    0.5134529095
 H    1.1710650217   -0.4360301108    0.1924151742
 H    0.0596397731   -1.3063993558    2.2078093663
 H   -1.1036010710    0.0423250445    2.1977581527
 H   -1.0902924326   -2.2600846181    0.3738753716
 H   -0.6029523873   -0.8643166589   -1.4542263842
 H   -4.6662684531   -0.6056006921   -3.0669292076