19

 C   -0.4099779279    1.3899097319   -0.1778870151
 C    0.0724032690   -0.0352071492   -0.0448619016
 O    0.4319396323   -0.5360579304    0.9962549396
 C    0.0900379594   -0.8502548912   -1.3089123401
 C    1.3072618531   -1.4603952343   -2.0532846655
 C    0.0339048269   -1.6446827877   -2.9225250786
 C   -0.1005697777   -2.0809294676   -4.3467354193
 C   -0.7361744896   -2.1161337340   -1.6593194721
 O   -0.3516025669   -0.2399520553   -2.5839233487
 H    0.2109945826    1.9255351751   -0.9041449520
 H   -1.4271075098    1.4005330574   -0.5845983974
 H   -0.3801268534    1.8863670448    0.7924512209
 H    2.0262094152   -0.7319037406   -2.4307089785
 H    1.7743578328   -2.3468389976   -1.6197173690
 H    0.2161640338   -3.1230181391   -4.4538370033
 H   -1.1404965939   -1.9982771104   -4.6765092852
 H    0.5217876625   -1.4600155315   -4.9980257044
 H   -0.4428457401   -3.0583366425   -1.1922584844
 H   -1.8160931482   -1.9649085876   -1.6899930253