14

 N   -0.1011520518    1.1633773598   -0.6879207845
 C   -0.0109418420    0.0685014320   -0.0511310553
 C   -1.2588693482   -0.5962045522    0.4810192435
 C   -1.1663246100   -2.0824085569    0.7710631885
 O   -2.1294718320   -2.7966722001    0.9055415186
 N    0.1240862073   -2.5674190093    0.9302918276
 C    1.3211142010   -1.8936997219    0.7153325262
 O    2.3996813188   -2.4095608336    0.8894578934
 N    1.1782139174   -0.5903485760    0.2660888556
 H    0.8128522354    1.5242225590   -0.9683480641
 H   -1.5243346581   -0.1133252390    1.4309928618
 H   -2.0906580029   -0.4152137354   -0.1992973914
 H    0.2194864239   -3.5390567244    1.1944098726
 H    2.0570192112   -0.1516185920    0.0288615675