15

 N    0.0702924252    1.2606574617   -0.5047542959
 C    0.0804568140    0.0793488561   -0.0784641204
 O    1.1771835169   -0.5847026662    0.4262326686
 C    0.8179736882   -1.8805828324    0.8536835964
 C   -0.1321847757   -1.9884664860    2.0170547289
 C   -0.6411038042   -2.0491498642    0.5872070939
 N   -1.0256333444   -0.7952816391   -0.0075673472
 C   -2.3306513677   -0.5327147544   -0.4043574548
 O   -2.7352352300    0.4741303805   -0.9159634737
 H    1.0025302978    1.6648493095   -0.4326993397
 H    1.5791545958   -2.6214249810    0.6476710348
 H   -0.1176359556   -2.9196737273    2.5727290892
 H   -0.3402199404   -1.0967647604    2.5980355163
 H   -1.0869683760   -2.9431899183    0.1702544136
 H   -2.9719426339   -1.4103351585   -0.1860958399