18

 C    0.1158047471    1.4218988576    0.1870671761
 O    0.0146452316    0.0080220803    0.0000410503
 C   -1.2520019815   -0.4733126204    0.0393125953
 O   -2.2262983062    0.2263647780    0.2271620628
 N   -1.2856268666   -1.8273363828   -0.1509818865
 C   -0.1167886339   -2.6658318925   -0.3566468824
 C   -2.5856640241   -2.4860059781   -0.1159520784
 C   -2.9462175847   -3.1157157483   -1.3875324253
 C   -3.2343822899   -3.6459815339   -2.4265551673
 H    1.1817016355    1.6476179701    0.1402766192
 H   -0.4218513514    1.9580917193   -0.5988912422
 H   -0.2945612381    1.7167085374    1.1559373396
 H    0.0290926249   -3.3463813289    0.4931607303
 H   -0.2468946061   -3.2699256781   -1.2610390369
 H    0.7674511922   -2.0442902461   -0.4665193789
 H   -2.5888377256   -3.2472964406    0.6776735041
 H   -3.3200562288   -1.7232990924    0.1525299775
 H   -3.5019298042   -4.1041232704   -3.3465644972