17

 C    0.3181301827    1.4914132780   -0.4837946730
 C    0.0705124078    0.0722583300   -0.0401133990
 N    1.2182394561   -0.8364992381   -0.0207251571
 C    0.5728101866   -0.4899992878    1.2592468631
 C    1.3547422851    0.2751058668    2.2453796610
 N    2.2914861925    1.1580772253    2.0853125715
 C    2.6337662447    1.5441350896    3.3737351382
 C    1.8727381777    0.8623284131    4.2595492301
 O    1.0428378185    0.0399370523    3.5505276044
 H    1.2684829216    1.8559962934   -0.0909934857
 H    0.3453266547    1.5430970121   -1.5774423779
 H   -0.4851930195    2.1489299142   -0.1341637645
 H   -0.8833982098   -0.3480339020   -0.3603583395
 H    0.9496375791   -1.7779422757   -0.2943525249
 H   -0.0577896511   -1.2360552718    1.7357977530
 H    3.4010808720    2.2782929934    3.5614018303
 H    1.7874916315    0.8270464870    5.3316124900