20

 C   -0.3046307440    1.2190647795    0.5136420076
 C    0.1895197172   -0.1722211688    0.1871735616
 C    1.4677449832   -0.4012130191   -0.5498003758
 C    1.3815812500   -0.8193591779    0.9070237767
 C    2.1690710615   -0.0472289175    1.9071371250
 O    2.5602384245    1.0919971683    1.7436718406
 N    2.4982574712   -0.7832718233    3.0519643612
 C    1.5271892110   -1.2175411882    4.0437369930
 C    2.5565953378   -0.1714432699    4.3569086989
 H    0.5240779832    1.8806260289    0.7709900170
 H   -0.8327079666    1.6425329974   -0.3477701098
 H   -1.0058186207    1.2036747651    1.3557994078
 H   -0.6017332282   -0.8876853278   -0.0238390047
 H    1.5242311864   -1.1871043065   -1.2944363282
 H    2.0926364143    0.4656447992   -0.7362630920
 H    1.2903218281   -1.8774961022    1.1229595061
 H    0.4982068898   -0.8871349145    3.9231916657
 H    1.6441276872   -2.2316557566    4.4162217952
 H    3.4179823413   -0.4308726794    4.9654426226
 H    2.2312033728    0.8627640436    4.4281709716