19

 C   -0.0878311100    1.5009907374    0.0062993476
 C    0.0326542175   -0.0005897079    0.0201511939
 C    1.3705273059   -0.6820743735   -0.2047773946
 C    0.7109224405   -0.7313609729    1.1552079761
 O    1.2349836656    0.0648988857    2.1834722210
 C    0.0644015198   -2.0141164727    1.6534589438
 O   -0.8248501924   -2.5641670327    0.6932472622
 C   -1.7098726244   -1.5783207312    0.2296202412
 O   -1.0741579753   -0.6338292359   -0.5893954844
 H    0.7754905979    1.9631406348    0.4876139366
 H   -0.1589683805    1.8610983819   -1.0248808354
 H   -0.9892363116    1.8185634746    0.5403859584
 H    1.3556447026   -1.5841907732   -0.8064528000
 H    2.2491280152   -0.0536757268   -0.3075510833
 H    2.1168780353   -0.2625781088    2.3922147739
 H    0.8096379511   -2.7874087378    1.8690886452
 H   -0.4709839955   -1.7779022852    2.5869148588
 H   -2.4567846461   -2.0759019143   -0.3919153383
 H   -2.1947907455   -1.0816951813    1.0899030175