17

 O   -0.0166539540    0.3289935099   -0.9455689634
 C   -0.0203490626    1.2964741012   -0.2317579962
 C   -1.2572850009    2.0287976550    0.2811458525
 C   -0.7525740913    3.3725960850    0.8006762463
 O   -1.4392637136    4.3038183068    1.1460772287
 C    0.7498591752    3.3562735486    0.8028599815
 C    1.4390229638    4.6709205965    0.4566441148
 C    1.4580165875    4.1808299723    1.8635494248
 C    1.2337071636    2.0029996718    0.3071034889
 H   -2.0403674469    2.1272519372   -0.4743781964
 H   -1.6913590249    1.4608777729    1.1152149950
 H    2.3463045323    4.6003425805   -0.1335530305
 H    0.7857359234    5.5030783970    0.2193034278
 H    0.8174547893    4.6821221644    2.5808841779
 H    2.3809700039    3.7727348514    2.2612901183
 H    1.6438733564    1.3842633323    1.1162293548
 H    1.9950179786    2.0477086472   -0.4765576749