17

 C    0.6303273904    1.3996680343    0.2180147183
 C   -0.2416096467    0.1718607025   -0.0564201005
 N   -0.2055885055   -0.8199022609    1.0103629539
 C    0.7533851889   -1.7983953277    1.0217684880
 O    1.5346391821   -1.9943039454    0.1089580374
 N    0.7414724990   -2.5818616894    2.1764579668
 C    1.6222463063   -3.6254824932    2.3826708004
 N    1.5508843601   -4.3260883763    3.4415013569
 H    1.6777154171    1.1051782819    0.3260386720
 H    0.5568648190    2.1128808307   -0.6092511618
 H    0.3188859196    1.9135979300    1.1339564312
 H   -1.2854561061    0.4662936545   -0.2089988616
 H    0.0978642081   -0.3353706386   -0.9615181892
 H   -0.6743910740   -0.5919833070    1.8728651492
 H    0.0463743896   -2.4459240073    2.8962601204
 H    2.3250793872   -3.7328780510    1.5543918921
 H    2.2703415549   -5.0461074270    3.4335181064