21

 O    0.0695503634    1.1503584844    0.7339983232
 C   -0.0387817611   -0.1990127558    0.3365865927
 C   -1.4537111192   -0.5330797032   -0.1352632760
 C   -1.6979230127   -2.0377204873   -0.3511806554
 C   -2.3730039543   -2.4772455580    0.9594845185
 C   -3.1654753444   -1.2289229016    1.3478911437
 C   -3.4208572227   -1.0360865905    2.8349625928
 O   -4.1122087216    0.1680317324    3.0988923843
 O   -2.3681841308   -0.1212241216    0.8996763459
 H   -0.6776376918    1.3060404173    1.3242067417
 H    0.6707398073   -0.3523986259   -0.4842644106
 H    0.2417974305   -0.8858318232    1.1540423265
 H   -1.6759120674    0.0569460909   -1.0328039023
 H   -2.3699442269   -2.1981293808   -1.1991510015
 H   -0.7706585696   -2.5799681264   -0.5566038024
 H   -3.0075705535   -3.3582165908    0.8398676229
 H   -1.6238885991   -2.7006414697    1.7277335595
 H   -4.1314517465   -1.2024648679    0.8194483293
 H   -4.0476100164   -1.8507806005    3.2138005675
 H   -2.4551753960   -1.0756863394    3.3661548242
 H   -3.6269159272    0.8642276678    2.6418271457