21

 C   -0.0633295491    1.5375352044    0.1122800355
 C    0.0170210180    0.0397344140    0.0183299161
 C   -0.8333650920   -0.8814569025    0.8533513174
 C    0.6605287979   -0.9686288706    0.9872326047
 C    1.2419926709   -1.7546840183   -0.1840246750
 O    0.7973406878   -3.0892477816   -0.2810252782
 C    0.6084242247   -0.7185303254   -1.1831895615
 C   -0.3098134315   -1.2755533911   -2.2569929970
 O    0.4660723864   -2.2188816095   -3.0090690625
 H    0.8816209367    2.0075188511   -0.1846769353
 H   -0.8506130346    1.9400513101   -0.5372508466
 H   -0.2887729886    1.8571278671    1.1351220342
 H   -1.3394652125   -0.3974157386    1.6830696589
 H   -1.3826209228   -1.7127813511    0.4236747915
 H    1.1670312215   -0.7809775907    1.9265367246
 H    2.3385589270   -1.7007792269   -0.2076936095
 H    0.8800718690   -3.3238771382   -1.2155795734
 H    1.3997961900   -0.1348050672   -1.6644876891
 H   -1.1797542565   -1.7705501313   -1.8075692166
 H   -0.6792697477   -0.4691528991   -2.9078862398
 H   -0.1033404846   -2.6162826245   -3.6748836986