20

 C    0.3200526658    0.7770339765   -0.4750283897
 N    0.0609274103   -0.6073480652   -0.1391079122
 C   -1.1366102410   -0.9499556890    0.0251075713
 O   -1.4462746256   -2.2136208170    0.3931932290
 C   -2.8289265688   -2.5855064915    0.3022143296
 C   -3.1823557634   -3.1195395169   -1.1108429170
 C   -2.7930826847   -4.5486035602   -0.6153418784
 O   -1.4862054076   -4.9487358482   -0.9473768107
 C   -2.9610675612   -4.0240714365    0.8445697087
 H    0.8771153297    0.8270203292   -1.4172988206
 H   -0.5887082474    1.3927986213   -0.5760089088
 H    0.9566739123    1.2286434925    0.2943186098
 H   -2.0075000794   -0.2845082318   -0.0836953306
 H   -3.4535924652   -1.7981680861    0.7373267295
 H   -4.2521832743   -3.0289576765   -1.3199044954
 H   -2.6097434795   -2.7199204694   -1.9511484106
 H   -3.4483370992   -5.3668094188   -0.9212772996
 H   -0.8836711141   -4.2497442409   -0.6628057184
 H   -2.2079989879   -4.3382638771    1.5699910964
 H   -3.9607126585   -4.2128171547    1.2442817678