16

 O   -0.0545775291    1.4526338054   -0.0743404431
 C   -0.0123930355    0.0410103858   -0.0499808368
 C   -1.3953781695   -0.5739742534    0.0535593372
 O   -2.0983627729   -0.1799489930   -1.1443985914
 C   -3.3594810520   -0.5749083617   -1.2199850660
 N   -4.0481424842   -1.2947985432   -0.3938004856
 C   -5.2980428659   -1.3770977547   -1.0126405647
 C   -5.2745614080   -0.6956605181   -2.1756992057
 O   -4.0069117602   -0.1630689464   -2.3242256559
 H   -0.6111398330    1.7023306455   -0.8202226095
 H    0.5007107228   -0.3671122845   -0.9347584654
 H    0.5662181796   -0.2463161909    0.8338053787
 H   -1.3565930922   -1.6668998151    0.1095901161
 H   -1.9384653420   -0.1936335551    0.9238811585
 H   -6.1127616060   -1.9230461189   -0.5645621260
 H   -5.9739756819   -0.4859395519   -2.9649290404