17

 O   -0.0140118949   -0.0207718071   -0.1694143362
 C   -0.0152314070    1.1776506378   -0.0175958007
 C   -1.2825522607    1.9969065274    0.1467483919
 C   -1.2585788787    3.2155569207   -0.7478052473
 C   -0.1396001222    3.7748935313   -1.2079960684
 C    1.2393947718    3.3086689533   -0.8503502414
 C    1.7902026287    3.9311147199    0.4630311014
 O    1.4862709321    2.7234232642    1.1946181587
 C    1.2726278570    1.9866453237   -0.0329091420
 H   -2.1413775295    1.3534503203   -0.0598339129
 H   -1.3551399767    2.3094327797    1.1989253945
 H   -2.2228266588    3.6401188215   -1.0137568700
 H   -0.2016301572    4.6570455920   -1.8406297496
 H    1.9169722643    3.3494844129   -1.7058208072
 H    2.8692416975    4.1343733091    0.4521610137
 H    1.2541664601    4.7998819299    0.8573485771
 H    2.1120032942    1.3202180435   -0.2612196415