19

 C   -0.0259398096    1.4993175948    0.0612487155
 C   -0.0210442289    0.0004373485   -0.0108938477
 C   -0.0553858438   -0.6608366409   -1.1811027492
 C   -0.0158276029   -2.1302550905   -1.2836758924
 O   -0.1005883667   -2.7064289281   -2.3507164845
 C    0.1718115670   -2.8863029349    0.0293904897
 C   -0.4828317280   -2.1646276732    1.2101881421
 O   -0.2028615402   -2.7904578266    2.4535027539
 C    0.0353590744   -0.7320590011    1.3075561564
 H    0.8404129531    1.8610551462    0.6295481013
 H   -0.0066069917    1.9569836843   -0.9301779885
 H   -0.9150987917    1.8583074500    0.5947472959
 H   -0.1059857814   -0.1291655331   -2.1269089884
 H   -0.2140330631   -3.9022429267   -0.0997071342
 H    1.2500702927   -2.9659328682    0.2266550317
 H   -1.5715584531   -2.1265339594    1.0394766401
 H   -0.5463409045   -3.6891509419    2.4198059733
 H    1.0746461239   -0.7624334860    1.6670791268
 H   -0.5280562555   -0.1841252132    2.0711792183