18

 C   -0.0491797433    1.4932168988   -0.0361201804
 C    0.0252539003   -0.0061444794    0.0395697250
 C   -0.8333457074   -0.8146653861    0.9799801065
 C    0.6800879011   -0.8218189954    1.1303220809
 C    1.5093320695   -1.8745254891    0.4287840631
 C    0.8304626527   -2.9354729311   -0.4183570174
 C    1.2767265161   -1.6395060065   -1.0427855852
 O    0.3420763761   -0.6016935299   -1.2080882218
 H    0.9014800639    1.9145529876   -0.3788131924
 H   -0.8311169863    1.8065484080   -0.7360500727
 H   -0.2851308872    1.9162135182    0.9444586876
 H   -1.3911797877   -0.2651459712    1.7320045776
 H   -1.3446597966   -1.6934955632    0.6065469399
 H    1.1139000724   -0.3512799504    2.0049890629
 H    2.4951649291   -2.0776614615    0.8289697307
 H    1.4192154959   -3.8161926874   -0.6547531369
 H   -0.2283995788   -3.1292732847   -0.2983203770
 H    2.0556303601   -1.6302691167   -1.7981496203