17

 C   -0.1380611868    1.4472069370    0.1287672838
 N    1.2300459812    0.9084374307   -0.1013728292
 C    1.9145844796    0.5714972774    1.1042264955
 N    1.4952097157   -0.3910141840    1.8259194051
 C    0.2572937495   -0.8907453677    1.2028846880
 C    0.3169605064   -2.3381168375    0.6371952612
 C   -0.1461399893   -2.1811448883   -0.7954894850
 C   -0.2926202405   -0.9071807236   -1.1661764326
 C    0.0434683527   -0.0075617677   -0.0396001395
 H   -0.3706444962    1.8214353765    1.1240070057
 H   -0.5156688695    2.0542899995   -0.6894449486
 H    2.8157468168    1.1313513400    1.3408409077
 H   -0.5505005693   -0.8129712705    1.9377257575
 H    1.3399682977   -2.7294639130    0.6837281519
 H   -0.3107782036   -3.0332664824    1.2049927372
 H   -0.3108195356   -3.0358055714   -1.4421562225
 H   -0.5800450887   -0.5540331151   -2.1486139962