20

 C   -0.5406169462    1.2889123392   -0.8702899778
 C   -0.0794585815   -0.0186696993   -0.2151127185
 C    0.7406030349   -0.9283691810   -1.1146519686
 C    2.0604885562   -0.3885163228   -1.6674617326
 C    1.9005969630    0.2054414031   -3.0857168992
 C    3.1760321944    0.6488941039   -3.6410075562
 N    4.1944858561    0.9956987619   -4.0631119434
 C    0.5687300940   -2.3849759996   -0.9842406352
 O   -0.0294282775   -1.6782940489   -2.0735753181
 H    0.3007071209    1.9439957693   -1.1189118150
 H   -1.1038362453    1.0879629980   -1.7868298097
 H   -1.1931182347    1.8462196658   -0.1920619812
 H    0.5122664281    0.2039847809    0.6823865455
 H   -0.9567957657   -0.5828613034    0.1181693938
 H    2.4627850666    0.3713841572   -0.9904398164
 H    2.8026160923   -1.1902019641   -1.7159435433
 H    1.4640904552   -0.5538933196   -3.7414449135
 H    1.2086553556    1.0528905468   -3.0818246692
 H    1.3866394438   -3.0523517209   -1.2530855740
 H   -0.1294805502   -2.7845501566   -0.2495771475