18

 C    0.0468727054    1.3058476935    0.0149826359
 O   -0.4528096982    0.0799028344   -0.4822750150
 C    0.4454701530   -0.5694627033   -1.3249302378
 C    1.5385051218   -1.4157008194   -0.7252285422
 C    0.3418472042   -2.0650448611   -1.4042500289
 C   -0.6676417389   -2.7896342435   -0.5800062378
 C   -1.6823771639   -3.6610201516   -1.1843603991
 O   -0.5403962463   -4.2168811755   -0.5297458584
 H    0.9637594979    1.1614496079    0.6038491418
 H    0.2662385547    2.0117221050   -0.8002629056
 H   -0.7286591361    1.7335840704    0.6543192461
 H    0.6673506539   -0.0247750632   -2.2444622019
 H    2.5058051751   -1.4626157815   -1.2126510341
 H    1.5685625224   -1.4739447696    0.3579982915
 H    0.5159979879   -2.5095966467   -2.3796244833
 H   -0.9018801538   -2.3265873962    0.3768232986
 H   -2.6361049925   -3.8153089635   -0.6810027433
 H   -1.7070674663   -3.7853349762   -2.2667551164