19

 C   -0.2038568188    1.4129476673    0.0301212084
 N   -0.1301309134   -0.0367770994   -0.0139865219
 C    0.5778881893   -0.5733104272   -0.9254789086
 N    1.2647551993    0.0629401351   -1.9505058301
 C    0.6016123300   -2.0989119866   -1.0298982960
 O   -0.2363093755   -2.5432043312   -2.0956582564
 C    1.9720411447   -2.6135555436   -1.1613346911
 C    3.0979772248   -3.0198282280   -1.3049679708
 C    4.4490504216   -3.5413953319   -1.4553833489
 H    0.7883240267    1.8960041143    0.0452001869
 H   -0.7559187139    1.8226115827   -0.8290916573
 H   -0.7296898504    1.7218043009    0.9369346971
 H    1.3930621737    1.0589441622   -1.8566833100
 H    2.0945139660   -0.4201910226   -2.2682883436
 H    0.1383939115   -2.4740225378   -0.1149817163
 H    0.0830710700   -2.1252828049   -2.9035749185
 H    4.6075693907   -4.4135789728   -0.8120873628
 H    4.6410833394   -3.8518597081   -2.4882065048
 H    5.1999591342   -2.7899821083   -1.1880495752