15

 N   -0.0538744453    1.0435159860    0.8780537510
 C    0.0289652121    0.0938803773    0.0448950900
 C   -1.2095497804   -0.5098229384   -0.5835274910
 C   -1.1020906127   -2.0233004499   -0.6838321109
 O   -0.8835099468   -2.5616166742   -1.9892845675
 C    0.2157626407   -2.5410934761   -1.0739327401
 C    1.2657729453   -1.4738574059   -1.3169673330
 O    1.2310929959   -0.4422889475   -0.3135169790
 H    0.8801158049    1.3284590254    1.1806203932
 H   -2.0689752584   -0.1863847200    0.0028950828
 H   -1.3294256093   -0.1124622163   -1.5986902072
 H   -1.7519642440   -2.6211910292   -0.0491824697
 H    0.5505129628   -3.5194381396   -0.7375602317
 H    2.2789957186   -1.8759133689   -1.2644965867
 H    1.1124020268   -1.0379345826   -2.3111107201