24

 C    0.0345468290    0.6191426427    1.5834814676
 C   -0.0846554866   -0.0260722196    0.2075260601
 C    1.1850642989   -0.7864898248   -0.1845814653
 O   -1.2218794411   -0.8844554001    0.2634233055
 C   -1.7304559196   -1.3152575659   -0.9801492822
 C   -3.0845610145   -1.9749186617   -0.7767958915
 C   -3.7587198308   -2.3914878367   -2.0653918433
 C   -3.3262939141   -2.7314351955    0.4757699751
 N   -3.9752100505   -1.4189515956    0.2528356920
 H    0.8690966909    1.3258949152    1.6067688588
 H   -0.8835988935    1.1556346024    1.8371583938
 H    0.2079125769   -0.1454253060    2.3474609440
 H   -0.2772147879    0.7584441043   -0.5437863271
 H    1.1017465909   -1.2324659684   -1.1795650028
 H    2.0446888799   -0.1090599985   -0.1963520562
 H    1.3848058180   -1.5863374507    0.5358729120
 H   -1.8433144600   -0.4531725859   -1.6613516193
 H   -1.0483595768   -2.0278170012   -1.4705731207
 H   -3.1636719053   -3.1397355591   -2.6018270217
 H   -4.7418670290   -2.8179040031   -1.8540397830
 H   -3.9021597579   -1.5321656279   -2.7309128553
 H   -4.0011364792   -3.5835391129    0.4688417345
 H   -2.5215138655   -2.7815840536    1.2018709081
 H   -3.4470428322   -0.7247908973    0.7789029167