22

 C    0.9036494801   -0.3140235531   -1.1026670646
 C    0.0249999505   -0.0161671501    0.1200241036
 C   -0.0002894844    1.4893847262    0.4148534528
 C   -1.4086909652   -0.5552451920   -0.0479242536
 C   -1.5305933596   -2.0781338406   -0.0927905688
 O   -0.9893409681   -2.7019575228    1.0817582096
 C   -2.9723659860   -2.5584394455   -0.2806205354
 O   -3.0437038511   -3.9669252821   -0.2481357083
 H    1.9135725426    0.0837595234   -0.9600084344
 H    0.9981816509   -1.3873622118   -1.2901500420
 H    0.4892158901    0.1505917790   -2.0058536094
 H    0.4658100265   -0.5287302952    0.9845218723
 H   -0.5886147152    1.7140642251    1.3111208612
 H    1.0112798909    1.8777195296    0.5723238557
 H   -0.4418391578    2.0466334360   -0.4203568425
 H   -2.0317603656   -0.1851926943    0.7808619422
 H   -1.8520653407   -0.1406833027   -0.9642525788
 H   -0.9313051724   -2.4904780167   -0.9118451459
 H   -1.3962227469   -2.2793791384    1.8481356656
 H   -3.6080064531   -2.1032777609    0.5024975275
 H   -3.3629290232   -2.2279131298   -1.2495933842
 H   -2.4311805626   -4.2328197933    0.4506368473