18

 C   -0.1299281508    1.5234462199    0.1184253755
 N    0.0589904810    0.0777560051    0.2190536388
 C    1.3038576854   -0.5740699006   -0.1781769865
 C    2.5087419187    0.2182978382    0.2969281591
 O    3.5476491886    0.5216858391   -0.2142286506
 C    1.9858780805    0.2752906881    1.7567598106
 C    0.7949087551   -0.5756476984    1.2714147903
 C    0.1404470699   -1.6948451671    2.0288531445
 O   -0.6714910056   -1.2093213753    3.0883993353
 H    0.7336278306    2.1354905447    0.4077360580
 H   -0.3822912543    1.7609542686   -0.9185427623
 H   -0.9790969485    1.8075392083    0.7473985438
 H    1.2773466045   -1.3310573309   -0.9551840610
 H    2.6711810662   -0.2679645163    2.4142801662
 H    1.7672945700    1.2488199070    2.2007022739
 H   -0.4346895734   -2.3132660264    1.3256919538
 H    0.9011138610   -2.3268699705    2.4985582601
 H   -1.4017244689   -0.7261033135    2.6870125504