16

 N   -0.2157284610    1.4030427937    0.1551856371
 C    0.0849999492   -0.0087140244   -0.0645608430
 C    0.8609392202   -0.5250335268    1.1772332499
 O    0.1713183636   -0.1647735425    2.3413741922
 C    0.9763164908   -2.0627517239    1.1424964503
 C    1.7047990740   -2.6173050536    2.2806332449
 N    2.2794423039   -3.0796594640    3.1688495699
 C    2.2149524014    0.0974253988    1.1526857762
 N    3.2379087288    0.6310690965    1.0889320014
 H    0.5756114348    1.9887042044   -0.0917928172
 H   -1.0086630436    1.7032585605   -0.3981139906
 H   -0.8594325365   -0.5600820945   -0.1064128515
 H    0.6527682530   -0.2247821281   -0.9804160171
 H   -0.1876217174    0.7202128310    2.1484120343
 H   -0.0404908665   -2.4682848372    1.1438179608
 H    1.4676578853   -2.3778173500    0.2159114425