20

 C   -0.1970484026    1.5592472129   -0.1738815975
 N    0.0772314417    0.1451366469    0.0277596461
 C    1.3331144089   -0.5003907792   -0.2846709669
 C    2.6279077988    0.3154661277   -0.3864458108
 C    2.9837769767    0.7807828291    1.0473192006
 C    2.6386090452    2.2088907544    1.5171520399
 O    1.4856246076    1.7428427590    2.2507688818
 C    1.8104244039    0.3559208269    1.9643348103
 C    0.8134008066   -0.4383857252    1.1342702629
 H    0.6833591035    2.2063496126   -0.2554214550
 H   -0.7696188342    1.6580521696   -1.1030331809
 H   -0.8088676745    1.9289505393    0.6510045108
 H    1.2573982967   -1.3981013346   -0.8955197578
 H    3.4177257615   -0.3236036814   -0.7920348075
 H    2.5282124579    1.1594722570   -1.0793212145
 H    3.9768698321    0.4413079083    1.3453368308
 H    3.3832185531    2.6569323629    2.1870249750
 H    2.3760960519    2.9419537447    0.7444544289
 H    2.0616961502   -0.1818729627    2.8862549753
 H    0.3178199752   -1.2791079881    1.6152835686