19

 C   -0.1653505966    1.5254413297   -0.0050086369
 C    0.0229183435    0.0159921944    0.0191581879
 C    1.1879198302   -0.6134351957   -0.8316560457
 O    1.3490952893   -0.1874000796   -2.1455697480
 C    2.1621722122   -0.2192038825    0.3379849857
 C    0.8890113446   -0.6186785122    1.1699611704
 O    0.6589936873   -0.1994730757    2.4757929666
 C    0.7781591315   -2.1087520595    0.8014622137
 C    0.9754158054   -2.1052995398   -0.5192474180
 H    0.7613624568    2.0860620919    0.1349063990
 H   -0.5959064079    1.8304617457   -0.9640327269
 H   -0.8576233809    1.8258655816    0.7878635618
 H   -0.9392499376   -0.4828315395   -0.1258244760
 H    2.1537003072   -0.5820048065   -2.4983577877
 H    3.0591960667   -0.8295344254    0.4703326237
 H    2.3967462105    0.8459190509    0.3758096146
 H    1.3250469208   -0.5973901438    3.0464052473
 H    0.5495340770   -2.9164096937    1.4839903995
 H    0.9568227898   -2.9092693303   -1.2429235308