19

 C   -0.5289007774    1.2749830943   -0.1232269815
 C    0.0112740419   -0.1264244718   -0.0097043099
 O    1.4224611035   -0.3250518301   -0.1951549275
 C    0.8642318547   -0.6143831919    1.0903774508
 C    1.3187339588    0.2172237807    2.2578559390
 C    0.4779973964    0.1940610371    3.5278888760
 C    1.7809318998   -0.5206622212    3.5225407455
 C    2.0811770459    1.4738376726    1.9943445525
 O    2.3369978937    2.2924296173    2.8483803398
 H   -0.5030864328    1.6080053212   -1.1658832880
 H   -1.5717996598    1.2999743411    0.2102969197
 H    0.0369583035    1.9921169489    0.4748965601
 H   -0.5905615173   -0.8810911108   -0.5208577084
 H    0.8059812961   -1.6830545265    1.3114955128
 H    0.4218266980    1.1362650309    4.0609507753
 H   -0.4363248464   -0.3884601409    3.4956498106
 H    1.7868310104   -1.6044991069    3.4731221846
 H    2.6093056991   -0.0713564808    4.0574348272
 H    2.4314768917    1.5946448767    0.9523245414