19

 C   -0.2328929340    1.4969474584    0.0695973428
 N    0.0547413695    0.0666735014    0.0954473075
 C    1.3371380217   -0.4708757635   -0.3136273008
 C    2.5318185070    0.4613042852   -0.3456225259
 O    2.6302791701    1.0355115124    0.9698907939
 C    1.8176991456    0.3734225925    1.8543996685
 N    1.8359177987    0.5390447095    3.1063247317
 C    0.9017502929   -0.5578467262    1.1201630918
 C    0.3702183236   -1.7656662006    1.8425816689
 H    0.6072854636    2.1535237886    0.3317509121
 H   -0.5770803237    1.7574406437   -0.9362005840
 H   -1.0515335751    1.6946962797    0.7670125634
 H    1.3211044713   -1.3181647991   -0.9936089838
 H    3.4527634664   -0.0896946777   -0.5691719483
 H    2.4349256188    1.2835562697   -1.0624824885
 H    2.5625793707    1.2060078244    3.3720805346
 H   -0.1818913094   -1.4539568910    2.7336196103
 H   -0.3000682015   -2.3269099276    1.1881107846
 H    1.1855043537   -2.4174677998    2.1707497612