16

 N    0.1070743702    1.3919099967    0.1766192577
 C   -0.0636121650    0.0191863985    0.0509838386
 C   -1.1390803759   -0.8087595983   -0.0156278583
 C   -2.6322111315   -0.8693217576   -0.0559306405
 O   -2.9221754154   -2.2531326512   -0.3121223844
 C   -1.7739893922   -3.0893172810   -0.1005967479
 C   -0.6203094594   -2.1390639172   -0.0413681484
 C    0.7259007433   -2.0535147192    0.0098071904
 O    1.0804869391   -0.7150427160    0.0659688941
 H    1.0034594392    1.7000088035   -0.1788305838
 H   -0.6433014204    1.9209416175   -0.2465798031
 H   -3.0978946424   -0.5574769966    0.8929182011
 H   -3.0909263138   -0.2775033559   -0.8592969408
 H   -1.8883235333   -3.6612099574    0.8333928599
 H   -1.7209089520   -3.8073474469   -0.9275863615
 H    1.5481564195   -2.7467031688    0.0133833269