20

 C   -0.0367979259    1.2703433517    0.6480969263
 C   -0.3656695367   -0.2182196196    0.5114826568
 C   -1.2403184647   -0.5072844347   -0.7143724209
 N   -1.5544064828   -1.9194271799   -0.8750654593
 C   -2.7670310837   -2.4442080307   -0.5501097837
 O   -3.7041727924   -1.7828654618   -0.1367405215
 C   -2.8944000419   -3.9565936051   -0.7302426535
 C   -3.3978819884   -4.6058648334    0.5504035817
 O   -2.9694294055   -5.6409327901    0.9882388887
 H    0.5865434368    1.4577640343    1.5269851333
 H    0.5049154322    1.6412625955   -0.2292447749
 H   -0.9484289271    1.8684389747    0.7519222733
 H    0.5629009783   -0.7999573930    0.4410986920
 H   -0.8898352683   -0.5740686998    1.4057478932
 H   -2.1980245568    0.0113430504   -0.6274306235
 H   -0.7448558523   -0.1479547229   -1.6249538409
 H   -0.8180286740   -2.5459496284   -1.1561674506
 H   -3.6688140674   -4.1137494865   -1.4928133960
 H   -1.9796176986   -4.4581311108   -1.0550506499
 H   -4.2079647007   -4.0373587599    1.0503419994