16

 O    0.1318539470    1.3711638209   -0.0491068688
 C    0.0290140533   -0.0343665043    0.1143808294
 C   -1.3860865175   -0.5204753588    0.0960365266
 C   -2.4996881394    0.2155850386    0.1780591254
 N   -3.6665544286   -0.5838403392    0.1519199161
 C   -3.3332457112   -1.9002990328   -0.0606211924
 O   -4.0662660337   -2.8236458973   -0.3343408748
 C   -1.7933706714   -1.9737853885    0.0547392891
 O   -1.2396509124   -2.7003756266   -1.0209674763
 H   -0.1712225988    1.5771714027   -0.9398387691
 H    0.6094495533   -0.5792071645   -0.6463390916
 H    0.5032592692   -0.2562792136    1.0798182317
 H   -2.5888755444    1.2862869735    0.2873109326
 H   -4.5964119883   -0.2320189715   -0.0128467982
 H   -1.5551081660   -2.4592590174    1.0196773363
 H   -1.8623637810   -3.4175042012   -1.2045790059