18

 O   -0.0367972810   -0.0244516451    0.2868334009
 C    0.0881696082    1.0785258158   -0.1815050839
 C    1.3233309908    1.9017516422   -0.0837990314
 C    1.0307498585    3.4085008294    0.1534452295
 C    1.5526728735    2.9424039212   -1.1680671722
 O    2.8625068096    3.2755503751   -1.5130339443
 C    3.8183386797    2.2490494145   -1.2582947312
 C    3.7581276944    1.8106515626    0.1976841652
 N    2.4556277213    1.2087095218    0.4400005395
 H   -0.7560076682    1.5910813401   -0.6998493078
 H   -0.0029479324    3.7269327782    0.2349104031
 H    1.7320768239    3.9377483975    0.7876187918
 H    0.8769656637    2.9377528106   -2.0221050279
 H    3.6414076658    1.3832123652   -1.9125717435
 H    4.7909373158    2.6844508390   -1.4988918169
 H    4.5317768688    1.0588529387    0.3898603445
 H    3.9783859361    2.6851876318    0.8357244032
 H    2.3115906313    0.9221344814    1.3994062315