19

 C   -0.0054877542    1.4287902535   -0.1623112375
 C    0.0628224812   -0.0579187694    0.0895929890
 O    0.2027343104   -0.5824496512    1.1635498856
 O   -0.0569967930   -0.7384961460   -1.0786290159
 C   -0.0127293833   -2.1438210198   -1.0168407741
 C   -0.9931968845   -3.1044483081   -0.2919514992
 C    0.0304297320   -3.9911045575   -1.0631672266
 C   -0.1366158224   -3.0227675024   -2.2756450062
 C    1.1570294978   -3.0479271415   -0.5437397896
 H    0.0934251155    1.9619951603    0.7822958094
 H    0.7915416205    1.7295141700   -0.8481822464
 H   -0.9563656015    1.6841768974   -0.6386441905
 H   -0.9417216204   -3.1184861059    0.7966267081
 H   -2.0221626461   -3.1171668843   -0.6609498913
 H    0.0548363783   -5.0769335485   -1.0981627651
 H   -1.1077677026   -3.0262744464   -2.7769202242
 H    0.6918450930   -2.9789482241   -2.9871176915
 H    2.0722318697   -3.0095085833   -1.1404306263
 H    1.3590762996   -3.0579944728    0.5271809722