25

 C    0.0615539757    1.5577953397    0.0945041304
 C   -0.0238134260    0.0366037411    0.2457926955
 C   -1.3925976424   -0.5338583269   -0.1405954570
 C   -1.4863847798   -2.0558363955    0.0069921800
 C   -2.8616086562   -2.6176023924   -0.3754738826
 C   -2.9446236600   -4.1245243667   -0.2469028208
 C   -3.1979825554   -4.7684585562    1.1055829738
 C   -4.2512489128   -4.8112261201    0.0256364953
 O   -5.3861856716   -3.9988988916    0.1343103363
 H    1.0502854683    1.9342288165    0.3756010526
 H   -0.1292209187    1.8640965124   -0.9402097300
 H   -0.6781893401    2.0607614809    0.7274982594
 H    0.7522281340   -0.4371425273   -0.3703313479
 H    0.2040783179   -0.2417748235    1.2834142529
 H   -2.1700210685   -0.0604446078    0.4757800176
 H   -1.6217103641   -0.2537463472   -1.1785457112
 H   -0.7122522489   -2.5291713328   -0.6135138177
 H   -1.2561327458   -2.3391950902    1.0429428855
 H   -3.6394325800   -2.1606315266    0.2453370119
 H   -3.0963254273   -2.3315622308   -1.4099093805
 H   -2.2693449824   -4.6679317632   -0.9040898336
 H   -2.6754114045   -5.6809134333    1.3721740756
 H   -3.3886474296   -4.0943753842    1.9352369529
 H   -4.4277323295   -5.7667386631   -0.4690114286
 H   -5.9370598922   -4.3545864512    0.8389712704