19

 O   -0.0704882907    1.3900926650    0.1285802058
 C   -0.0183179593   -0.0045806093    0.0442694074
 C   -1.3563908632   -0.6963018273    0.0571554978
 C   -2.6221042327    0.1528425643    0.1503848497
 C   -3.1728589148    0.5760949141   -1.2270694977
 C   -2.0828095275    1.1325367342   -2.1257266682
 O   -2.1336881639    2.2273520948   -2.6343960048
 C   -0.9343505898    0.1652925791   -2.4009875205
 C   -0.5113374117   -0.6815913604   -1.2110649596
 H    0.5928311848    1.7639794520   -0.4610749953
 H    0.8057092375   -0.4630835941    0.5897607890
 H   -1.3894213959   -1.6407017238    0.5901141708
 H   -3.3956175216   -0.4059685324    0.6848500464
 H   -2.4139816459    1.0520117068    0.7374792673
 H   -3.5916454002   -0.3068365129   -1.7304166194
 H   -3.9647594395    1.3219363723   -1.1300099113
 H   -1.2933178813   -0.5039702907   -3.1957870415
 H   -0.1008026171    0.7337928161   -2.8270816333
 H   -0.0156274471   -1.6123940378   -1.4715295123