17

 C   -0.0165033401    1.4126492643   -0.0611292680
 N   -0.0356874725   -0.0388395759   -0.0913035480
 C   -1.2299876244   -0.7185354549   -0.0432973064
 O   -2.3076879428   -0.1936194235    0.1770262561
 N   -1.1123314563   -2.0849804557   -0.2649837290
 C   -0.0094164856   -2.9518303684    0.2074958819
 C   -1.0914477550   -3.9980955986    0.5576268205
 O   -1.0691284630   -5.1188863276    0.9606052450
 C   -2.1900435073   -3.0021021362    0.1531266967
 H    0.8665074765    1.7665505334    0.4787439327
 H   -0.0164164521    1.8539106623   -1.0662468935
 H   -0.9153701993    1.7451075415    0.4582451481
 H    0.7433145399   -0.5024657416   -0.5303382611
 H    0.7071144124   -3.2627470194   -0.5615255542
 H    0.5350164626   -2.5631928236    1.0778691711
 H   -2.7954661753   -2.6197684019    0.9833455427
 H   -2.8558434376   -3.3316669543   -0.6509998944