23

 C   -0.1800374090    1.0219732585    0.2608959286
 O    0.6050889381   -0.1523988820    0.2128219369
 C    0.8591525476   -0.5956041812   -1.0835409905
 C    1.4471322457   -1.9622945886   -1.2050184552
 C    0.0309604339   -1.7088698126   -1.6983926175
 C   -1.1553479805   -2.3229629396   -0.9761917408
 C   -2.4823108940   -1.6905359951   -1.4202792121
 C   -1.1843531924   -3.8390145151   -1.1897706878
 O   -2.2434484898   -4.3814480994   -0.4118116841
 H    0.3097672029    1.8535438075   -0.2685740993
 H   -1.1763480921    0.8731478723   -0.1765569148
 H   -0.2897777340    1.2911007637    1.3139895807
 H    1.2243092634    0.1859417798   -1.7520511469
 H    2.2444029590   -2.1351440014   -1.9192102843
 H    1.5468262430   -2.5099769914   -0.2732959049
 H   -0.0853449532   -1.6493875023   -2.7793192462
 H   -1.0263155208   -2.1527218106    0.0994853854
 H   -2.6310515491   -1.8193356046   -2.4996958811
 H   -3.3212625640   -2.1650526029   -0.9069879134
 H   -2.5060486709   -0.6175423232   -1.2094805289
 H   -1.3288881122   -4.0562581667   -2.2621254179
 H   -0.2164805986   -4.2706809539   -0.8946664594
 H   -2.2803514130   -5.3283835312   -0.5726099166