14

 N    0.0048459730    1.3541072820    0.1284097180
 C    0.0175997643   -0.0097283776    0.0373297379
 N   -1.0453966163   -0.7486562560    0.0131949439
 C   -0.6632949449   -2.1764180551   -0.0103968481
 C    0.8373080626   -2.1518212543   -0.0171544941
 N    1.9079137082   -2.9333403835   -0.0425082128
 N    2.9040859321   -2.0310928856   -0.0251810040
 N    2.5683356579   -0.7370339857    0.0106064864
 C    1.2411670028   -0.8161260637    0.0157214755
 H    0.8181262071    1.8438990722   -0.2075728260
 H   -0.8810091390    1.7936901073   -0.0708786103
 H   -1.0795900888   -2.6911735479    0.8638126459
 H   -1.0902403694   -2.6610539774   -0.8962962984
 H    3.8694330305   -2.3204819847   -0.0378668739