21

 C    0.0968586443    1.5421294904    0.0889562959
 C   -0.0258370194    0.0181415856   -0.0083981419
 C   -1.4717486666   -0.5141044388   -0.0651221082
 C   -2.2056149070   -0.0464413377   -1.3307700819
 C   -1.4587753389   -2.0485423382    0.0618975875
 C   -2.8593926483   -2.6747579053    0.2285493012
 C   -2.7984772934   -4.1185719088    0.4455297281
 N   -2.7313186538   -5.2596503793    0.6160535720
 H    1.1439709417    1.8392733163    0.2016345691
 H   -0.2902919914    2.0461536411   -0.8015190375
 H   -0.4518781753    1.9283632188    0.9554166026
 H    0.5199573819   -0.3392614148   -0.8925742482
 H    0.4755551570   -0.4313372654    0.8580216750
 H   -2.0067879662   -0.1115079461    0.8089867237
 H   -3.2472363950   -0.3808996835   -1.3513292048
 H   -2.2219748441    1.0440719510   -1.4035453623
 H   -1.7129052765   -0.4333265125   -2.2310895981
 H   -0.9736915603   -2.4901634019   -0.8172361751
 H   -0.8508860742   -2.3348126229    0.9270768488
 H   -3.3782521359   -2.2188669340    1.0805287169
 H   -3.4812001986   -2.4899108942   -0.6533732129