15

 N   -0.0335588018    1.3659750790    0.4042508041
 C   -0.0839122288   -0.0035940021    0.0894547678
 C   -1.1295689019   -0.8928877954   -0.0399336969
 C   -0.5423019458   -2.1633485071   -0.2892501984
 O   -1.2629002371   -3.3172159094   -0.5267300204
 C   -1.0471885723   -4.3714074232    0.3020925382
 O   -1.5645397183   -5.4319581201    0.1325571951
 C    0.8241026547   -2.0311223468   -0.3173333312
 N    1.0864094337   -0.6973708313   -0.0771180115
 H    0.2218212449    1.9402856935   -0.3939093058
 H   -0.9297450085    1.6894735627    0.7459480302
 H   -2.1829305539   -0.6689093603    0.0091717818
 H   -0.3493959382   -4.1153211373    1.1201556805
 H    1.6054370024   -2.7435008937   -0.5190460989
 H    1.9965306810   -0.2978861486    0.0732422155