20

 C    0.1063203332    1.4531175426    0.1961840465
 C   -0.1083694006   -0.0575866972    0.0886323065
 C   -1.5854473054   -0.4956699546   -0.1390044945
 C   -1.7320257251   -2.0558942813   -0.1083852956
 C   -2.2436505034   -2.4000952084    1.3120240842
 C   -2.8178522851   -1.0925167206    1.7961959173
 C   -2.4900997447   -0.0689924857    1.0131804085
 C   -2.0546172555    0.0522625255   -1.4194161745
 N   -2.4158317004    0.4876481722   -2.4280820541
 H    1.1699064241    1.6793571737    0.3149211368
 H   -0.2475412161    1.9678237772   -0.7024651642
 H   -0.4193697811    1.8746218352    1.0584456582
 H    0.4931372046   -0.4591546880   -0.7351087763
 H    0.2330592808   -0.5523782274    1.0050970753
 H   -2.4715168051   -2.3636500876   -0.8509828472
 H   -0.7892712246   -2.5469103295   -0.3603860800
 H   -2.9843541973   -3.2067256357    1.2959576842
 H   -1.4358550510   -2.7398704908    1.9741255765
 H   -3.4067533384   -1.0117800558    2.7031903187
 H   -2.7731048589    0.9654461562    1.1611446535