23

 C    0.6810574611    1.4491483081   -0.4913469701
 C    0.1756098049    0.0740676893   -0.0587847843
 C    0.6373831940   -1.1736431548   -0.8780295349
 C    1.1453797297   -1.8489963879    0.4198235600
 C    2.6246386020   -1.5656800479    0.8424692294
 C    3.6599931791   -1.1974314898   -0.2131509619
 C    2.1085772638   -0.4208912497    1.7889308046
 O    2.7360306651    0.8391557997    1.8019977582
 C    0.6599861599   -0.6096090416    1.2632133854
 H    1.7450646488    1.4401811407   -0.7595182034
 H    0.1489407085    1.7837195371   -1.3889456163
 H    0.5295075476    2.2032973324    0.2874688694
 H   -0.9177186888    0.1203775006   -0.0304950103
 H   -0.1867674653   -1.7106758303   -1.3545863881
 H    1.3935053747   -0.9828608961   -1.6449612504
 H    0.7918749312   -2.8622454846    0.6131650105
 H    3.0257796876   -2.3967327514    1.4314434790
 H    3.3641732557   -0.3399530917   -0.8266102347
 H    4.6105565765   -0.9396025688    0.2642354778
 H    3.8409220579   -2.0344553213   -0.8961883460
 H    2.1534244493   -0.7559972029    2.8297706267
 H    2.6906176741    1.2170323081    0.9202219598
 H   -0.1062874375   -0.6737108170    2.0383642596