14

 N    0.0231407091    1.3256989397    0.0112334005
 C   -0.0106677108   -0.0228374126    0.0034365057
 N   -1.1512194956   -0.6475699615    0.0016145536
 C   -1.1986877128   -2.0137393052   -0.0053379528
 N   -2.2779119790   -2.6785456693   -0.0076931962
 O    0.0336332663   -2.7343953054   -0.0101159165
 C    1.2020026049   -2.0641682162   -0.0083745573
 C    1.2633241905   -0.7252694423   -0.0017832275
 O    2.3934508183    0.0484843748    0.0005619914
 H    0.9000035487    1.8141230691    0.0095752035
 H   -0.8468486049    1.8301277237    0.0125709880
 H   -2.0725099446   -3.6761352757   -0.0130486713
 H    2.0659325584   -2.7214278241   -0.0127930467
 H    3.1765560414   -0.5121584949   -0.0044414445