18

 O    0.0601096596   -0.0381931220   -0.2450844890
 C   -0.0048149219    1.1382378677   -0.0359649303
 C   -1.2783813592    1.9615602482    0.1095916509
 N   -1.5218502174    2.8155359752   -1.0563396417
 C   -0.4934429704    3.8092911446   -1.3700566523
 C    0.7924133529    3.2857155545   -2.0195299953
 C    2.1413616350    3.6623723049   -1.4282839529
 C    1.6101836121    2.2783087770   -1.2587595205
 O    1.1241340471    1.9452071819    0.0276577952
 H   -2.1266287866    1.2851649304    0.2372637327
 H   -1.1945314723    2.5988280759    0.9967241800
 H   -1.7260262696    2.2424886377   -1.8686493043
 H   -0.9426029630    4.5536781510   -2.0372153438
 H   -0.2530592461    4.3289802970   -0.4372029601
 H    0.7447986339    3.1564691317   -3.0975232004
 H    2.9894022638    3.8091286436   -2.0878537653
 H    2.1316225376    4.2995057872   -0.5504273128
 H    2.0771736643    1.4477769432   -1.7805318902