14

 N   -0.0110572492    1.3023168822    0.2762636679
 C    0.0697648036   -0.0864210017   -0.0946264983
 C   -1.2740290800   -0.8617521161   -0.2951512484
 O   -0.8056129271   -1.2997051228   -1.6224464754
 C    0.3295105928   -0.5192200360   -1.5353094489
 N    1.2048583165   -0.2453325846   -2.3887634007
 C   -1.5878427518   -1.9559075197    0.5942100270
 C   -1.8380759390   -2.8530345549    1.3534093081
 H    0.9070964148    1.6536571931    0.5246777218
 H   -0.3355484555    1.8653289033   -0.5042920278
 H    0.7204080656   -0.6143148969    0.6059634527
 H   -2.1258203400   -0.1850063870   -0.4155537939
 H    1.0192517426   -0.7020174587   -3.2835640537
 H   -2.0648123333   -3.6483634702    2.0201778095