20

 O   -0.1032915192    1.4911159600   -0.0667443677
 C    0.0203737251    0.0763442017   -0.0790545158
 C   -1.3821905707   -0.5198455080    0.0365559695
 C   -1.3288541743   -2.0470551948   -0.1295505006
 N   -2.6296500707   -2.6995915124    0.1069140305
 C   -2.7571599163   -3.4784371380    1.3403353251
 C   -3.4350704712   -2.1559905124    1.2059337933
 C   -2.9557906642   -0.9398770011    1.9063425357
 C   -2.0319689789   -0.1570070726    1.3510051853
 H    0.7794872973    1.8715931598   -0.0512197617
 H    0.4944341774   -0.2731712930   -1.0102714029
 H    0.6404155088   -0.2756622408    0.7615662413
 H   -1.9732389292   -0.0889469399   -0.7847097915
 H   -1.0098125503   -2.3045336003   -1.1466631010
 H   -0.5630907075   -2.4398778436    0.5558401242
 H   -3.3272701800   -4.4010307625    1.2619403824
 H   -1.8916246423   -3.5270516128    1.9989688686
 H   -4.5067617848   -2.1690845743    1.0023317001
 H   -3.4309152883   -0.6765440854    2.8479746628
 H   -1.7154631606    0.7688428904    1.8205591726