19

 C   -0.2178546870    1.4859669532   -0.0385072382
 C    0.0222516738   -0.0301855647   -0.0021513682
 O   -1.1964208581   -0.7521532904    0.1697457778
 C    0.7612897373   -0.4857796568   -1.1849448318
 C    1.3430983584   -0.8325135084   -2.1858902214
 C    2.0008918916   -1.3495312033   -3.3463042897
 C    3.2990668775   -2.1498489652   -3.1840662028
 C    2.0246558283   -2.8687625421   -3.5036551531
 O    1.4036434486   -3.6752314766   -2.5608734059
 H    0.7300414869    2.0308274046   -0.0682021886
 H   -0.7960556369    1.7609004947   -0.9266946135
 H   -0.7764331868    1.7851167323    0.8520862276
 H    0.6053481934   -0.2710904647    0.8950542281
 H   -1.7011576008   -0.6613739225   -0.6464624414
 H    1.8982166450   -0.7626319731   -4.2537132864
 H    4.0507918853   -2.0341694650   -3.9571868010
 H    3.6809398858   -2.2530667323   -2.1751666120
 H    1.8959673202   -3.2506987684   -4.5126670588
 H    0.9735724375   -3.1020185013   -1.9112052108