19

 C   -0.1773204721    1.5231603820    0.3858282069
 C   -0.1262276052    0.0499307823   -0.0582456659
 C    0.9723656270   -0.7125233433    0.6913415967
 C   -1.5158458304   -0.5754144354    0.0461968558
 C   -1.7593526021   -1.9585588725    0.5770182839
 N   -2.1858650423   -0.7987927678    1.3531388013
 C   -2.5033774138   -0.1389856712   -0.9927560815
 O   -2.2238890136    0.4690845059   -1.9955974792
 H    0.7940036977    2.0030031937    0.2321348819
 H   -0.9232075021    2.0809657316   -0.1851313904
 H   -0.4261692250    1.6100595172    1.4499902830
 H    0.1174096576    0.0398854508   -1.1269317563
 H    0.7540254105   -0.8052724257    1.7630943081
 H    1.1247950605   -1.7172682232    0.2873700879
 H    1.9215563657   -0.1750866612    0.6072457174
 H   -2.5675693561   -2.5609438034    0.1695982728
 H   -0.8917771710   -2.5245681505    0.8989051758
 H   -1.5211131071   -0.6154562044    2.1017626935
 H   -3.5478094381   -0.4420829551   -0.7579022017