16

 O   -0.0152337890    1.3379234936   -0.0519719474
 C   -0.0371607516   -0.0715382962   -0.0103417241
 C    0.5946240613   -0.4929569784    1.3332645528
 N   -0.5502026213   -0.6055414209    2.2224972467
 C   -1.7598032188   -0.7009445198    1.6095348418
 O   -2.8459582223   -0.8277345572    2.1299977729
 C   -1.4708897651   -0.6333697346    0.0916663360
 C   -2.5570988583    0.1016559244   -0.6544793774
 O   -2.3590000575    0.9710890572   -1.4718225677
 H   -0.6037003187    1.6013817272   -0.7742414212
 H    0.5125440023   -0.5064312296   -0.8557379541
 H    1.1336801663   -1.4452918894    1.2438247186
 H    1.2927122586    0.2793921278    1.6648947720
 H   -0.4789173267   -0.6597304646    3.2259305884
 H   -1.5085827981   -1.6746752933   -0.2648373045
 H   -3.5830282110   -0.2249665263   -0.3967738829