18

 O    0.1875896588    1.1714404110   -0.5752778493
 C    0.0538381172   -0.0812298333    0.0437273675
 C    0.0186865012   -0.1161822317    1.6089552644
 N   -1.3260807029   -0.6863927196    1.5178362637
 C   -2.1059171169   -1.2216498285    2.4795278913
 O   -1.8130185567   -1.2625355775    3.6588293816
 C   -1.3992910416   -0.5720994345    0.0731354868
 C   -2.5346356200   -0.0167511273   -0.7290604723
 C   -2.1163281878   -1.4675499953   -0.8879557476
 H    1.1240676311    1.3822166573   -0.6424262849
 H    0.7473176952   -0.8180348648   -0.3803125850
 H    0.7416385212   -0.7671045114    2.1082743963
 H    0.0391146294    0.8806461255    2.0607668624
 H   -3.0551103765   -1.6267585910    2.0731863290
 H   -3.4646410083    0.1878765306   -0.2094965721
 H   -2.2822525442    0.6878518228   -1.5133889546
 H   -1.5925348603   -1.7620573716   -1.7921430354
 H   -2.7699831187   -2.2317103007   -0.4806145017