21

 C    0.0368641130    1.5126964299    0.2152598071
 O    0.5954207065    0.2451208332   -0.0498264690
 C    0.7210881601   -0.5605025602    1.0914766394
 C   -0.5645086204   -1.2260772458    1.6909189635
 C    0.0775058743   -2.6159251995    1.4621582154
 O   -0.3258045847   -3.2079344752    0.2160680289
 C    0.7910453527   -2.6049261484   -0.4835726155
 C    1.3344016012   -1.9562830131    0.8089335770
 C    2.7773314958   -2.2015222110    1.1851590309
 H    0.6499186433    2.0827570249    0.9310710340
 H    0.0003808084    2.0566626742   -0.7315138311
 H   -0.9833069046    1.4368294846    0.6195721310
 H    1.2929125927   -0.0251985176    1.8665252627
 H   -0.7631986009   -0.9664311349    2.7337547812
 H   -1.4713322569   -1.0872753896    1.0979567218
 H    0.0938565334   -3.3335504557    2.2869276148
 H    1.4500377584   -3.3707201480   -0.9120123245
 H    0.4722134481   -1.9126238444   -1.2685205989
 H    3.4510334188   -1.6459249124    0.5216156882
 H    2.9846804947   -1.8788539887    2.2114131508
 H    3.0341323060   -3.2634029126    1.1086667923