15

 O   -0.1142751486    1.3695136915   -0.1937621324
 C   -0.0367283853   -0.0255158057   -0.0694380901
 C    0.7139041795   -0.6280868221   -1.1995701850
 N    1.3116567511   -1.1045375112   -2.0657591470
 C    0.6350635627   -0.4531736529    1.2419788939
 N    1.5192103893    0.5461365910    1.8125921474
 C    0.3152837674    0.1553492658    2.5763801243
 C   -0.7350242080    1.1995719215    2.8072798323
 O   -1.5288555209    1.1090271054    3.7095399806
 H    0.7149143045    1.7118463858    0.1778654775
 H   -1.0596919038   -0.4171737349   -0.1070673590
 H    0.9347302364   -1.4983765583    1.2660597185
 H    2.3662744102    0.1502935963    2.2071077997
 H    0.4371555085   -0.5103110940    3.4279800625
 H   -0.7305314232    2.0494196218    2.1004951270