17

 O    0.0100526268    0.0175280414   -0.0198635987
 C   -0.0105104929    1.2125438473    0.0333344128
 C   -1.1106356223    2.2774375184   -0.0026896993
 C   -1.2052473783    2.9384502671    1.4108723318
 C    0.0708411688    3.7994481105    1.4153732001
 C   -0.0024463477    4.5183465046    0.0617261820
 C   -0.0518082447    3.2131086937   -0.7278570448
 C    1.0531493721    2.3254258275   -0.0472975616
 O    1.2018649622    2.9248074182    1.2551979612
 H   -2.0672401520    2.0324320776   -0.4633427232
 H   -2.1026540687    3.5601504561    1.4962536175
 H   -1.2187905109    2.2034125602    2.2190196311
 H    0.2371293490    4.4031540917    2.3072061889
 H   -0.8978963631    5.1341603168   -0.0542243105
 H    0.8881542778    5.1170764532   -0.1433621542
 H   -0.0669345595    3.2322653694   -1.8147723505
 H    2.0353610733    2.1418652663   -0.4847496525