19

 C   -0.0036596524    1.5511911097    0.0013065796
 C    1.4578346864    1.9532150147   -0.0595697843
 C    2.3728320627    1.2746398265    0.9491047011
 C    1.8621330273    0.6315634373    2.2372564706
 O    1.2543658704   -0.6346636877    2.0824752677
 C    0.0110674054   -0.6373958229    1.4208908541
 C    0.0479189136    0.0008801844    0.0158420844
 O    1.2675108979   -0.3566415097   -0.6362077983
 C    2.1816086893    0.6891907103   -0.4349087772
 H   -0.5403801826    1.9449448125    0.8702355309
 H   -0.5209231451    1.9068211929   -0.8953751163
 H    1.7229812971    2.9233158724   -0.4631280358
 H    3.3301456813    1.7735571130    1.0777601368
 H    2.7133599907    0.4542221343    2.9012710718
 H    1.1797817363    1.3241259696    2.7606864652
 H   -0.2554235713   -1.6946842040    1.3299844474
 H   -0.7702669344   -0.1419568048    2.0239141251
 H   -0.7751208713   -0.4256142163   -0.5677441886
 H    3.0087640086    0.6384525482   -1.1326538340