19

 C    0.1103572591    1.5935039635   -0.2358465307
 C   -0.0530664590    0.1014705865    0.0583380199
 N    0.5210001051   -0.7304788648   -1.0138534363
 C    1.7446706406   -1.1754228967   -0.5538309077
 N    1.9858679119   -1.0774015269    0.6962482794
 C    0.7677044962   -0.4560570550    1.2968522037
 C    1.1828743113    0.5947415955    2.3362621764
 C   -0.0164705354   -1.5095702357    1.9554113640
 C   -0.6719779448   -2.3554046123    2.5029866202
 H    1.1627325305    1.8635153693   -0.3660966363
 H   -0.4239194517    1.8537190023   -1.1565449100
 H   -0.3070574169    2.2051606651    0.5686883373
 H   -1.1124507246   -0.1323295448    0.1870867682
 H    0.4601464820   -0.3900478496   -1.9631737340
 H    2.4421688410   -1.6218701440   -1.2579319586
 H    1.8057794769    1.3658946129    1.8776305675
 H    0.3091014002    1.0633061139    2.7978242544
 H    1.7666801309    0.1052745808    3.1182374977
 H   -1.2401525032   -3.1139547898    2.9819134949