19

 C    0.9532363366   -1.4472277024    0.1534120957
 C   -0.0489074699   -0.7092425951   -0.7343159499
 O   -0.0948935861   -1.2661325657   -2.0479999985
 C   -1.4745165963   -0.6038229978   -0.1854520468
 C   -2.3518576500    0.3693881255   -0.9746159797
 C   -1.8983509873    1.7539585246   -0.8372003228
 N   -1.5186560707    2.8397678731   -0.7265613175
 C   -2.1339551822   -1.7943113149    0.4177876244
 N   -1.7752290094   -0.6323419931    1.2477474752
 H    1.9066423580   -1.5071395445   -0.3767701435
 H    1.1301123822   -0.9206737317    1.0964260039
 H    0.6341610254   -2.4711150629    0.3800515579
 H    0.3234659672    0.3100568121   -0.8902300009
 H   -0.4272746976   -2.1678711884   -1.9688122262
 H   -2.3307701461    0.0963291902   -2.0346209086
 H   -3.3850123307    0.3047441480   -0.6222083647
 H   -3.2008151345   -1.9513048923    0.2819923259
 H   -1.5599080104   -2.7106435036    0.5269376982
 H   -0.9417471882   -0.8321204410    1.7933272581