18

 O    0.1446525773    1.3775844271   -0.0718885877
 C    0.0635434036   -0.0277865636   -0.0422696805
 C    0.3633362236   -0.6671697078    1.3618574643
 C   -1.1175108969   -1.0883006660    1.4447798785
 C   -2.2373984870   -0.6665266655    2.3622187085
 O   -3.2520298220   -0.1450134718    1.4938854987
 C   -2.6782344070    0.3223016836    0.2603572939
 C   -1.4075433444   -0.4699299968    0.1089791545
 N   -1.5354712308   -1.9064373604    0.3094073150
 H    1.0730292065    1.6288961272   -0.0322016680
 H    0.5890404708   -0.4756352458   -0.8997168806
 H    1.1033442146   -1.4717915492    1.4255997751
 H    0.6171574457    0.1192589342    2.0769061849
 H   -2.7005815745   -1.4748684424    2.9359182504
 H   -1.8689762241    0.1002947909    3.0621339355
 H   -3.4294017726    0.1501374666   -0.5157100507
 H   -2.4374830249    1.3931349637    0.3015428453
 H   -0.7608271680   -2.4257635341   -0.0976457370