13

 O   -0.0317367867   -0.0673939907   -0.0315847284
 C   -0.0042755528    1.1304416603    0.0141456213
 C    1.2785212369    1.9515257105    0.0052134963
 C    1.3222889679    2.9552439862   -1.1641953794
 O    1.2457111307    2.6888383980   -2.3360670121
 C    1.4649335345    4.3198544991   -0.5798312887
 C    1.5075594971    4.2678735814    0.7589197741
 C    1.3989188452    2.8617531552    1.2437040379
 O    1.3963008308    2.5051887028    2.3939111217
 H   -0.9351368313    1.7354836712    0.0672831179
 H    2.1199600305    1.2551553677   -0.0486087583
 H    1.5208576048    5.1995954027   -1.2092115948
 H    1.6055256924    5.0963532657    1.4497276126