17

 C   -0.0296010607    1.4937196914   -0.0037641990
 C    0.0247723709   -0.0288362587    0.0272773734
 O    1.0917479170   -0.6160511373    0.0350273337
 C   -1.2496244432   -0.7570221515    0.0466534759
 C   -2.5289465582   -0.2293829496    0.0469077596
 N   -3.4082262190   -1.2741751181    0.0633735966
 C   -2.7213208505   -2.4738563309    0.0644213967
 N   -3.4527022769   -3.6742766557    0.1397589177
 C   -1.3821152742   -2.1844278616    0.0522951335
 H    0.9877159612    1.8862705988   -0.0061202081
 H   -0.5573970180    1.8448088275   -0.8971094124
 H   -0.5680061800    1.8813610934    0.8678648400
 H   -2.8758397620    0.7909452803    0.0346962181
 H   -4.4082699622   -1.2048876636    0.1499272507
 H   -3.8776248850   -3.9267530877   -0.7482008502
 H   -2.8510184349   -4.4386254773    0.4208020582
 H   -0.5635675642   -2.8857618295    0.0340116656