18

 C   -0.0207885459    1.3764543209   -0.3295534608
 C    1.4357561827    1.5454858700    0.1380847596
 C    1.2666385288    0.1292857363    0.7453498662
 O   -0.0822627460    0.0354328009    0.2027773273
 C    2.1883144478   -0.9759671898    0.2941650076
 C    2.6768495022   -1.6792267238    1.3193585163
 C    2.1820603216   -1.1328058270    2.6168281638
 N    2.6246863195    0.2794057191    2.8447463126
 C    1.2942759649    0.0013774291    2.2670008948
 H   -0.7539452867    2.0393852523    0.1470792378
 H   -0.1853845749    1.3921082151   -1.4132788191
 H    2.1738827618    1.6070647696   -0.6630213728
 H    1.6317611289    2.3334073637    0.8659203891
 H    2.4259043660   -1.1227279032   -0.7533385803
 H    3.3738525800   -2.5057029133    1.2478975344
 H    2.0204331646   -1.7708119237    3.4785065537
 H    2.5033789910    0.5022119321    3.8327037720
 H    0.3942743036    0.2438063917    2.8215660778