11

 C   -0.0961451121   -1.2318533471   -0.0036059714
 C   -0.0348598412   -0.0333633323    0.0022695322
 C    0.0254096720    1.4294687144    0.0095262354
 C    1.3881728051    1.9565241834   -0.0006627708
 C    2.5114586091    2.4024934094   -0.0089955147
 C    3.7764778760    2.9043433156   -0.0183739559
 C    4.8982592953    3.3504294042   -0.0266860647
 H   -0.1447353852   -2.2926930314   -0.0088893652
 H   -0.5222040718    1.8225995790   -0.8587194388
 H   -0.5054889994    1.8132218659    0.8922280436
 H    5.8852575722    3.7415633589   -0.0340083698