17

 N    0.2797264160    1.2011012552    0.3966259351
 C    0.0437938737   -0.1295580288   -0.1043406498
 C   -1.4226545639   -0.6246087396   -0.2063582889
 O   -1.2041446985   -0.9810521961   -1.6158458670
 C    0.0672988280   -0.4416129180   -1.6166079667
 O    0.7878187173   -0.2927169087   -2.5491463215
 C   -1.8542169588   -1.7969510392    0.6284253465
 C   -2.7465857196   -2.8405870960    0.0723816679
 N   -1.3293189708   -3.1418623571    0.3600816702
 H    1.2744403787    1.3813819897    0.4784432451
 H   -0.0963746565    1.9030848770   -0.2336107038
 H    0.6677719014   -0.8408491151    0.4449540070
 H   -2.1432516628    0.1976769199   -0.1423709832
 H   -1.9297028196   -1.5515182719    1.6865960995
 H   -3.4641176816   -3.3393847895    0.7169324995
 H   -3.0446976473   -2.7446793883   -0.9675720346
 H   -0.8194031958   -3.1301776036   -0.5215839853