20

 C   -0.1987356278    1.4544023887    0.3483735838
 C   -0.0097962509   -0.0249589017    0.0368294110
 C    1.3504591295   -0.4651483467   -0.4787199687
 C    0.9220744563   -0.8129753683    0.9252058093
 C   -1.2129352588   -0.7217885202   -0.4855594111
 C   -2.1081544349   -1.5845354824    0.1116741110
 C   -3.1119191956   -1.9084369654   -0.8438417181
 C   -2.8069951897   -1.2327481237   -2.0015205524
 N   -1.6595829611   -0.5154128644   -1.7732882540
 H    0.7296901870    1.9004714532    0.7201052762
 H   -0.5047129626    2.0152171227   -0.5422830273
 H   -0.9740877996    1.5950267380    1.1087137207
 H    1.3845106476   -1.2665002781   -1.2082054389
 H    2.1128397215    0.2961188245   -0.6084403125
 H    1.3932979722   -0.2868283347    1.7485301101
 H    0.6725432450   -1.8462398577    1.1351115455
 H   -2.0470627537   -1.9355789067    1.1306483112
 H   -3.9577804274   -2.5625684842   -0.6976811071
 H   -3.2987043700   -1.2056667158   -2.9607485533
 H   -1.1830572869    0.0503668926   -2.4539759954