15

 O    0.1256978504    0.0494121086    0.4772254920
 C    0.0925039497    1.2339188977    0.2408228820
 N    1.1129609687    1.9251944003   -0.3745796635
 C    2.5836078891    1.6928871810   -0.1961487464
 C    2.7917409980    2.9372688831   -1.1079608657
 C    1.6635943583    3.2967497247   -0.0994771025
 C    2.5776686860    2.6890820523    1.0260384681
 C    1.9671654780    2.3042145158    2.2847577026
 N    1.4911618448    2.0418809541    3.3048984752
 H   -0.8030926329    1.8685599898    0.3907618328
 H    3.0255890108    0.7015272125   -0.2474352578
 H    3.7348227674    3.4751020294   -1.0078543719
 H    2.4704086437    2.8146605320   -2.1405681913
 H    1.0356188328    4.1841936991   -0.0426262021
 H    3.5188264351    3.2155734396    1.2040458584