18

 C   -0.0452773822    1.4879114462   -0.1678278727
 C    1.5216860719    1.5663790977   -0.0249549650
 C    1.9705172992    1.2769915074   -1.4452674643
 C    1.9782470585   -0.0489022556   -1.6558169266
 C    0.7975736457   -0.8243545616   -2.2601485480
 N    0.4317086902   -1.1489826424   -0.8221597828
 C   -0.0060217135   -0.0315496787    0.1599118829
 C    1.4573425634    0.1493450613    0.6789076862
 C    1.8649740560   -0.8610516589   -0.3868986210
 H   -0.5529185528    1.9908476610    0.6631692592
 H   -0.4842849971    1.8364274511   -1.1077961957
 H    1.9335572987    2.4266208302    0.5073316990
 H    1.7097945827    1.9908138742   -2.2232855117
 H    0.0735007356   -0.2450414490   -2.8383225477
 H    1.0122845732   -1.7704399538   -2.7663199257
 H   -0.8226280856   -0.4134399372    0.7727779917
 H    1.7383865578    0.0496373900    1.7244058670
 H    2.5121162382   -1.7216450120   -0.2049724549