16

 C   -0.0841378245    1.6284783329    0.2972421691
 C   -0.0343677382    0.1268632501   -0.0413776348
 O    0.8264052829   -0.5816526905    0.8215226973
 C   -1.4339144273   -0.4707448390    0.0423455318
 O   -1.8739316999   -0.8958929486    1.0858763323
 C   -2.3270870309   -0.6098597315   -1.2168187989
 O   -3.5715417001   -1.1356211915   -0.8813530177
 C   -2.4550054247    0.6781554376   -1.9242181101
 N   -2.5388533436    1.6853657359   -2.4839837399
 H    0.9394214384    2.0100076480    0.3000710903
 H   -0.6729969069    2.1939482583   -0.4289274392
 H   -0.5143189857    1.7742950050    1.2930963030
 H    0.3564536980   -0.0043935455   -1.0571474053
 H    0.3386970677   -0.7349952729    1.6415089701
 H   -1.7817041041   -1.2936015992   -1.8913712340
 H   -3.5426087211   -1.2655952091    0.0824454059