14

 O   -0.4650489384    0.5036088384    0.7838171654
 C   -0.0390632807    1.1266336620   -0.1428469602
 C    1.3184352176    1.8638539838   -0.1326580131
 O    1.2843097879    2.7771177164   -1.1962215571
 C    2.5477745602    3.3818399933   -1.4870275630
 C    2.4191602200    4.2142299631   -2.6705721450
 C    2.3399706140    4.9090236888   -3.6460018749
 C    1.5879940599    2.4980909560    1.1700817400
 N    1.8231127970    3.0273299283    2.1693472307
 H   -0.5537374562    1.2233203407   -1.1201608305
 H    2.0934605094    1.0912380311   -0.2933336327
 H    2.8821679275    3.9847341238   -0.6304925826
 H    3.3036158715    2.5973049352   -1.6526034186
 H    2.2660298902    5.5252809090   -4.5082171885