17

 O    0.1561015964    1.4029769229   -0.0805547867
 C    0.0435443673    0.0256378256   -0.0143154690
 C    0.6599679936   -0.8665480685   -1.1185198167
 C   -0.6261264385   -1.7491730288   -1.1436347315
 C   -1.2934125442   -0.8386169871   -0.0726414516
 O   -1.0393570078   -1.3278775962    1.2657515973
 C    0.1534628212   -0.5216389759    1.4121296085
 C   -2.6171456345   -0.3255865180   -0.2900669537
 C   -3.7059600735    0.1377297133   -0.5082564138
 H    0.0245238007    1.6852621442   -0.9920906456
 H    0.8037540966   -0.3129105419   -2.0519395277
 H    1.6029691353   -1.3587458260   -0.8668741641
 H   -1.1428636388   -1.7519386151   -2.1048549210
 H   -0.5089243123   -2.7747812783   -0.7909511840
 H    1.0392398603   -1.1235769292    1.6458925654
 H    0.0219425756    0.2588332513    2.1700832318
 H   -4.6740057976    0.5369587678   -0.6855228376