17

 O   -0.2520218783    0.0253297156    0.3554105150
 C   -0.0592810628    1.2002025562    0.2155822839
 N    1.1557691548    1.8500660656   -0.0086150460
 C    1.1519860601    3.3118688991   -0.1095321721
 C    2.3056168466    3.8951723297    0.6988778800
 C    3.6153650623    3.3612732973    0.1285828051
 N    3.5044502464    1.9289491420   -0.0930623692
 C    2.3797389231    1.1409231967   -0.1592985665
 O    2.4444050624   -0.0527857205   -0.3308955737
 H   -0.8755051210    1.9515981144    0.2669485966
 H    1.2366719649    3.6212733341   -1.1605421340
 H    0.1887149465    3.6741265974    0.2585544029
 H    2.2944654416    4.9874713616    0.6497199226
 H    2.1977739460    3.6003368183    1.7479281117
 H    3.8460024404    3.8809949726   -0.8136720810
 H    4.4459524418    3.5575142493    0.8156471995
 H    4.3436328050    1.3963831107   -0.2603534447