17

 N   -0.0809901027    1.2565457402    0.2715662368
 C   -0.0111796968    0.0337138938   -0.0306382474
 O    1.1399421726   -0.6079293993   -0.4150863678
 C    0.8848216772   -1.9402712838   -0.9111455916
 C   -0.5615837156   -2.2725823295   -0.5308429140
 C   -0.8574540189   -2.8562646185    0.8562681402
 C   -0.2688380045   -2.0629336608    1.9527840268
 N   -1.5173509526   -1.5694807127    1.3398057687
 C   -1.1538798922   -0.9499903084   -0.0056469917
 H    0.8325411638    1.7046545052    0.1772097266
 H    1.0352379515   -1.9334095504   -1.9964184921
 H    1.6193959477   -2.6115186792   -0.4573691216
 H   -1.1146778876   -2.7577841273   -1.3338436183
 H   -1.3259163869   -3.8203745722    1.0254019781
 H   -0.4360549868   -2.4295107087    2.9608726832
 H    0.6615111676   -1.5173703391    1.8257342142
 H   -2.0517157558   -0.5541666493   -0.4756810498