19

 C    0.0659123919    1.5371939205   -0.0517080651
 C    0.0360923176    0.0828087557    0.0050286198
 C    0.0084907981   -1.1212312506    0.0483477702
 C    0.0094637616   -2.5692692922    0.0775587332
 C   -0.1329492701   -3.3328361744    1.4447882104
 C   -1.6245601921   -2.8958304971    1.4816242547
 C   -1.3358124638   -3.3616585345    0.0194378734
 O   -2.1655096969   -3.3265936832   -1.0814489447
 C   -0.5662149037   -4.5783237634    0.6251266569
 H    0.6443985734    1.8891112553   -0.9132150600
 H   -0.9438263627    1.9534774708   -0.1401949803
 H    0.5219509817    1.9638633736    0.8488369895
 H    0.7857317514   -2.9781773295   -0.5776701989
 H    0.5778738095   -3.3030680822    2.2663693098
 H   -2.2965431690   -3.5270784005    2.0701617019
 H   -1.8228281563   -1.8333703153    1.6274887155
 H   -2.9640401307   -3.8260654301   -0.8791638042
 H    0.1928420932   -5.0459035750   -0.0074812333
 H   -1.1676206429   -5.3196118078    1.1577049312