16

 O    0.1051500871   -0.1149318963    0.0065910671
 C    0.0993018165    1.0797573830   -0.1620773133
 C    1.3146361687    1.9274060157   -0.1050344951
 N    2.7101077031    1.3859857510   -0.0839932354
 C    2.8890582764    2.8767286534    0.0245324584
 C    1.7873354464    3.0826869691   -1.0611107454
 C    1.0236573279    4.3410168499   -0.6857084862
 O    0.9751227458    4.2245272303    0.7541978452
 C    1.6719073811    3.0336880903    0.9808876290
 H   -0.8466205175    1.6384852445   -0.3446167938
 H    2.8929973211    0.9386158612    0.8189325922
 H    3.8705370220    3.3486187410    0.0770704709
 H    2.0018898661    2.8529099823   -2.1028121992
 H    1.5479951218    5.2613630332   -0.9675485475
 H    0.0043729648    4.3802088503   -1.0859786097
 H    1.7230895684    2.7785193411    2.0394332428