19

 C    0.0498080458    1.5296394954    0.0047564978
 C   -0.0303380150    0.0296416794   -0.0164906908
 C   -0.0161907686   -0.6785144574   -1.1509100604
 C   -0.0639975001   -2.1605172176   -1.1556602769
 N    0.9346484394   -2.8741278989   -0.3019555413
 C   -0.4810634365   -2.8605198818    0.0897692062
 C   -0.8541053012   -2.0088149221    1.2832144102
 C   -0.0825357637   -0.6744134715    1.3232140878
 H    0.9267354062    1.8705708742    0.5710900647
 H    0.1158494960    1.9477164954   -1.0035614234
 H   -0.8264814760    1.9666052942    0.5015856313
 H    0.0386235094   -0.1733140243   -2.1119013853
 H   -0.3112609594   -2.6289597794   -2.1044566253
 H    1.1640571650   -3.7683349806   -0.7293219845
 H   -1.0475344482   -3.7834399413   -0.0213535695
 H   -1.9316627684   -1.8069745662    1.2248088600
 H   -0.6856047357   -2.5599805895    2.2156055838
 H    0.9439899750   -0.8656237499    1.6587557606
 H   -0.5337035940   -0.0165876579    2.0755508251