19

 C    0.0126420119    1.5194591210    0.0302727168
 C   -0.1053850072    0.0113676425    0.0061994480
 C   -0.8982699336   -0.7214631521    1.0310472251
 N    0.5631493805   -0.6887620001    1.1124158564
 C    1.3172741505   -1.8963724601    0.7490395046
 C    2.1343948548   -1.7375752741   -0.5354244021
 O    3.2391231949   -2.2210251911   -0.6828334741
 N    1.4894453545   -1.0170818889   -1.5016823791
 C    0.0881052508   -0.6414914159   -1.3612997646
 H    0.9590670563    1.8362110423   -0.4219809449
 H   -0.8066915634    1.9867476016   -0.5279136708
 H   -0.0097445144    1.8875540915    1.0583880805
 H   -1.4204811033   -0.1774236704    1.8139363018
 H   -1.3752471445   -1.6553274857    0.7345274378
 H    2.0173847374   -2.1451877168    1.5488250377
 H    0.6585508314   -2.7684096152    0.6073419473
 H    1.9406549992   -0.9813203890   -2.4030898237
 H   -0.5707687929   -1.5131463052   -1.4770373502
 H   -0.1654303628    0.0600769358   -2.1597743164