17

 C    0.0505699319    1.4982252388   -0.1601440969
 N    0.0144657476    0.0505686207    0.0193475826
 C   -1.0423948343   -0.5566978894    0.9286557395
 C   -0.1298201160   -1.8072672932    0.9861043259
 C    0.7742759722   -0.5559188847    1.2081473674
 C   -0.3182788376   -0.0257719246    2.1958530128
 C    2.2003593640   -0.4847802446    1.3357789022
 C    3.3954447181   -0.4116354666    1.4508668346
 H    1.0353338290    1.7684830744   -0.5540624544
 H   -0.6955317519    1.7647987476   -0.9159891905
 H   -0.1372708723    2.1149129960    0.7316853883
 H   -2.1025454910   -0.5094635914    0.6800729589
 H   -0.2503064537   -2.4763754112    1.8389765174
 H    0.0257139917   -2.3229413930    0.0390133225
 H   -0.3358217222    1.0469412992    2.3821594768
 H   -0.4511708333   -0.5851314898    3.1254496534
 H    4.4511993378   -0.3524831581    1.5492815296