18

 C   -0.1122972703    1.3132789701   -0.3604952733
 C   -0.3597371673   -0.1975533455   -0.2789229564
 O    0.7402798319   -0.8624282390    0.3140134948
 C   -1.6431709858   -0.5415579073    0.4874449867
 C   -2.9326279933    0.1653121571    0.0732691811
 C   -3.2929429501   -0.0916229876   -1.3201496286
 N   -3.5610962541   -0.3010395189   -2.4242791456
 C   -1.7396121893   -1.8215873011    1.1968755549
 O   -1.4654341648   -0.5950398829    1.9062484969
 H    0.8664398258    1.4870526950   -0.8130162805
 H   -0.8632379704    1.8210190338   -0.9735679799
 H   -0.1146552589    1.7639577519    0.6386073500
 H   -0.4463213439   -0.6060044389   -1.2923062056
 H    0.7088602585   -0.6460403306    1.2557628961
 H   -3.7474016431   -0.1669395703    0.7235117036
 H   -2.8308847840    1.2460437433    0.2179701883
 H   -2.7180986010   -2.2548132854    1.3946796000
 H   -0.9057885099   -2.5146143636    1.1461996776