20

 C    0.0346257305    1.4661126283    0.1169032970
 C    1.4488350348    2.0617822790   -0.0133338032
 C    2.2574640544    1.6187753264   -1.2554974731
 C    1.4877019625    1.7457360673   -2.5414325155
 C    0.6714734075    0.8076527542   -3.0235545454
 C    0.4187176598   -0.5317741295   -2.3648235708
 O   -0.5519635970   -0.4982751552   -1.3238841309
 C   -0.1089616350   -0.0628875124   -0.0477714793
 H   -0.3432625350    1.7399661139    1.1096149829
 H   -0.6437757785    1.9293387743   -0.6060749435
 H    1.3585013319    3.1554057535   -0.0088527559
 H    2.0371249993    1.8036969805    0.8765804720
 H    3.1768935846    2.2125642710   -1.3037512544
 H    2.5726615030    0.5791204854   -1.1146021275
 H    1.5679914455    2.6947786006   -3.0688274243
 H    0.1097524396    1.0090390924   -3.9324449007
 H    0.0179522240   -1.2332756543   -3.1029258093
 H    1.3574310941   -0.9626466884   -1.9837017196
 H    0.8265471058   -0.5779528954    0.2284325944
 H   -0.8838308217   -0.4218612118    0.6372516671