17

 N    0.0747629991    1.4864349405   -0.0500577527
 C    0.0487143261    0.0289009465   -0.0286370657
 C    0.8756244233   -0.4521791750    1.1677800440
 O    0.2168224333   -0.0031628806    2.3343911173
 C    0.9889645434   -0.1426982806    3.5252873278
 C    0.2567170196    0.4281108119    4.6444478989
 C   -0.3267525790    0.8929242108    5.5849531858
 C    1.0222570650   -1.9244965583    1.1660513533
 N    1.1414387122   -3.0738425487    1.1748381698
 H   -0.4251857719    1.8303943808   -0.8628714821
 H   -0.4111156377    1.8374729263    0.7693053907
 H   -0.9525480633   -0.4235936806    0.0516456523
 H    0.5125901663   -0.3541723218   -0.9432689617
 H    1.8802202343   -0.0068871559    1.0981457245
 H    1.2024017662   -1.2052242709    3.7167894974
 H    1.9571656349    0.3695620523    3.4065547490
 H   -0.8461088717    1.3023998433    6.4161010915