18

 C   -0.0262295460    1.5931743270   -0.1452814853
 C    0.0941016730    0.0877012085    0.0084741590
 C    1.0619902932   -0.6976779936   -0.9134286634
 C    1.4111128434   -1.6313234171    0.2848532094
 C    2.7654223262   -2.1061223298    0.4512392258
 C    3.8978972653   -2.4855425750    0.5862076496
 C    0.8439363159   -0.5178231985    1.2544867529
 C    1.8587020649    0.3568457458    1.8185184762
 N    2.6514624955    1.0718372859    2.2630210352
 H    0.9501887235    2.0809920727   -0.0715149566
 H   -0.4574241581    1.8406043053   -1.1211004139
 H   -0.6746536969    2.0229281613    0.6253963375
 H   -0.8983806154   -0.3740133122   -0.0221750564
 H    0.6520414407   -1.1713092203   -1.8070977781
 H    1.9272743610   -0.0906334483   -1.1922586666
 H    0.7112699004   -2.4726954090    0.3136683002
 H    4.8999471464   -2.8144590722    0.7109268799
 H    0.2109932371   -0.8881956605    2.0642635445