21

 C   -0.1153410693    1.5423217838   -0.0937880143
 C   -0.0259464074    0.0166740768   -0.0212862876
 C   -1.4424750008   -0.5304012586    0.3198385105
 C   -1.3297985967   -0.6958588386    1.8452720875
 C   -0.0631970457   -0.7418815894    2.2879115489
 C    0.8192229132   -0.6841169641    1.0827881159
 C    2.1107951347   -0.1350140376    0.4103525304
 C    1.1869633122   -0.6703466312   -0.7630007099
 C    0.9764842871   -1.9194929107    0.1157311860
 H    0.8420648753    2.0409534262   -0.2521237566
 H   -0.7653623020    1.8228640581   -0.9310100940
 H   -0.5655454955    1.9520991951    0.8177908027
 H   -2.2390123182    0.1657303239    0.0377222924
 H   -1.6950889707   -1.4890571937   -0.1468835583
 H   -2.2074538277   -0.8109750540    2.4733537508
 H    0.2415567517   -0.8910252502    3.3168024176
 H    2.3075925199    0.9340564550    0.4712037763
 H    3.0283789750   -0.7067683618    0.5721833579
 H    1.4290142097   -0.6455442521   -1.8279925469
 H    1.8546332388   -2.5462370602    0.2896299698
 H    0.0939786464   -2.5310428468   -0.0699544790