21

 C    0.1693900507    1.5394687006    0.1187715817
 C   -0.0270273654    0.0381883667    0.0909277473
 O    0.8865806618   -0.6524544640   -0.8297735382
 C    1.1423875775   -1.7159646506    0.1682635421
 C    0.4048265611   -2.9847375606   -0.2333196493
 C    2.5720135283   -1.9501892885    0.6990706534
 C    2.3953307783   -1.7669119078    2.2440198987
 C    1.2501717586   -0.7550709840    2.3315288728
 C    0.5542453158   -0.8042072770    1.2019192248
 H    1.1999853744    1.7853692311    0.3864908875
 H   -0.0506214736    1.9675576747   -0.8641447391
 H   -0.5065587961    1.9972909569    0.8489147587
 H   -1.0655030691   -0.2093660507   -0.1721549718
 H    0.8278622510   -3.3795548688   -1.1632349916
 H    0.5031332311   -3.7544843389    0.5397085720
 H   -0.6594357991   -2.7944624785   -0.3976878000
 H    2.9992090394   -2.9190213126    0.4227633946
 H    3.2240009857   -1.1612264537    0.3124012191
 H    2.1633431547   -2.7192343499    2.7402694576
 H    3.3041162276   -1.3851852796    2.7206074969
 H    1.1450622275   -0.0464781150    3.1447954628