22

 C    0.0305618656    1.5851621017   -0.1192488839
 C    0.0058615045    0.0589815493   -0.0102385779
 C   -1.4026258688   -0.5370011761   -0.0121335718
 C   -1.3997399449   -2.0633843923    0.0047828419
 C   -2.7798535150   -2.6722800546   -0.2418665684
 C   -3.7668825661   -2.4660581091    0.9110687117
 N   -4.1720525849   -1.1136673562    1.2532422077
 C   -3.4048908898   -0.1202042268    1.3526687676
 O   -2.0726707891    0.0498119841    1.1209451778
 H    1.0583373005    1.9600376776   -0.1134422416
 H   -0.4418644983    1.9221604811   -1.0489293975
 H   -0.5062898994    2.0425054999    0.7149389937
 H    0.5578333834   -0.3845614206   -0.8472404292
 H    0.5142227788   -0.2613092361    0.9076867943
 H   -1.9368158529   -0.1992997718   -0.9143094756
 H   -0.7079554661   -2.4008479308   -0.7761217099
 H   -0.9920990221   -2.4109994451    0.9633038466
 H   -3.2054090978   -2.2554763046   -1.1644467188
 H   -2.6806332232   -3.7522822224   -0.4050836957
 H   -4.6821482990   -3.0270493103    0.6920544975
 H   -3.3450516328   -2.9219399657    1.8204026902
 H   -3.8107553227    0.8135449989    1.7469497214