21

 C   -0.2425898907    1.5050754628    1.1969711598
 C   -0.0857802054    0.0663762600    0.7357741716
 C    0.9353447729   -0.3546679114   -0.3895537051
 C    2.2646716937    0.0896606836    0.2311109483
 C    2.1564069782   -0.3084933948    1.5017674314
 C    0.7662717017   -0.9665576257    1.5408064603
 O    0.2549083951   -1.4624040375    2.7382871497
 C    0.8483946948   -1.8187115728    0.2022341944
 C   -0.3196899002   -2.7231705066   -0.1650139604
 H    0.7209263461    1.9763317997    1.4052068841
 H   -0.7575287683    2.1006463159    0.4349044715
 H   -0.8470160069    1.5460798505    2.1095178918
 H   -1.0747963677   -0.3492094552    0.5267236033
 H    0.7476191345   -0.1477870338   -1.4423133430
 H    3.0760824785    0.5965917322   -0.2721581499
 H    2.8406071655   -0.2149750449    2.3344717753
 H    0.9214446250   -2.0233978742    3.1487109219
 H    1.7865681849   -2.3734819036    0.1030425572
 H   -1.2896538564   -2.2211327578   -0.1543248210
 H   -0.1743884529   -3.1449036465   -1.1657030626
 H   -0.3787431125   -3.5603302798    0.5395250214