20

 C   -0.1312948078    1.3417475342   -0.3045726646
 C    1.2543899882    0.9261325784    0.0462226686
 N    0.1561048346   -0.0390873647    0.0698067287
 C   -0.2694969833   -0.5304889618    1.3435097664
 C    0.3772258242   -1.8483800304    1.8580249125
 C   -0.9543224168   -2.1036509323    2.5568042282
 C   -1.4724923630   -0.7451208586    3.0520403003
 C   -0.4467910335    0.3145598633    2.6555909963
 C   -1.6937637039   -1.1753880381    1.6238982304
 H   -0.6532139665    1.9806938255    0.4033075943
 H   -0.4150591056    1.4865498870   -1.3430918453
 H    2.0012024432    0.7718482299   -0.7273024316
 H    1.6476460346    1.2763631438    0.9984376990
 H    0.5371031787   -2.5419561462    1.0290496005
 H    1.2903436630   -1.7628924774    2.4595577287
 H   -1.3146855540   -3.0275820942    2.9900957644
 H   -2.2111500251   -0.6834812203    3.8406063472
 H    0.4354836477    0.4639228483    3.2894526836
 H   -0.9365702218    1.2749166821    2.4718861641
 H   -2.5829777029   -1.2965811886    1.0233383383