18

 O    0.1074763753    1.2145585177    0.4653183640
 C    0.0203944960   -0.0657127484   -0.0943531875
 C   -0.7821164172   -0.2414131575   -1.3625074602
 C   -1.3397451931   -0.6910970211   -0.0221068818
 N   -1.2815544941   -2.0906715394    0.3005393439
 C   -0.6027571835   -2.3323900667    1.5700634243
 C    0.8344262692   -1.7971743831    1.5173403012
 O    1.6155998834   -1.9877744699    2.4158140178
 C    1.1701206508   -1.0095570020    0.2526302786
 H    0.7715392721    1.7099917371   -0.0270724912
 H   -1.2083057971    0.6584659311   -1.7916737543
 H   -0.4895212998   -1.0139462223   -2.0646285792
 H   -2.1239725960   -0.0750361698    0.4207767098
 H   -2.1883038153   -2.5376645494    0.2591987628
 H   -1.0890058179   -1.8691077861    2.4476261975
 H   -0.5516843369   -3.4084878893    1.7659821130
 H    1.3257134336   -1.7335825339   -0.5546833651
 H    2.1035657608   -0.4648044768    0.4108688766