20

 C   -0.9241206639    0.2646477146   -0.7961295271
 C   -0.1049576598    0.6170007877    0.0117736238
 C    0.9259144096    1.0100242260    0.9779675717
 N    1.8799928260    2.0608836689    0.5984096095
 C    1.9779658082    2.5188494497   -0.7845216310
 C    1.4274001621    3.4177741246    0.2711467680
 C   -0.0088541695    3.8333359671    0.2932933581
 C   -0.5527645336    4.5482315377    1.5117559384
 C   -0.3449528663    5.3044711400    0.2263647911
 H   -1.6564863663   -0.0465979136   -1.4995991289
 H    0.4478507237    1.3184578170    1.9151797308
 H    1.5189323484    0.1174254383    1.2145569418
 H    2.9877222318    2.6516584192   -1.1654986161
 H    1.2668788553    2.1172316770   -1.5035117190
 H    2.0947613715    4.1764970390    0.6832669652
 H   -0.6942454891    3.1636506632   -0.2125737730
 H   -1.5668818584    4.3271391812    1.8254735697
 H    0.1339630631    4.7444293174    2.3288242527
 H    0.4785036601    6.0099171413    0.1805448601
 H   -1.2152837530    5.6023820536   -0.3473033557