16

 C    0.6021801618    0.7662215947   -0.3133294824
 O   -0.6998588297    0.9740065325    0.2026457215
 C   -1.5601313754   -0.0489852415   -0.0081465380
 C   -1.4500456234   -1.2770260412   -0.6167656704
 C   -2.7399795465   -1.8953781996   -0.5131222052
 C   -3.5741757325   -1.0345946068    0.1539730450
 N   -4.9202224755   -1.0970042509    0.5852569252
 N   -2.8361095175    0.0984517752    0.4582873067
 H    1.1785645369    1.6610331867   -0.0739202252
 H    1.0750526177   -0.1104344053    0.1480451775
 H    0.5780428774    0.6237589196   -1.4015067925
 H   -0.5711291489   -1.6861174305   -1.0868272736
 H   -3.0157498775   -2.8649855050   -0.8998191626
 H   -5.5715359383   -0.8432963796   -0.1526210593
 H   -5.1589863933   -2.0347660940    0.8855208619
 H   -3.1726267655    0.8734501359    1.0032237113