17

 O   -0.2107634370    1.4414704635    0.1395820978
 C   -0.1218298483    0.0464612691    0.0784727163
 C   -0.4203495205   -0.8148569773    1.2709506318
 C   -1.5441490192   -0.1921827534    2.1133972538
 C   -2.4233180622   -0.1777284611    0.8483406231
 C   -3.8834422579   -0.3353023961    0.7411991298
 N   -3.2361868129    0.9380485996    0.3419602621
 C   -1.3365918272   -0.8277842147    0.0201657636
 H   -1.0098037388    1.6977354669   -0.3355032066
 H    0.7156369142   -0.3060999740   -0.5228646566
 H    0.2642849325   -1.5798182511    1.6152084052
 H   -1.9257620025   -0.8662193273    2.8843219332
 H   -1.3154414726    0.7827114784    2.5541829220
 H   -4.3130330399   -0.9053419761   -0.0787632597
 H   -4.4680551102   -0.3526586942    1.6577580760
 H   -3.3635453535    1.6249529450    1.0822864873
 H   -1.4867752241   -1.5881842271   -0.7371071889