25

 C   -0.0248951783    1.4422929719    0.1206578668
 O    0.0109559605    0.0403249131    0.0286574898
 C   -1.2734187590   -0.5444923719    0.0284552400
 C   -1.1216780565   -2.0553765004   -0.0826446815
 C   -2.4730139117   -2.7748640801   -0.1243067460
 C   -2.3945901839   -4.3162671996   -0.0278899557
 C   -3.8120670114   -4.9066213669   -0.0163662727
 C   -1.5738382335   -4.9253076124   -1.1675663062
 O   -1.7062281057   -4.6995409416    1.1706074883
 H    1.0080324484    1.7994473835    0.1123527017
 H   -0.5637065192    1.8961171381   -0.7271741645
 H   -0.5095380483    1.7810562176    1.0509149474
 H   -1.8159556890   -0.2773291757    0.9533619376
 H   -1.8713625335   -0.1518678038   -0.8138833523
 H   -0.5386642599   -2.2715633334   -0.9842410870
 H   -0.5387313929   -2.4226207882    0.7677283065
 H   -3.0958041391   -2.4217808262    0.7117970366
 H   -3.0182775906   -2.5039765919   -1.0380426376
 H   -4.3457765526   -4.6862402186   -0.9465788369
 H   -3.7677698162   -5.9921125349    0.1097922477
 H   -4.4014027968   -4.4896562976    0.8095093609
 H   -0.5358540400   -4.5888900149   -1.1218437879
 H   -1.5769675670   -6.0159631638   -1.0884403163
 H   -1.9900615360   -4.6456199614   -2.1399500568
 H   -2.2321872876   -4.3990448610    1.9198443882