16

 C    0.6356279004   -0.2540738388   -0.4665850611
 C   -0.2617632229    0.8726494812   -0.0090435179
 O    0.1109373596    2.0147737926    0.1252452098
 C   -1.7251599812    0.5554761341    0.2283304878
 O   -2.1445490148   -0.8115792966    0.2517918371
 C   -2.2233361635   -0.0758273517    1.4648527707
 C   -1.3099641601   -0.4802271200    2.6115203575
 C   -1.8432142213   -1.6189829447    3.3594774772
 N   -2.2761031755   -2.5127831891    3.9490406389
 H    1.6775912747    0.0653083502   -0.4319589031
 H    0.4802553656   -1.1660930507    0.1143505685
 H    0.3693121741   -0.5099603496   -1.5001159755
 H   -2.3988640786    1.2462329435   -0.2791892576
 H   -3.2396142429    0.1680811807    1.7747083862
 H   -0.3104529147   -0.7307349870    2.2469318898
 H   -1.2004749189    0.3693971758    3.2961138915