24

 C    0.4074410610    1.5614336200   -0.0242863731
 C   -0.1503717837    0.1417785352   -0.1023023774
 N    0.4865765135   -0.5853718893   -1.1957105549
 C    1.6779958473   -1.3760182324   -0.8930003608
 C    0.3998958696   -2.0470703310   -1.2720196376
 C   -0.3629045488   -2.8679073043   -0.2505463655
 C    0.2369056518   -2.5319099720   -2.6988522602
 O    0.7250225397   -3.8551085857   -2.7940871693
 C    0.5647565230   -4.4052436103   -4.0783010125
 H    1.4805286839    1.5461214530    0.1931328129
 H    0.2641297051    2.0828959461   -0.9746815937
 H   -0.0904609033    2.1303381349    0.7671796982
 H   -0.0244934205   -0.3530333515    0.8746166547
 H   -1.2276228122    0.1766970990   -0.3054241947
 H    2.5009930334   -1.3009881510   -1.5996976594
 H    1.9834055454   -1.4518980788    0.1506055519
 H   -0.1347812260   -2.5796630924    0.7771280690
 H   -1.4449971103   -2.7715300725   -0.4017473203
 H   -0.1032733473   -3.9221926503   -0.3757172249
 H   -0.8295365599   -2.4970318999   -2.9868367870
 H    0.7808315762   -1.8587694181   -3.3786549105
 H    1.1074339186   -3.8261011555   -4.8425279197
 H    0.9677565051   -5.4208461952   -4.0540699114
 H   -0.4954798415   -4.4502759780   -4.3755654640