20

 N   -0.1829273774    1.2770807548   -0.2567819865
 C    0.0418298294   -0.0442867645    0.0198653225
 O    1.1216254403   -0.5344654433    0.2538165725
 O   -1.1238828506   -0.7322570608   -0.0420723249
 C   -1.0093287127   -2.1503107030    0.1717500002
 C   -2.3915599406   -2.7462796245    0.0445893439
 C   -3.0719771532   -2.7890350391   -1.3527630004
 C   -3.5845117641   -4.2159013049   -1.0172736234
 C   -2.5156124437   -4.2953194808    0.1071105916
 H    0.5635352908    1.9086756389   -0.0228326767
 H   -1.1254700111    1.6251521824   -0.2099798582
 H   -0.3223813380   -2.5714237061   -0.5709507716
 H   -0.5763768761   -2.3339496360    1.1616239037
 H   -3.0574286841   -2.2784538053    0.7777708612
 H   -3.8112312922   -2.0185233797   -1.5814678989
 H   -2.3265003224   -2.8029031374   -2.1545896226
 H   -4.5993111547   -4.1978563118   -0.6096844263
 H   -3.5436995545   -4.9694280186   -1.8069284129
 H   -1.5992361050   -4.7833431650   -0.2415158424
 H   -2.8034325201   -4.7430753451    1.0611453793