22

 C   -0.1991444300    1.4672289798   -0.0525529923
 C   -0.1476079317   -0.0152771387    0.2885570063
 O    0.4051590850   -0.4256868289    1.2934664071
 N   -0.7602940490   -0.8395973544   -0.6133844892
 C   -0.8633044863   -2.2774873457   -0.4223498055
 C   -2.2757484455   -2.7358853716   -0.0815234644
 C   -3.3923672319   -2.6359561293   -1.1627693329
 C   -3.9275169796   -4.0108459815   -0.6787536081
 C   -2.5543197242   -4.2629236803    0.0004383501
 H    0.8183370610    1.8652142977   -0.0362740285
 H   -0.6521623239    1.6832080362   -1.0239095186
 H   -0.7648342336    1.9878686655    0.7253158442
 H   -1.2360455855   -0.4280190408   -1.3989287375
 H   -0.5171538684   -2.7896426291   -1.3306618631
 H   -0.1731122759   -2.5253325664    0.3881760239
 H   -2.5991244581   -2.2396062193    0.8397796725
 H   -4.0710268352   -1.7800728454   -1.1242744162
 H   -2.9743814080   -2.7040031124   -2.1741372402
 H   -4.7276149095   -3.8956503494    0.0578384069
 H   -4.2576386230   -4.7228411362   -1.4385574100
 H   -1.8787415910   -4.8248176626   -0.6539024868
 H   -2.5448859157   -4.7288626372    0.9883493924