16

 N    0.2755088554    1.0157884982    0.6539341811
 C    0.0114545723   -0.0746959739    0.0996404670
 O    0.7911561805   -0.8752517904   -0.7319296459
 C   -0.2945179015   -1.8282006332   -0.8970088012
 C   -0.2278174012   -2.9790472075    0.1566911996
 C   -1.1284823875   -2.1444806339    1.1080225539
 C   -1.1880325293   -0.9934433427    0.0577385882
 C   -0.8172645905   -4.2742965233   -0.3457877272
 O   -1.8993980002   -4.7056482548   -0.0404855311
 H    1.2250907141    1.3267600267    0.4424738346
 H   -0.4874530904   -2.0470577718   -1.9471762402
 H    0.8033857012   -3.1612665481    0.4747493803
 H   -2.0943188863   -2.6316853066    1.2496513502
 H   -0.7075740730   -1.8776844326    2.0776023211
 H   -2.1526115590   -0.5599837883   -0.1951614150
 H   -0.1692469946   -4.8153860277   -1.0721811756