22

 C   -0.2288659210    1.6109136711    0.0327051829
 C    0.0097933746    0.1014264473   -0.0016406644
 C   -1.2900358580   -0.6416033467    0.3338609385
 C    0.6559351609   -0.5269844738   -1.2384210737
 C    2.1384518224   -0.4254191220   -1.2873971694
 C    2.8982126942    0.6280131828   -0.4952296618
 C    2.4181813431    0.3794454297    0.9583900911
 C    1.2065648642   -0.5334532383    0.7826914761
 N    1.5285611930   -1.4469513592   -0.4045494037
 H    0.6671514119    2.1907105828   -0.1975991049
 H   -0.9964626747    1.8875562084   -0.6993574746
 H   -0.5907303861    1.9282882446    1.0177816644
 H   -2.0807671446   -0.3915994457   -0.3829347492
 H   -1.1421680833   -1.7250452684    0.3115519520
 H   -1.6471505433   -0.3648888430    1.3324256480
 H    0.0934164985   -0.9117680665   -2.0871667659
 H    2.6078808823   -0.8429575224   -2.1739164741
 H    3.9763646915    0.4719685681   -0.5954726076
 H    2.6902540162    1.6428247907   -0.8460463676
 H    3.1902736119   -0.1413042449    1.5333975061
 H    2.1735302553    1.3003793404    1.4953215690
 H    0.9335015510   -1.0947990149    1.6778113090