17

 C    0.0545160121    1.5776990751    0.0071185558
 C    0.0499156013    0.0321319079    0.0322795899
 C    0.8290164126   -0.4936654350    1.2594594187
 N   -1.3425924687   -0.4744168808    0.0556489484
 C   -2.2516253071   -0.2244576498    1.0313004377
 O   -2.0672019702    0.4465399311    2.0271871280
 C    0.6603873661   -0.4837543070   -1.1985464517
 C    1.1572078668   -0.9078084549   -2.2071100787
 H    1.0827343591    1.9458833682   -0.0351336896
 H   -0.4830636019    1.9449758574   -0.8703733263
 H   -0.4296554577    1.9543261240    0.9091851193
 H    0.3509569172   -0.1333305525    2.1713875177
 H    0.8372832814   -1.5862682424    1.2646183757
 H    1.8618448505   -0.1378125836    1.2246427832
 H   -1.6294673867   -1.0503043376   -0.7195525877
 H   -3.2202071562   -0.7186315949    0.8129430894
 H    1.6056425313   -1.2778220953   -3.0961793397