17

 C   -0.1071940193    1.4523586449    0.0292859837
 C    0.0340946015   -0.0322045073    0.0286728221
 O   -1.1604273009   -0.8140913931   -0.1541787531
 C   -0.5474492444   -1.9153244919    0.5961090969
 C    0.6572951345   -1.0382591052    0.9596941255
 C    1.2298717346   -0.8333972922   -0.4464484144
 C    0.9720302867   -2.0558144257   -1.3104239916
 C   -0.0644967957   -2.8664342127   -0.5054983944
 O   -0.4182499277   -3.9958730021   -0.7059480121
 H    0.8545118077    1.9263018600    0.2461438234
 H   -0.4461343241    1.8046310469   -0.9511575810
 H   -0.8344958988    1.7748427529    0.7803595829
 H   -1.2083680857   -2.3333278241    1.3531905230
 H    1.1843989000   -0.9548669734    1.8993835091
 H    2.1689369998   -0.2983604126   -0.5303469705
 H    0.5760677524   -1.8331480707   -2.3060351792
 H    1.8765007992   -2.6581304238   -1.4409764103