18

 C   -0.1791794706    1.0448991240    0.1295730646
 O    0.1776785285   -0.3325026453    0.1935779370
 C    0.5695349015   -0.8890121718   -0.9637961445
 N    0.9141126108   -2.0990265069   -1.0109115708
 C    1.3312126846   -2.6370663818   -2.2874416093
 C    2.6530060071   -3.3899487466   -2.1402230693
 O    2.4864216703   -4.5885221602   -1.3826866052
 C    2.6553516850   -4.5146559839   -0.0443185518
 O    2.4784264559   -5.4532317993    0.6718311419
 H    0.6713746076    1.6651921426   -0.1771996785
 H   -1.0167396294    1.2098511069   -0.5584187810
 H   -0.4833176338    1.3283547540    1.1373700670
 H    0.5555618941   -0.2077668970   -1.8299845131
 H    0.5778935554   -3.3534498710   -2.6388318690
 H    1.4500225401   -1.8665997640   -3.0694932577
 H    3.0222146169   -3.7031284654   -3.1203595678
 H    3.4076713353   -2.7439729938   -1.6738002238
 H    2.9843021307   -3.5160298403    0.2930680213