19

 C   -0.2304414568    1.5529634195    0.7725278039
 C   -0.0941201011    0.0677143203    0.4903289638
 C    1.0861440192   -0.4485375305   -0.3874761909
 N    1.9984873069   -0.0702526140    0.7607373676
 C    0.8332426543   -0.8086899230    1.3858665659
 C    0.8819787345   -1.8886619208    0.2322091799
 C   -0.3038787392   -2.7939816528   -0.1207607926
 C    2.1012636706   -2.7002871652    0.2412757007
 N    3.0447937877   -3.3699377287    0.2398508316
 H    0.7351849315    2.0038181929    1.0018159973
 H   -0.6626237038    2.0658055995   -0.0937149534
 H   -0.9068103267    1.7180979790    1.6183531807
 H   -1.0639108156   -0.3729475058    0.2625364109
 H    1.3291398180   -0.2113119010   -1.4247804146
 H    2.8346687646   -0.6606782111    0.7600753544
 H    0.7752831142   -1.0000553397    2.4588733186
 H   -1.2510367005   -2.2556509155   -0.1468591524
 H   -0.1469659471   -3.2541589749   -1.1008718618
 H   -0.3916114609   -3.6015771783    0.6121091404