17

 N    0.0068175053    1.2387449935    0.3654917715
 C    0.0528145944    0.0355240156    0.0395957979
 O    1.1782061196   -0.7970747145   -0.2637111718
 C    0.2038496938   -1.6627888288   -1.0357612860
 C   -0.6950125680   -2.9769812407   -1.0258337744
 C   -0.7527942505   -3.4483224830    0.4180296208
 C   -0.9105586412   -2.0510945528    1.0782920423
 C   -0.8814015493   -1.1539834413   -0.1903540532
 N   -1.8828526322   -1.9764901887   -1.0616708522
 H    0.9404073673    1.6495708111    0.4203270880
 H    0.2168173105   -1.2646591256   -2.0532836310
 H   -0.6487629981   -3.7009289859   -1.8399685650
 H   -1.6087169339   -4.1031625172    0.5900804004
 H    0.1589786929   -3.9692333240    0.7190868884
 H   -1.8670845006   -1.9209216845    1.5875448799
 H   -0.1040196923   -1.8132639728    1.7721998206
 H   -1.9124510876   -1.5617139003   -1.9951746664