22

 C    0.0251797771    1.5814255608   -0.0021369834
 C    0.0004524150    0.0515007441    0.0163348232
 C   -1.4167817671   -0.5280083593   -0.0045060133
 O   -2.1333186793   -0.1283550308   -1.1725097833
 C   -1.4295592528   -2.0646284984    0.1486150336
 O   -0.7141112717   -2.4644163038    1.3172538773
 C   -2.8467742408   -2.6440968125    0.1264114031
 C   -2.8715834419   -4.1740248081    0.1444602440
 H    1.0503478434    1.9605666966   -0.0507533032
 H   -0.5268541773    1.9696806107   -0.8625839243
 H   -0.4397757878    1.9933075277    0.9006316272
 H    0.5455970299   -0.3435242208   -0.8550293485
 H    0.5195530001   -0.3381055461    0.8968792353
 H   -1.9933883339   -0.0993851062    0.8292426886
 H   -1.6025534232   -0.3802533476   -1.9370960932
 H   -0.8522645136   -2.4931701946   -0.6846973617
 H   -1.2455829002   -2.2126281905    2.0813873711
 H   -3.3926726906   -2.2492576118    0.9973873111
 H   -3.3650652231   -2.2542470180   -0.7545138827
 H   -2.3203338519   -4.5625163856    1.0053011966
 H   -3.8968096458   -4.5531379825    0.1920628389
 H   -2.4058361045   -4.5856920133   -0.7579977564