18

 O    0.2666009874    1.2541224177   -0.4927617636
 C    0.0871921978    0.0399695014    0.2061067217
 C   -1.3423352420   -0.4764345688    0.0991597490
 C   -2.3433138896    0.2591123418    0.9626319965
 O   -2.3291364863    1.6347911420    0.5772316959
 C   -1.7964405100   -1.0029934904   -1.2278890171
 C   -1.6031249496   -1.9716112158   -0.0702001676
 C   -0.5176110513   -2.9117972019   -0.0814861122
 N    0.3519675264   -3.6751846870   -0.0852003882
 H   -0.4499282624    1.8372504664   -0.2100572540
 H    0.7848150629   -0.6813579488   -0.2295604336
 H    0.3517751307    0.1399271340    1.2724738112
 H   -3.3494926941   -0.1683760796    0.8347856819
 H   -2.0634856011    0.1521469962    2.0211468937
 H   -2.7783414096    2.1504105135    1.2535694208
 H   -2.8175028644   -0.8237406981   -1.5455021508
 H   -1.0665484946   -1.0307240467   -2.0280131009
 H   -2.5035572902   -2.3612344758    0.3951092177