22

 C   -0.0876373425    1.5889483126    0.0129118460
 C    0.0856139864    0.0724922604   -0.0114418323
 C    0.8617304902   -0.5089090595   -1.2057974024
 C    1.5671270776   -1.7838057257   -0.6622693876
 C    0.6952543435   -3.0399479903   -0.8450144663
 C    2.9469486150   -1.9991893565   -1.2926246884
 N    1.6932464452   -1.4390096880    0.7559787365
 C    0.8654602956   -0.4485119742    1.2061415751
 O    0.7635628803   -0.0647686365    2.3522331517
 H    0.8769170627    2.0952886305   -0.1017060689
 H   -0.7466840172    1.9281311090   -0.7920668141
 H   -0.5146810381    1.8966498238    0.9708521144
 H   -0.9069906318   -0.3946082012    0.0520038483
 H    0.2308423408   -0.7349507273   -2.0691414723
 H    1.6212313304    0.2110416028   -1.5305175239
 H    0.5963389729   -3.2945519730   -1.9053851565
 H    1.1414433091   -3.8996573818   -0.3335938859
 H   -0.3070704606   -2.8878776533   -0.4335097868
 H    3.5921841368   -1.1337816404   -1.1174946402
 H    3.4392180108   -2.8849833581   -0.8754007662
 H    2.8549353034   -2.1503659679   -2.3730059804
 H    2.2040067395   -2.0093817654    1.4131449601