16

 C   -0.1027129916    1.5720831740   -0.1537141155
 C   -0.0243156232    0.0449032390   -0.0539781855
 C    0.8732796516   -0.6733597691   -1.0790635327
 O    1.7791573049   -1.0917314216    0.0068223153
 C    1.0004512825   -0.4932914140    0.9492417326
 O    1.1370178247   -0.4882877448    2.1354360572
 C   -1.4305615776   -0.5509450295    0.0974961928
 N   -1.8542997787   -0.6341302319    1.3855700348
 O   -2.0953504727   -0.8608837357   -0.8704509970
 H    0.8900519011    2.0064245255   -0.3033477358
 H   -0.7403303483    1.8543395853   -0.9962380456
 H   -0.5291087681    1.9947651831    0.7596860220
 H    0.4290905801   -1.5372646104   -1.5723987779
 H    1.4004001565   -0.0353669171   -1.7897353028
 H   -1.2054364205   -0.5189667837    2.1501585075
 H   -2.7564967908   -1.0456919591    1.5633016506