12

 C    0.0291653441    1.4258060452    0.1346833774
 N   -0.0453306031    0.0177923261   -0.2202685227
 C   -1.2235959157   -0.6673671058   -0.0765729426
 N   -1.2817647419   -1.9719048081    0.0645101775
 O   -2.6277373709   -2.2743677911    0.1058938755
 N   -3.3915448716   -1.1581586070    0.0067098788
 C   -2.5616326121   -0.1600499276   -0.1052294031
 H    1.0384162224    1.7851441248   -0.0754053794
 H   -0.6599329127    2.0074623067   -0.4853918803
 H   -0.2008276641    1.6268948307    1.1911782904
 H    0.7651733965   -0.5342257009    0.0188852098
 H   -2.9197829809    0.8522968971   -0.2003383513