18

 C    0.0063277846    1.4199836682    0.0286221438
 C    0.0299916059   -0.0823304498   -0.0499246344
 C   -0.3817976875   -0.8182950790   -1.3133532935
 C   -0.3135414692   -2.2350122866   -0.7897192438
 C   -0.6629570756   -2.2293860320    0.6898650604
 N   -0.4603453084   -0.8105752280    1.1716454234
 C    0.9775640113   -0.9109197094    0.7458066176
 C    0.7668731444   -2.3680053697    0.2790170024
 O    1.6254460412   -3.4289571463    0.4455966072
 H    0.6983244437    1.8598215997   -0.6976758306
 H   -0.9974904708    1.8038394074   -0.1821786259
 H    0.2925899314    1.7589074216    1.0273519476
 H   -1.3889496180   -0.5335472538   -1.6382349054
 H    0.3145654881   -0.6274407973   -2.1380256244
 H   -0.5631466219   -3.1088525367   -1.3785860929
 H   -1.3650229663   -2.8854884273    1.1856329617
 H    1.7824547648   -0.5419789936    1.3726875946
 H    2.2228861624   -3.4614958074   -0.3103656880