21

 C    0.1574510275    1.5698787346   -0.1373396411
 C   -0.1125131370    0.0732317451    0.0783208509
 O    0.1881098816   -0.6833703493   -1.0953945230
 C    0.5976195508   -0.4365772038    1.2548106429
 C    1.2191783631   -0.8588446155    2.1991627132
 C    1.9642528008   -1.3445980821    3.3312400595
 C    3.0186999167   -0.3916610361    3.8752102284
 C    1.2309790846   -2.2435552879    4.3185356656
 C    2.2487083081   -2.8400619043    3.3901061541
 H    1.2279898728    1.7479183139   -0.2818747905
 H   -0.3792079584    1.9117804965   -1.0262647942
 H   -0.1708464959    2.1542359325    0.7272370313
 H   -1.1909815589   -0.0692816802    0.2210524519
 H    1.1479671180   -0.7444772911   -1.1546594489
 H    2.5645066945    0.5486322186    4.2032023333
 H    3.5352725874   -0.8372339477    4.7310093450
 H    3.7659828417   -0.1567787232    3.1106499712
 H    1.4897478341   -2.1323274408    5.3661765034
 H    0.1840036208   -2.4467537529    4.1290237815
 H    1.8955523924   -3.4500219259    2.5674983821
 H    3.2080537354   -3.1394426304    3.7987092133