20

 C   -0.0837182068    1.5890624642   -0.1551014628
 C    1.3821420279    2.0000317813    0.0465351298
 N    2.5371675149    1.9616830142   -0.8852017714
 C    2.1876144398    0.7538328315   -0.1438435961
 C    1.2523200153   -0.2569748379   -0.8181743222
 C    0.0117139592    0.0432091298    0.0224763534
 O    0.2877959317   -0.3983124101    1.3574666106
 C    1.5045180895   -0.0079435062    2.0148780545
 C    2.7710175458    0.1576631912    1.1116527866
 H   -0.7192095525    2.0600921631    0.5993475621
 H   -0.5050137642    1.8285573061   -1.1391311499
 H    1.5857178612    2.6493436808    0.8924041076
 H    2.2593045836    1.8574127679   -1.8590456867
 H    1.0925554129   -0.0403592873   -1.8795715090
 H    1.5873205245   -1.2912530098   -0.7164569576
 H   -0.9035162115   -0.4895037024   -0.2551391095
 H    1.3404081079    0.9512315522    2.5250648875
 H    1.6606653236   -0.7686898221    2.7859140064
 H    3.2718431871   -0.7993027585    0.9297798388
 H    3.4776854302    0.8231153219    1.6165069378