12

 C   -0.0141782594    1.4575786713    0.0017515687
 N    0.0021166586    0.0093967346   -0.0167835933
 C    0.0752783729   -0.8017851850   -1.1288067384
 C    0.0638290665   -2.0858022412   -0.6503816990
 N   -0.0151015133   -2.0902335498    0.7223979892
 C   -0.0500067697   -0.8224965174    1.0637077921
 H    0.9022178253    1.8659744796   -0.4355594001
 H   -0.8732586838    1.8466737161   -0.5534367909
 H   -0.0867071451    1.7976701241    1.0365284397
 H    0.1272081465   -0.3915670357   -2.1241244884
 H    0.1072539861   -3.0046205724   -1.2153984845
 H   -0.1125142044   -0.4359262641    2.0708923349