18

 C   -0.2261221428    1.5192010462    0.0178584983
 C    0.0181614683    0.0087514105   -0.0298697712
 C   -1.2626116319   -0.7738155876    0.2307265189
 C    0.8569470091   -0.4307103341   -1.2687386573
 C    2.0818730160   -0.4553476368   -0.3109210226
 N    1.1538130209   -0.4390887439    0.8389359358
 C    2.9736604016   -1.6149903755   -0.3722260181
 N    3.6817910162   -2.5260284600   -0.4385931016
 H    0.6890806745    2.0843700848   -0.1893013536
 H   -0.9789856744    1.8191891341   -0.7190313804
 H   -0.5931969871    1.8179885364    1.0064955162
 H   -2.0156403289   -0.5567247451   -0.5351042635
 H   -1.0605145601   -1.8477082771    0.2318635258
 H   -1.6880239256   -0.5088161281    1.2051249113
 H    0.5931880364   -1.4232481285   -1.6351902988
 H    0.9165991026    0.2674256396   -2.1038680383
 H    2.6979860427    0.4473520624   -0.4180775430
 H    1.4143999123    0.1942145626    1.5885253421