16

 O   -0.0512243053    1.3300069392    0.1055945074
 C   -0.0204830748   -0.0652659716    0.0579620477
 C   -1.3979290637   -0.6568575038    0.0107667965
 C   -0.5165278312   -0.6675586381   -1.2400626173
 N   -0.5178597894   -2.1468981627   -1.3105968838
 C    0.6317540554   -2.8629066693   -0.6675574983
 C   -0.1724603721   -2.9436288713    0.6538718429
 O    0.0112029858   -3.4227245968    1.7305703723
 C   -1.3373196191   -2.1896362788   -0.0406187919
 H    0.6969051544    1.6645363679   -0.4006753564
 H    0.7687124778   -0.5261157964    0.6527732186
 H   -2.2715959947   -0.0632001365    0.2423642905
 H   -0.5786394655   -0.0682103078   -2.1420103763
 H    0.8126006621   -3.8413266003   -1.1248307983
 H    1.5788885842   -2.3164805224   -0.6183641228
 H   -2.2993211339   -2.7077684712   -0.0800827908