15

 C   -0.1008882199    1.5443460235   -0.1004235337
 C   -0.0221556859    0.0434038384    0.1495342816
 N   -1.3489157282   -0.5622783581    0.0382793705
 C   -1.4826513329   -1.9032821248    0.0159127771
 N   -0.5386334413   -2.7814412416   -0.0969700641
 O   -1.2610221567   -4.0239396769   -0.1484365751
 C   -2.5791113608   -3.7892009663   -0.0304942454
 O   -3.4656128260   -4.5762169494   -0.0161129682
 O   -2.7370966981   -2.4084010108    0.0760939897
 H    0.8937028546    1.9898126537   -0.0189413044
 H   -0.4955310286    1.7567849355   -1.0978855905
 H   -0.7451906223    2.0363882359    0.6370320489
 H    0.6182824281   -0.4421094197   -0.5924139108
 H    0.4180856516   -0.1647625371    1.1344305827
 H   -2.1283332437   -0.0603895123    0.4372497416