20

 C   -0.4518772200    1.4804667948   -0.1119895325
 C    0.0833562120    0.0523323574    0.0525989367
 C    0.8245257020   -0.4412792442   -1.1693134988
 C    0.1020767752   -0.9427894623   -2.3859106125
 N    0.8053419278   -1.8817027545   -1.5257614913
 C    2.1494414993   -2.2482656551   -2.0497022285
 C    2.9424784354   -0.9544078913   -2.3052436039
 C    2.1930227712    0.1014355027   -1.4778332064
 O    2.6448791181    1.1477928727   -1.0830783551
 H    0.3679425868    2.1793449709   -0.2915951076
 H   -1.1483719906    1.5459738698   -0.9549438261
 H   -0.9855030191    1.7981099140    0.7887027279
 H    0.7569789361    0.0089926838    0.9165802509
 H   -0.7354667187   -0.6460112067    0.2553052601
 H   -0.9822529377   -0.9993091935   -2.3413795665
 H    0.5028130050   -0.7199783040   -3.3725915699
 H    2.6377773596   -2.8535363049   -1.2803704075
 H    2.0296153519   -2.8735572356   -2.9387447839
 H    3.9824961927   -1.0073600578   -1.9788271919
 H    2.9549664633   -0.6456426662   -3.3564348433