20

 C   -0.1105370939    1.6544165110   -0.0629175525
 C   -0.0135769230    0.1434661604   -0.1437423225
 C    0.7986695674   -0.6215948446   -1.2273846587
 C    2.0446291673   -0.1740028570   -0.4312390605
 N    1.0794210798   -0.5775157750    0.7022413565
 C    0.7782494926   -1.7863290677   -0.2187906687
 C   -0.4805691645   -2.5894025659    0.0699666438
 C   -0.5805435503   -3.1626869900    1.4685129022
 O   -1.3166211510   -2.7797948659   -0.7843066528
 H    0.8002718114    2.1818051864   -0.3526879951
 H   -0.9169053235    1.9994695560   -0.7186607216
 H   -0.3636487624    1.9543063723    0.9594627487
 H   -1.0012427529   -0.2786240352    0.0614885451
 H    0.6410235665   -0.6568077344   -2.3091637333
 H    2.9363793210   -0.8049558279   -0.4805484720
 H    2.3219540896    0.8793062075   -0.4246150566
 H    1.6311606045   -2.4772944959   -0.2507085864
 H   -0.4773754749   -2.3608053824    2.2069610454
 H   -1.5295319694   -3.6853415959    1.5932417528
 H    0.2485886558   -3.8575337758    1.6477847361