19

 C   -0.0212000789    1.5373413519   -0.0186573717
 C    0.0239926758    0.0195059074    0.0052705454
 O    0.7975991624   -0.4480953636   -1.1179713283
 C    1.5651436071   -1.5395613509   -0.6799982164
 C    2.5097738939   -1.3033271580    0.4858707537
 O    2.1289503329   -0.1102103928    1.1657270288
 C    0.7388963473   -0.6019742271    1.2146787565
 C    0.1191740454   -0.4430632565    2.5766511937
 C    1.1852522511   -1.9952304985    0.6972398710
 H    0.9822783624    1.9393428132    0.1361530494
 H   -0.3977660247    1.8849952719   -0.9840615664
 H   -0.6876557985    1.9172115912    0.7624466835
 H   -0.9954190171   -0.3970361412   -0.0647501524
 H    1.8320747912   -2.2384874290   -1.4637698918
 H    3.5389829370   -1.6351089607    0.5646393196
 H    0.0628025689    0.6149396810    2.8504709898
 H   -0.8942870756   -0.8578542553    2.5895214959
 H    0.7182957270   -0.9591845378    3.3307772038
 H    0.8851005825   -2.9746609553    1.0447761160