15

 C   -0.0700291496    1.5224688980    0.0030031591
 C    1.4524038641    1.2783551761    0.0186218670
 C    1.1748615946    0.0973832673    1.0499649748
 C    0.1181374865   -0.0333878945   -0.0857814608
 N   -0.8814128886   -0.8481933638   -0.7597354237
 C   -0.6089447269   -0.5794824573   -1.9815030343
 O    0.4919643048    0.1944352259   -2.3091971756
 C    1.2443257560    0.1802179103   -1.0707964543
 H   -0.5160647088    1.9033066554    0.9234469893
 H   -0.4809055326    2.0075471014   -0.8826107576
 H    2.2519805554    2.0139271461    0.0933277628
 H    1.9299970336   -0.6898377965    1.1159137070
 H    0.8260000250    0.4148323702    2.0340241596
 H   -1.1884844777   -0.8982193727   -2.8405090130
 H    2.0346857242   -0.5705295058   -1.1622733703