19

 C   -0.5990411450    1.2054816171   -0.2331368170
 C    0.4967557593    0.2125100521    0.1953952172
 C    1.1843143587   -0.4039177540   -0.9344896089
 C    1.7358947591   -0.8958426257   -1.8853622887
 C    2.4027119176   -1.5172582575   -3.0210533251
 C    1.6468880884   -2.7653928834   -3.5551854970
 O    0.3226838079   -2.4594311158   -3.9607909664
 C    2.4150215674   -3.4002677973   -4.6314344412
 C    3.0431831305   -3.8742458248   -5.5403916406
 H   -0.1744571075    2.0199185031   -0.8264736608
 H   -1.3578812556    0.7058333464   -0.8411517471
 H   -1.0881932923    1.6372569947    0.6452521626
 H    1.2288025536    0.7263539199    0.8319489471
 H    0.0539033699   -0.5723117722    0.8221447636
 H    2.5084010073   -0.8025489387   -3.8481760494
 H    3.4211172337   -1.8228323526   -2.7507120688
 H    1.5301729796   -3.4712193531   -2.7254756414
 H    0.3773986830   -1.9441833076   -4.7736346456
 H    3.5919034745   -4.3162970806   -6.3352658424