17

 C   -0.2464681276    1.5293748780   -0.3447252395
 C   -0.1260717984    0.0049135804   -0.3053973893
 C    0.8807401667   -0.5583961115   -1.3506718428
 C    2.2896649851   -0.1057908883   -0.9755972870
 O    2.8772968038    0.7852687953   -1.5281123479
 C    0.8252686575   -2.0815227896   -1.3228803222
 O    1.1470347766   -2.7108643936   -0.3359356591
 C    0.3657192679   -2.7289122799   -2.5350302404
 C   -0.0250986409   -3.2421015921   -3.5516997182
 H    0.7118989419    2.0196875030   -0.1516948483
 H   -0.6007648765    1.8727519795   -1.3220811878
 H   -0.9598775539    1.8721329533    0.4104599820
 H    0.1831279081   -0.3401752034    0.6871414577
 H   -1.1040293768   -0.4507636211   -0.4981450329
 H    0.6458133029   -0.1719637380   -2.3454534931
 H    2.7234177658   -0.6593832853   -0.1159606070
 H   -0.3657404220   -3.7120308869   -4.4426873140