19

 O    0.0434933583    1.3720987405   -0.2387714391
 C    0.0522108554    0.0315746039    0.2357412152
 C   -1.3105915913   -0.6078098356    0.1399288989
 C   -1.8702597980   -1.2466555192   -1.1481359897
 C   -0.8981006344   -1.7274440092   -2.1671864187
 C   -0.1047373655   -2.6918831898   -1.6880879561
 C   -0.4462955872   -3.0453609313   -0.2581592744
 C   -1.5804154929   -2.0765001402    0.1047101471
 O   -2.5766777787   -2.5251906755    0.9705170178
 H   -0.2663273599    1.3452022529   -1.1502312590
 H    0.8053067127   -0.5689873246   -0.2921697092
 H    0.3574530298    0.0921815275    1.2860826644
 H   -2.0775716903   -0.0670509131    0.6886283548
 H   -2.8815317445   -0.9747054248   -1.4307090514
 H   -0.8486068277   -1.3238526977   -3.1728727850
 H    0.6970039512   -3.1764498518   -2.2331860554
 H   -0.7957511541   -4.0847720628   -0.1691556601
 H    0.4114922277   -2.9579373176    0.4195261800
 H   -3.0131028506   -3.2789743416    0.5571815897