21

 C   -0.0010235792    1.5321607507    0.0330869981
 C   -0.0606883999   -0.0013401848    0.0684444496
 O    0.5391135259   -0.5657626457   -1.0986882835
 C    0.6736027717   -0.5694831443    1.2508877688
 C    0.1198167231   -1.0817631865    2.3522708181
 C    1.1431957620   -1.6265187194    3.3186320183
 O    1.0817032565   -3.0529343796    3.4008929000
 C    2.4819979526   -1.0779905948    2.7537610479
 C    2.1875520997   -0.6284725513    1.3019839274
 H    1.0341850687    1.8801388199   -0.0259652348
 H   -0.5410037185    1.9145259153   -0.8416273430
 H   -0.4652765114    1.9596376452    0.9266603551
 H   -1.1174412360   -0.3053042434    0.1354000164
 H    0.1523134187   -0.1329728566   -1.8665123047
 H   -0.9460480231   -1.1900330463    2.5253647992
 H    0.9790006404   -1.2986869254    4.3503152197
 H    1.0446459784   -3.3868886368    2.4974177887
 H    2.8041569301   -0.2187739680    3.3501164138
 H    3.2644041209   -1.8371399031    2.8277161054
 H    2.5603472816   -1.3280499047    0.5450481866
 H    2.6509381775    0.3362221297    1.0676142928