15

 C   -0.0650681926    1.5679421622   -0.1184557466
 C    0.0252182045    0.0571019107    0.0029514028
 N    1.0591083402   -0.5843349671   -0.8206514247
 C    1.7850629624   -1.1306183185    0.2018695095
 O    2.7757328943   -1.8023623651    0.2461647621
 C    0.7749065456   -0.5446300629    1.2552206910
 C    1.3016869575    0.3585469037    2.2496674754
 C    1.7490273088    1.1131541906    3.0718465707
 H    0.9072278957    2.0338507058    0.0593519956
 H   -0.4122822430    1.8509124867   -1.1177390604
 H   -0.7762328147    1.9663392976    0.6113744862
 H   -0.9612063444   -0.4006408102   -0.1356498069
 H    1.1677645572   -0.6638711112   -1.8212818140
 H    0.2057221046   -1.3538787659    1.7229731016
 H    2.1507137437    1.7708541536    3.8024471376