21

 O   -0.6314523113    0.8012303228    0.8828315409
 C   -0.0000956098    1.0273463034   -0.1171378222
 C    1.3072949398    1.7810337138   -0.1712752824
 C    1.2276189536    3.0015274490   -1.1075982427
 C    2.5692772798    3.7154464789   -1.2565371150
 C    3.7429471374    3.0125262474   -2.0302274634
 C    3.8531455462    4.2420907996   -2.9407671298
 C    2.5550368847    4.4648398722   -3.6597673228
 C    2.6726404432    4.9042062313   -2.2252343737
 H   -0.3680410379    0.6838086440   -1.1138740043
 H    1.5870442699    2.0705653986    0.8461269160
 H    2.0725609280    1.0883719562   -0.5517859159
 H    0.8633402557    2.6808187103   -2.0919097416
 H    0.4838755890    3.7088088852   -0.7184480984
 H    2.9236855074    4.0155164753   -0.2646790202
 H    4.6198230649    2.8445046464   -1.4018098648
 H    3.4972504627    2.0735256503   -2.5403492407
 H    4.7798662074    4.6904607621   -3.2768027185
 H    2.5543118483    5.2738571780   -4.3832914868
 H    1.9310603621    3.6209028634   -3.9450092423
 H    2.5423453289    5.9425655019   -1.9434504513