20

 C   -0.1026281254    1.6751999101    0.3474456219
 C   -0.1022348261    0.1980293351   -0.0680537565
 C    0.8075161925   -0.6342698233    0.8595797491
 C   -1.4925542875   -0.3785103290   -0.1195315448
 N   -2.4783258663    0.0681776999    0.6598272502
 N   -3.5388771089   -0.6897363374    0.3487208893
 C   -3.2686292150   -1.6217686737   -0.6082257733
 C   -1.9396920356   -1.4513304379   -0.9396474073
 N   -1.1871980192   -2.1077610335   -1.9331295806
 H    0.9180580948    2.0714764770    0.3532328106
 H   -0.7037357203    2.2778853679   -0.3389563838
 H   -0.5260161061    1.7951349968    1.3484165820
 H    0.3082731802    0.1281962577   -1.0852901147
 H    0.4454868890   -0.5856125244    1.8917682383
 H    0.8289665871   -1.6903543344    0.5682747684
 H    1.8364034313   -0.2589969696    0.8388398333
 H   -4.4176512392   -0.5118163200    0.8017742708
 H   -4.0194207169   -2.3057844178   -0.9708205469
 H   -1.6264785330   -2.9632219913   -2.2482974958
 H   -0.2481978153   -2.3254244522   -1.6230472702