18

 O   -0.1034809344    0.0483223707    0.1216109313
 C    0.0502488845    1.2349333501   -0.0442490828
 C    1.3404995821    1.9333806191    0.0250325574
 N    1.3685316981    3.3983116476    0.3019577739
 C    1.7223076582    2.9373546645   -1.0354056060
 C    3.1994326155    2.5482252306   -1.2459710266
 C    3.7210356723    2.3387648795    0.2034297525
 C    2.6747563615    1.1897361361    0.2089526868
 C    3.0671949989    0.9848489993   -1.2966171343
 H   -0.8134218189    1.9077762120   -0.2711497293
 H    0.4119423821    3.7539869557    0.2971928615
 H    1.0767555766    3.1647983081   -1.8776040080
 H    3.7573604874    3.1119236817   -1.9932966227
 H    4.7396260307    1.9473418322    0.2042936623
 H    3.6120177698    3.1495832343    0.9204204491
 H    2.6888646376    0.3763700674    0.9310269177
 H    2.3162148229    0.5524904852   -1.9632274678
 H    4.0270479151    0.4793401459   -1.4245285249