17

 C   -0.1608836867   -1.2688620140   -0.0718458443
 C   -0.0877359980   -0.0694654366   -0.0417638292
 C   -0.0044386754    1.3762380637   -0.0094336965
 C   -0.1454289833    2.0253205944    1.4046662389
 N    1.3222142410    2.1528454034    1.4621196708
 C    1.8708660579    3.3454638257    2.0682541295
 C    3.3381611104    3.3380918324    2.0360333947
 N    4.4921612929    3.3457817263    1.9924262118
 C    1.4412255671    1.9688886140    0.0025815763
 H   -0.2218893033   -2.3286810575   -0.0980050148
 H   -0.6591687495    1.8114425785   -0.7670683111
 H   -0.6704246736    2.9927027690    1.3497674650
 H   -0.5853884691    1.4143490917    2.1969353862
 H    1.5263214649    4.2804128552    1.5824132260
 H    1.5483214290    3.3931985768    3.1152556238
 H    2.2565362540    1.3145382613   -0.3125962597
 H    1.4916730317    2.9165907455   -0.5565508776