14

 O    0.2476280951    1.2515576124    0.4759468489
 C   -0.0017454492   -0.0512880185    0.0411958610
 C   -1.4910794151   -0.3917263365   -0.1515261491
 N   -1.4309620376   -1.4300085847   -1.1823507779
 C   -0.3299148267   -1.3525275045   -2.0107739917
 N   -0.0304122518   -1.9488643735   -3.0948961564
 C    0.5740696848   -0.3329156596   -1.3441083250
 O    1.5199260024    0.2454653924   -1.8091230735
 H    1.0052077150    1.5638384525   -0.0413273413
 H    0.4364731759   -0.7991383434    0.7263036916
 H   -1.9663073448   -0.7709974764    0.7562491046
 H   -2.0258352390    0.5094534118   -0.4797028713
 H   -2.2634641727   -1.9157068212   -1.4756715558
 H   -0.7752000163   -2.5802467408   -3.3995664339