16

 C   -0.0191598719    1.5584285392    0.0756949200
 C    0.0238525861    0.0646404032    0.0631927540
 C    0.0217442351   -0.7372442640   -1.0480680916
 O    0.0683848689   -2.0725093959   -0.6528258738
 C    0.0976623362   -2.0803579828    0.6922246654
 N    0.2168421216   -3.3261609177    1.2754435334
 C    0.0715493218   -0.8083864911    1.1957422768
 C   -0.0211908815   -0.4607523222   -2.4193766282
 C   -0.0586483252   -0.2035772501   -3.5980953513
 H    0.8632780980    1.9767147830    0.5732607462
 H   -0.0559785124    1.9543227337   -0.9418840253
 H   -0.8981721741    1.9261101551    0.6174379340
 H   -0.1715574667   -4.0704298040    0.7116252400
 H   -0.1170137117   -3.3633446513    2.2275186976
 H    0.0864983235   -0.5269031051    2.2367642533
 H   -0.0919456675    0.0212879100   -4.6347810105