18

 C   -0.0947287247    1.5812468159    0.0357891249
 C    0.0291119444    0.0664629718   -0.0008361181
 C    0.8844611031   -0.6645960984   -1.1150740150
 C    2.2622140682   -0.0154817326   -0.8884619262
 O    2.3148515913    0.0000293542    0.5629610020
 C    1.0755258498   -0.6398036870    0.9231962745
 C    0.9848023780   -1.7777112161   -0.0848305900
 N    0.8653732433   -3.0304292778   -0.1550087724
 O    0.9138084701   -3.6228773149    1.1256950412
 H    0.8803875679    2.0604691003    0.1456897218
 H   -0.5701738496    1.9603930399   -0.8749541692
 H   -0.7129037072    1.8896578077    0.8851247602
 H   -0.9459963326   -0.4206943892    0.0826720487
 H    0.5377743472   -0.8199291354   -2.1339664321
 H    3.0855864176   -0.6177747366   -1.2865899378
 H    2.3404114614    1.0054166521   -1.2765123600
 H    0.9948695140   -0.7440156926    2.0008482919
 H    0.8231107079   -4.5586059112    0.9156180855