25

 C    1.0957117727    0.9680672640    0.2873483787
 C    1.0904821539   -0.5584689047    0.1406640982
 C    1.5723614640   -1.0237885501   -1.2289780506
 C    3.0899777952   -0.9839421869   -1.6257838659
 C    4.1181344144   -0.9942117641   -0.4960916342
 C    2.8930908333   -2.3539518795   -2.3422174914
 C    1.5153422491   -2.5268309138   -1.6290022591
 C    1.5183832326   -3.5448021630   -0.4920750323
 O    0.4015026830   -2.7562103076   -2.4816943482
 H    2.1004147076    1.3815852606    0.1495602145
 H    0.4439336566    1.4355986464   -0.4590296542
 H    0.7437372356    1.2748849695    1.2773524669
 H    1.7013225399   -1.0038430277    0.9350446525
 H    0.0695735034   -0.9303947670    0.2971885583
 H    1.0025193292   -0.4917614637   -1.9990117988
 H    3.3335880615   -0.1636942662   -2.3069055137
 H    3.9526177741   -1.8097050602    0.2156171301
 H    5.1266683103   -1.1219823207   -0.9050359197
 H    4.1082156978   -0.0569020690    0.0703449798
 H    2.7565064135   -2.2541662403   -3.4214225304
 H    3.6506740854   -3.1197539403   -2.1456508899
 H    2.3412013503   -3.3836477264    0.2091270896
 H    0.5769602380   -3.5075992758    0.0642833263
 H    1.6352338504   -4.5580120346   -0.8987914782
 H    0.3773656781   -3.6948581386   -2.6983244182