20

 C   -0.1249022648    1.5128057012   -0.1290096603
 C    0.0229505992    0.0014804200    0.0300519955
 O   -1.2874281238   -0.6113049495    0.1013229056
 C   -1.8914504591   -0.6468065307    1.3125664061
 C   -3.2407267334   -1.3161540414    1.2105982122
 O   -1.4037403427   -0.2026853614    2.3198342825
 C    0.7551197195   -0.6363049910   -1.1341929014
 C    0.5587558746   -2.0546075125   -1.5075327966
 N    0.0555240752   -0.9741190628   -2.3815518467
 H    0.8628078236    1.9775305890   -0.2062071222
 H   -0.6880943072    1.7533725701   -1.0355271311
 H   -0.6361377380    1.9374788516    0.7374907790
 H    0.5471675834   -0.2183349778    0.9651487701
 H   -3.8666199613   -0.7919471370    0.4830502034
 H   -3.1238883699   -2.3448789570    0.8576336579
 H   -3.7212448238   -1.3124740808    2.1879991903
 H    1.7373299087   -0.1940422277   -1.2922352627
 H    1.3861564048   -2.6279132044   -1.9155055656
 H   -0.1650158053   -2.6305675235   -0.9394427505
 H   -0.9461203098   -0.8796520245   -2.2254815255