20

 C    0.6193717578    0.4238731100    0.5439237053
 O   -0.1173698374   -0.6278621575   -0.0546855762
 C   -1.5201390901   -0.3808740780   -0.1347657158
 C   -2.1138594700   -1.4528338380   -1.0600679441
 C   -2.4124671043   -2.7754955483   -0.3123885554
 C   -1.7559692631   -2.7871261732    1.0634129817
 O   -2.2005096734   -1.6574719514    1.8406889542
 C   -2.1487328791   -0.4364524642    1.2480095853
 N   -2.5828602706    0.6131299128    1.8126269384
 H    1.6690751287    0.1221505473    0.5234139128
 H    0.5026044907    1.3609747817   -0.0198904823
 H    0.3142991026    0.6088061818    1.5814314653
 H   -1.6990136551    0.6260524102   -0.5299595244
 H   -3.0286685360   -1.0611003737   -1.5128172011
 H   -1.3911424918   -1.6058494283   -1.8660226798
 H   -3.4922382898   -2.8974784099   -0.1760176954
 H   -2.0642397429   -3.6402694349   -0.8853641649
 H   -2.0506935562   -3.6632431031    1.6449943117
 H   -0.6657129983   -2.7603375828    0.9808433464
 H   -2.9659696016    0.3809669894    2.7330445881