22

 C   -0.0539832251    1.5340754624    0.0634277501
 C    0.0402273901    0.0260904005    0.0763609860
 C    0.8636976517   -0.7974312837   -0.9859700716
 C    0.7104057378   -1.9169595959    0.0941587632
 C    1.5345709557   -3.1780657208    0.1291264740
 C    0.8671301047   -0.7631102910    1.1283064535
 N   -0.7671739843   -2.1839503209   -0.0631975522
 C   -1.6289143455   -1.7600947498    1.0561100010
 C   -1.2662487637   -0.7859610082   -0.0052315308
 H    0.9390581942    1.9946041733    0.0467692060
 H   -0.6005998190    1.8882972727   -0.8183919518
 H   -0.5811618768    1.9050557757    0.9497106177
 H    0.3956449871   -0.9892044979   -1.9552608771
 H    1.8901088180   -0.4416614442   -1.1087831410
 H    2.6044324723   -2.9485422385    0.1521949089
 H    1.2965715612   -3.7735111187    1.0175422468
 H    1.3282356006   -3.7953995871   -0.7505906797
 H    1.9005799153   -0.4112689886    1.1625856370
 H    0.4993261885   -0.8715560523    2.1499522147
 H   -2.6183569903   -2.2084895816    1.0168962236
 H   -1.2307670830   -1.6718900935    2.0602625928
 H   -2.0021968094   -0.4859307119   -0.7488595310