15

 O   -0.0451950437    0.1146361012   -0.7950446136
 C   -0.0798214234    1.1707678029   -0.2500803172
 C   -1.1678010241    1.9861818901    0.4787988106
 C   -0.1994788362    3.1999399067    0.5712013172
 C    0.6552611062    3.2778145119    1.8526258183
 N    1.5051556980    2.1750060539    1.3415150383
 C    0.9633781729    2.3168693103   -0.0379545179
 C    1.8647615006    2.7227111476   -1.0874813145
 N    2.5881095033    3.0424212673   -1.9320783243
 H   -2.0429446438    2.1493871215   -0.1567869314
 H   -1.5026090885    1.5632623782    1.4295152493
 H   -0.5295929731    4.1233709327    0.1036118352
 H    1.1754402413    4.2390564320    1.9450141579
 H    0.1521255896    3.0516090393    2.7986296475
 H    2.5083451109    2.2830736245    1.4244774346