17

 O    0.2018364122    1.1307359152    0.6666372982
 C   -0.0126789382    0.0631047037   -0.2461507650
 C   -1.3515715894   -0.5149572847   -0.1774738202
 C   -2.4774001694   -0.9461201903   -0.1185158165
 C   -3.8018537337   -1.4460034892   -0.0493417099
 C   -4.5753192883   -1.7290224086    1.2129253070
 C   -4.3843905606   -2.8375775415    0.2096460878
 C   -5.2389320518   -2.5576228873   -1.0175652738
 O   -4.7182082522   -1.2055960471   -1.1327163113
 H   -0.5159908939    1.7610901802    0.5450383147
 H    0.1865294187    0.3740169297   -1.2844468695
 H    0.7377104352   -0.6959335024    0.0027497487
 H   -3.9771805141   -1.8168545404    2.1133907308
 H   -5.5451989334   -1.2544376382    1.3357262195
 H   -3.8705981054   -3.7611873444    0.4364812416
 H   -4.9577274143   -3.1519269248   -1.8937942701
 H   -6.3275089713   -2.5730633900   -0.8900626219