25

 C    0.1116670569    1.6173346043    0.0586122886
 C   -0.0785121574    0.0991190467    0.0259417172
 C    0.7912456982   -0.5836321925   -1.0294974072
 C    0.6656977022   -2.1020736671   -1.0547783374
 O    0.0602045869   -2.7073990461   -0.1979836041
 C    1.3308648109   -2.8090444139   -2.2318846137
 C    1.4899802500   -4.3269990788   -2.0682097506
 C    1.8417750165   -4.9838617797   -3.4088943520
 C    2.5320423717   -4.6671048375   -0.9940169304
 H    1.1501586965    1.8847893389    0.2849572272
 H   -0.1426488119    2.0742005476   -0.9046358986
 H   -0.5229922844    2.0783897130    0.8215770995
 H    0.1493864677   -0.3340841473    1.0050529313
 H   -1.1297181082   -0.1439400621   -0.1659206573
 H    0.5749432281   -0.1976840430   -2.0357887030
 H    1.8545503399   -0.3516091084   -0.8639257512
 H    0.7080536698   -2.5848561096   -3.1115161187
 H    2.2979848985   -2.3298576366   -2.4392081934
 H    0.5221464835   -4.7149955301   -1.7299571957
 H    2.7985187814   -4.6106575632   -3.7945427390
 H    1.9316037513   -6.0697961852   -3.3015201328
 H    1.0776159556   -4.7846266543   -4.1682112537
 H    2.2574293629   -4.2357469119   -0.0282391475
 H    2.6197991228   -5.7507424383   -0.8646919375
 H    3.5225288606   -4.2867283351   -1.2740000702