26

 C    0.0457006052    1.5618422439    0.0129456992
 C   -0.0646696653    0.0545999630   -0.2320716000
 C   -1.4248385755   -0.5249560203    0.1712109793
 C   -1.5433597785   -2.0328534263   -0.0714848893
 C   -2.9043141758   -2.6100236441    0.3436630892
 C   -2.9943073271   -4.1134985805    0.1710744285
 C   -4.3061204127   -4.8021493783   -0.0007267420
 N   -3.3365545895   -4.7814855658   -1.0897145114
 C   -3.6711733398   -4.0011593662   -2.2702483988
 H    1.0272443530    1.9453572844   -0.2828882098
 H   -0.7117046444    2.1123326051   -0.5564673094
 H   -0.1002131627    1.8025770698    1.0719956105
 H    0.1188106864   -0.1589961760   -1.2934746900
 H    0.7278641548   -0.4662599064    0.3215272645
 H   -1.6091387046   -0.3120366416    1.2338405627
 H   -2.2190401687   -0.0029962878   -0.3813810304
 H   -1.3625686929   -2.2479508049   -1.1328393506
 H   -0.7491510049   -2.5548702239    0.4800925309
 H   -3.0836934851   -2.3809139900    1.4033069874
 H   -3.7064147940   -2.1073706556   -0.2087195944
 H   -2.2178568573   -4.6517156952    0.7165986493
 H   -4.5012267502   -5.7702370333    0.4544522138
 H   -5.1840085104   -4.1613351660   -0.0918300771
 H   -4.2484005415   -3.0843830953   -2.0723570612
 H   -2.7526225991   -3.7217835454   -2.7969467796
 H   -4.2657360994   -4.6280210335   -2.9430665814