15

 O    0.0031085831    0.4117974495   -1.1115647477
 C    0.0391544949    1.3217877548   -0.3186208051
 C   -1.2289717943    1.8391538648    0.3530502933
 N   -1.1030575769    3.2211997475    0.7910745521
 C    0.0416233938    3.8052419729    1.2792874716
 O    0.0281594213    4.7638108896    2.0136657463
 N    1.2807614423    3.2633936959    0.8122422761
 C    1.7654528485    2.0619077066    1.4717566570
 C    1.3065288737    2.0166168094    0.0405352829
 H   -2.0398888202    1.7471734539   -0.3744667285
 H   -1.4699721311    1.1592684297    1.1867661350
 H   -1.9375415394    3.6576793311    1.1573724013
 H    2.8308175223    2.0264601117    1.6772292482
 H    1.1349971071    1.5995108319    2.2281320150
 H    2.0667669949    1.9737686809   -0.7340686374