19

 C   -0.0296968348   -1.1959860102    0.0575918781
 C   -0.0251583627    0.0083685721    0.0266871769
 C    0.0058932512    1.4235763099   -0.0086783889
 C   -0.7205091205    2.4839506487    0.8335541624
 C    0.5875216743    3.2378136180    1.0656015768
 C    1.2527264433    2.3704572931   -0.0515201192
 C    1.1779196156    3.0659989789   -1.4149624059
 C   -0.3430200547    3.3090217845   -1.6271056466
 C   -1.0135699770    2.3488402935   -0.6455089268
 H   -0.0381024656   -2.2568877931    0.0838548482
 H   -1.4960671462    2.3112757525    1.5706704320
 H    0.5866340172    4.3238092099    0.9165177752
 H    1.0036967042    3.0161568845    2.0512574618
 H    2.2193489367    1.9326641110    0.1934503125
 H    1.7611919461    3.9921594561   -1.4404675797
 H    1.5721217413    2.4042648080   -2.1940848726
 H   -0.6220220543    4.3484120495   -1.4227458617
 H   -0.6477819127    3.0941008035   -2.6551970930
 H   -1.9824699814    1.9264374794   -0.8862333995