20

 C   -0.2369314748    1.5222666114    0.1569940322
 C   -0.0052315954    0.0205298178    0.0502338028
 C   -1.2322323008   -0.7185795366   -0.4679214939
 O    1.1520454441   -0.2561640845   -0.8008264333
 C    1.8811188195   -0.8800478985    0.2750592333
 C    0.7275674254   -0.6357633838    1.2364913271
 C    0.7858206458   -0.2065910304    2.6690819816
 C    0.1904491643   -1.5469604212    2.2953211367
 H    0.6615256850    2.0278751608    0.5199265357
 H   -0.4912472582    1.9328689977   -0.8255387532
 H   -1.0622248129    1.7456078765    0.8420984571
 H   -1.5029075871   -0.3451572688   -1.4608625930
 H   -1.0346259214   -1.7907822127   -0.5448577412
 H   -2.0909017199   -0.5701475440    0.1961663469
 H    2.1136473515   -1.9320286267    0.0601804416
 H    2.8163853079   -0.3499854601    0.5013676297
 H    1.7552094889   -0.1920459183    3.1579352668
 H    0.1105805496    0.5756497689    3.0010999116
 H   -0.8853346222   -1.6664757765    2.3758887683
 H    0.7547298105   -2.4444494312    2.5298526432