12

 O    0.0226255355    0.0261354762    0.0309653624
 C   -0.0135062772    1.2080114817    0.0115467206
 O   -1.1529495382    1.9643868829    0.0398346820
 C   -0.8267009024    3.3289303791    0.0495341645
 C   -0.0517360308    3.8404197067    1.2278086915
 C    0.6833060755    3.3742562448   -0.0166123699
 O    1.0899163353    2.0242321196   -0.0135719747
 C    1.4627333666    4.2473739214   -0.8427571938
 N    2.0714503926    4.9844248950   -1.4922326815
 H   -1.4912345365    3.9449341441   -0.5404497170
 H   -0.0782502554    4.9110383869    1.3949114730
 H    0.0377040251    3.2194936317    2.1125489529