23

 C    0.0178915452    1.4773349836    0.0625903253
 C   -0.0049240707    0.0215561680    0.0214250684
 C   -0.0214763021   -1.1828297134   -0.0015677951
 C   -0.0474297098   -2.6452208191   -0.0620082271
 C   -1.4961732200   -3.1650747149   -0.1510898821
 C    0.8475462401   -3.1531594325   -1.2221758006
 C    1.0472262972   -4.6544248953   -1.2421883985
 C    0.1593282909   -5.5612330350   -2.0612093163
 C    1.5893070832   -5.3267873671   -2.4784643266
 H    1.0441622981    1.8614932079    0.0529059995
 H   -0.5036914622    1.9102293148   -0.7984733745
 H   -0.4680268028    1.8591071207    0.9676115537
 H    0.3870054909   -3.0296093220    0.8730785762
 H   -2.0901820303   -2.7943888413    0.6885179147
 H   -1.9709884511   -2.8219435380   -1.0759636315
 H   -1.5169976970   -4.2575252992   -0.1374115566
 H    0.4154994127   -2.8223244533   -2.1753881846
 H    1.8220591747   -2.6572608501   -1.1386764700
 H    1.3950766467   -5.0676891787   -0.2974392534
 H   -0.1075103210   -6.5314571369   -1.6562460906
 H   -0.6223597914   -5.1006248469   -2.6563673114
 H    1.7661239012   -4.7071524279   -3.3519275227
 H    2.3021145375   -6.1351043834   -2.3581164360