17

 N   -0.3093875467   -1.1407090556   -0.1822424962
 C   -0.1085214218   -0.0083832035   -0.0836334653
 C    0.0692809109    1.4339240114    0.0410834538
 C    1.5175977178    1.8813696413    0.0559062994
 N    2.4798120374    1.0651061530    0.0483634744
 C    3.8437197207    1.5835095118    0.0107877526
 C    3.9181928797    3.0416365810   -0.4533028811
 C    2.8423503030    3.8357170576    0.2743087364
 O    1.5476741375    3.2407623051    0.0797710413
 H   -0.4461156260    1.9384955045   -0.7846090962
 H   -0.4207177826    1.7831465751    0.9578776922
 H    4.2804637014    1.4737666311    1.0124360443
 H    4.4297146322    0.9346243591   -0.6482180087
 H    4.9031225682    3.4756971107   -0.2546974464
 H    3.7418767964    3.1012083146   -1.5331183879
 H    3.0452303125    3.8715002062    1.3525627970
 H    2.7518380495    4.8599439567   -0.0936609897