17

 C   -0.0630647063    1.5035399903    0.0729166256
 C   -0.0138188021    0.0522956302   -0.0260542217
 C    0.0289582488   -1.1483293066   -0.0944021069
 C    0.0514755142   -2.6030273470   -0.1799877023
 C   -1.3434218440   -3.2318846415   -0.0304431259
 C   -1.4320108824   -4.7645668865    0.0928185582
 O   -2.0128784758   -4.6363498750    1.4288174092
 C   -1.9429261087   -3.2625409864    1.3833660970
 O   -2.2650965552   -2.4935201421    2.2279156877
 H    0.8723446953    1.9048627912    0.4779251778
 H   -0.2264913357    1.9665268503   -0.9064292969
 H   -0.8754140572    1.8249284150    0.7336703732
 H    0.4672811673   -2.9155215394   -1.1471484926
 H    0.7188152491   -3.0177938409    0.5871070065
 H   -2.0340643006   -2.7999475966   -0.7583539133
 H   -2.1217858913   -5.2722464906   -0.5840422092
 H   -0.4774456455   -5.2953141944    0.1362872234