17

 C    0.0800756380    1.5667109750    0.4427399605
 C   -0.1038476386    0.3625801315   -0.4780581543
 N   -1.5151477260    0.0073338483   -0.5617161658
 C   -1.8874477706   -0.9819071807   -1.2882485392
 C   -3.2789972713   -1.3685227165   -1.3990118343
 C   -3.6121815469   -2.4102948000   -2.1724101052
 O   -2.7321100541   -3.1571281438   -2.8823545268
 N   -1.3770838597   -2.8518616499   -2.8301024527
 C   -1.0185009460   -1.8576249634   -2.0976091213
 H    1.1358954806    1.8459814996    0.5161190098
 H   -0.4820903640    2.4255902638    0.0649560334
 H   -0.2909530897    1.3400929411    1.4464468495
 H    0.3014016812    0.6013461376   -1.4743299973
 H    0.4922673797   -0.4816254765   -0.0962531071
 H   -4.0340884177   -0.8137983094   -0.8576015956
 H   -4.6194248411   -2.7801563557   -2.3234593888
 H    0.0543247863   -1.6938649510   -2.1174915647