18

 C   -0.1464237142    1.5138718868    0.1318337889
 C    0.0470595828   -0.0069743773    0.1047904132
 C    0.7022584324   -0.4968498863   -1.1785197876
 O    2.0102335286    0.0207008534   -1.3655890343
 C    0.7226705084   -2.0115588532   -1.4632251268
 N   -0.6747945607   -2.4367541797   -1.5059758630
 C   -0.0519818449   -1.8674851939   -2.7516329994
 C   -0.0504775016   -0.3760669596   -2.5602727784
 O   -0.2374794943    0.5679008568   -3.2752863135
 H    0.8150203205    2.0353908682    0.0805902635
 H   -0.7609468445    1.8528492733   -0.7079267043
 H   -0.6377887809    1.8246757453    1.0580511235
 H    0.6816654137   -0.3165685946    0.9452391102
 H   -0.9141614385   -0.5172321459    0.2157372210
 H    1.9213679580    0.9021861012   -1.7464765489
 H    1.5465728906   -2.6833938545   -1.2617235575
 H   -0.6937156586   -3.4470936222   -1.6445260528
 H   -0.0177854868   -2.4436715779   -3.6673841639