18

 C    0.0012379704    1.4359158988    0.0096417880
 C    1.3657182596    0.7364846309    0.0616997422
 C    2.2174746520    0.2567919613   -1.1065012727
 N    1.5088561175   -0.8902879289   -1.7269298033
 C    0.9028043407   -1.9704669507   -0.8809339098
 C    0.8011328110   -1.9927211228    0.6616276128
 O   -0.1588839334   -0.9740245683    1.0228819737
 C    0.0766237604   -0.0437084467   -0.0001918175
 C    0.1080015668   -0.8051894121   -1.3204164668
 H   -0.2813788049    1.9501573290    0.9222248641
 H   -0.3441618266    1.9184047628   -0.9009538789
 H    1.8396860687    0.7943084912    1.0355239355
 H    2.3545024153    0.9979806802   -1.9030156041
 H    3.2140052250   -0.0433753056   -0.7661733326
 H    0.8873957168   -2.9247021769   -1.3955922376
 H    0.4168916452   -2.9578457945    1.0021679913
 H    1.7601161948   -1.7956912950    1.1587313523
 H   -0.6912520092   -0.7807213227   -2.0538690566