21

 C    0.4582785593    1.4677851476    0.1968310856
 C   -0.1032791921    0.0739435764   -0.1140257652
 C    0.4396179959   -0.5060993552   -1.3963595472
 C    0.1046734993    0.1080644470   -2.7523439888
 C    0.6665965241   -0.8990785306   -3.7782065637
 C    0.6666644130   -2.2809500450   -3.0702618834
 O    1.6908220603   -3.1543416038   -3.5088956234
 C    0.7500574041   -1.9262320330   -1.5969278089
 O    1.8056159298   -0.9784103821   -1.3372735650
 H    1.5500308039    1.4353764571    0.2598591619
 H    0.1859433632    2.1941897142   -0.5755088916
 H    0.0728713510    1.8379818066    1.1511695649
 H    0.1387850937   -0.6103288138    0.7061127203
 H   -1.1979479362    0.1172736359   -0.1819689057
 H   -0.9856312303    0.1977318055   -2.8349207775
 H    0.5224397129    1.1119300796   -2.8762925801
 H    0.1043301066   -0.9163242870   -4.7140892831
 H    1.7013029299   -0.6448096940   -4.0232965719
 H   -0.2712882553   -2.8177218773   -3.2571676998
 H    2.5268828622   -2.7487713631   -3.2493469127
 H    0.6042223848   -2.6849997249   -0.8316025649