23

 C    0.1021317300    1.4730740457    0.0187837981
 C   -0.0086307253   -0.0533937494    0.0317630061
 C   -1.4537328496   -0.5321483408    0.0104479676
 O   -1.4674677827   -1.9442301592    0.0240429990
 C   -2.7694570134   -2.4877858580    0.0059861451
 C   -2.6418492661   -4.0035555738    0.0228289271
 C   -3.9825257708   -4.7200149105    0.0060893320
 C   -3.9345325283   -6.2376980839    0.0217976582
 O   -5.0302402310   -4.1135339200   -0.0184210706
 H    1.1484257794    1.7914333106    0.0344187921
 H   -0.3610073748    1.8998046093   -0.8777813748
 H   -0.3926931832    1.9171325434    0.8896367046
 H    0.5120673518   -0.4800520021   -0.8333062233
 H    0.4804507613   -0.4628199985    0.9232104356
 H   -2.0022868490   -0.1356934523    0.8829873232
 H   -1.9703969730   -0.1530697887   -0.8888695502
 H   -3.3522041403   -2.1456656954    0.8752514233
 H   -3.3206479007   -2.1625865856   -0.8899475763
 H   -2.0462868701   -4.3406897716   -0.8358103437
 H   -2.0769926472   -4.3238439030    0.9082480532
 H   -3.4078998501   -6.5936709087    0.9143989677
 H   -4.9479419353   -6.6403350831    0.0076969044
 H   -3.3765836916   -6.6108931244   -0.8443517883