17

 O   -0.2680505918    0.1901893974    0.3451499727
 C    0.1316364698    1.2708151926    0.0045382211
 C    1.5500652207    1.5414616520   -0.4781272138
 N    1.6008820558    2.5621262186   -1.5022754292
 C    2.1454387332    3.7946231374   -1.2764923259
 O    2.6216116812    4.1225850550   -0.2003847891
 C    2.1264867827    4.7302088953   -2.4478109840
 C    1.7538371414    6.1476382226   -2.1551505844
 N    3.1382836920    5.7951497825   -2.4498884920
 H   -0.5172102273    2.1764472475    0.0224782027
 H    2.1275426707    1.9291930552    0.3703904744
 H    2.0037245548    0.6019443000   -0.8084733906
 H    1.2514039497    2.3471286519   -2.4221051605
 H    1.8966661150    4.3075480699   -3.4228203281
 H    1.2450788416    6.7251737474   -2.9213824843
 H    1.4856782067    6.3775871189   -1.1283416136
 H    3.6437356337    5.7172373759   -1.5664609353