16

 C   -0.4613759645    1.3865808655    0.0277939128
 N    0.0004759545    0.0029855258    0.0071010245
 C    0.2825981604   -0.6423596495   -1.1654270481
 C    0.7123885165   -1.9191956610   -1.2401188338
 C    0.8984756681   -2.6863448463   -0.0225017924
 O    1.2767350942   -3.8374100217    0.0689604498
 N    0.5872982770   -1.9516070438    1.1373318556
 C    0.1447938974   -0.6406311841    1.2399132862
 N   -0.1306815084    0.0040308092    2.3086816183
 H    0.2309046941    2.0097398033    0.5985686675
 H   -0.5247390411    1.7465740935   -0.9998776552
 H   -1.4409888310    1.4527608406    0.5066044592
 H    0.1327496367   -0.0403812720   -2.0543377315
 H    0.9241232172   -2.3923636566   -2.1870518926
 H    0.7089323784   -2.4641044809    1.9992235072
 H    0.0123786904   -0.5671582320    3.1379557624