21

 C    0.2214286805    1.6231069858    0.6520013171
 C    1.3233693402    0.8154803806    0.0216057173
 C    2.3056717958    0.1189467736    0.9600017776
 C    1.4534223714   -0.7537841977    1.9140906424
 C    1.0987707905   -0.1708060519    3.3074750985
 C   -0.4479311931   -0.2133504942    3.3798998134
 O   -0.9066884707   -0.9645621944    2.2620691720
 C    0.0675913039   -0.9279687818    1.2299073127
 C   -0.0476583226    0.2014433905    0.2132395701
 H    0.2793656170    1.8713867101    1.7047409896
 H   -0.2305315728    2.4035339924    0.0490671811
 H    1.6751421939    1.1065009622   -0.9622440695
 H    2.9736484202   -0.5192788444    0.3711536495
 H    2.9449230715    0.8245505792    1.5033936773
 H    1.9267167562   -1.7279050240    2.0516105206
 H    1.5452048974   -0.7702360084    4.1044251701
 H    1.4750538300    0.8486880488    3.4299289675
 H   -0.8151613701   -0.7122220549    4.2828392333
 H   -0.8757991898    0.7985422436    3.3655348179
 H   -0.0185896924   -1.8841862231    0.7020807748
 H   -0.7201328470    0.0556251680   -0.6247378132