18

 C   -0.0546541529    1.5740548968    0.0476310467
 C   -0.0014521797    0.0732193977    0.0728340408
 C   -1.2328149937   -0.8412125384   -0.0637776878
 C   -0.6080436406   -1.8343651768    0.9643669931
 C    0.6161230348   -0.9224188412    1.0750490043
 C    1.2186430079   -0.7322433602   -0.3094937666
 O    1.1158427760   -1.6963012480   -1.3169309402
 C    2.4776858122   -0.0129301167   -0.3230896801
 N    3.4989375553    0.5304571777   -0.3393033385
 H    0.9152076971    2.0203228043    0.2832556741
 H   -0.3560702847    1.9332669926   -0.9432090727
 H   -0.7861549420    1.9443858952    0.7735890851
 H   -2.1322760966   -0.3558938390    0.3212716488
 H   -1.4308480738   -1.2270049054   -1.0652291732
 H   -1.1724653693   -1.8828312029    1.8971910977
 H   -0.4183101271   -2.8505776753    0.6103530043
 H    1.2121099770   -0.7380996946    1.9618484943
 H    1.7490721901   -2.3997353659   -1.1316365100