17

 C   -0.1166006576    1.5149097223    0.0071264891
 N    0.1916780173    0.0866798071    0.0455357751
 C    1.3210096724   -0.6635688487   -0.3875968970
 C    2.7357913488   -0.1986923231    0.0918845286
 C    2.7428096027    1.0421036246    0.9437698208
 C    2.2644026703   -0.2509822248    1.5344491761
 C    0.8341913840   -0.7051012101    1.0534254290
 C    0.1018460167   -1.7189012580    1.7492381938
 N   -0.4616615591   -2.5386012283    2.3410047961
 H    0.5380494670    2.0474076448   -0.6891348867
 H   -1.1488695559    1.6382328797   -0.3369943963
 H   -0.0350290191    1.9718144998    0.9973602002
 H    1.1923651028   -1.4238157883   -1.1511644371
 H    3.6382744473   -0.6265472053   -0.3228344544
 H    3.7357368268    1.3255758519    1.2819669863
 H    2.0963344640    1.8872092159    0.7654420894
 H    2.7431704316   -0.7348827096    2.3746179571