23

 C   -0.4108473477    1.5316324985    0.3484754810
 C   -0.1573876871    0.0280858798    0.2147632420
 C   -1.3768930965   -0.7495166042    0.7150812792
 C    0.2833667096   -0.4775170437   -1.1767857030
 C    1.6070208973    0.0911479902   -1.5983702798
 C    1.5840505890   -1.0358365388   -0.6063054249
 C    1.2201089534   -0.5558907495    0.8025777922
 C    2.1746777739    0.4005605455    1.5099194623
 O    1.0441270788   -1.7218998841    1.5975978256
 H    0.4064601081    2.1373121299   -0.0510255342
 H   -1.3209441017    1.8130948071   -0.1936109940
 H   -0.5533281595    1.8170945826    1.3974437436
 H   -2.2587548759   -0.4752956458    0.1247555076
 H   -1.2261942767   -1.8271538052    0.6359025167
 H   -1.6013923136   -0.5144039925    1.7623537253
 H   -0.3901260689   -0.9382791384   -1.8911583117
 H    1.9314127092   -0.1891851210   -2.5957711103
 H    1.9130468751    1.0931070292   -1.3109161973
 H    2.0626788783   -1.9898694357   -0.7908260559
 H    2.4257806566    1.2705814327    0.8993227521
 H    1.7329738812    0.7733408380    2.4431947247
 H    3.1012190199   -0.1256842152    1.7590565805
 H    0.7475664069   -1.4456435293    2.4714320283