17

 N    0.0040286883    1.3282896914   -0.0743223246
 C    0.0379865020    0.0578236105    0.0195455828
 C    1.2666505633   -0.7597740312    0.0751477445
 C    1.2661505504   -2.0946058546    0.1219850431
 C   -0.0147315299   -2.8747016790    0.2117649666
 C   -1.1279677311   -1.9744001559    0.7502812827
 N   -1.1656783987   -0.6906124718    0.0489561817
 C   -2.3395739780   -0.2976240978   -0.5825286025
 O   -2.5153531489    0.6782395047   -1.2601654751
 H    0.9566167607    1.6923715984   -0.1243642200
 H    2.1961471756   -0.1999654316    0.0355955383
 H    2.2034119778   -2.6430658980    0.0945537154
 H   -0.2808399663   -3.2753740744   -0.7767574905
 H    0.1078130888   -3.7404203957    0.8725134780
 H   -2.1066167988   -2.4483054154    0.6429948537
 H   -0.9621609379   -1.7997941820    1.8210985697
 H   -3.1346302175   -1.0496830475   -0.3955984539