21

 C   -0.0607727809    1.4945773624   -0.0507683860
 C    0.0217034965   -0.0041009873    0.0318420579
 C   -0.8210541414   -0.8117705737    0.9868125916
 C    0.6943969367   -0.8117109574    1.1159808907
 C    1.5408738763   -1.8607634457    0.4144305708
 C    2.9200792017   -2.1223735533    0.9729943642
 C    0.8297602031   -2.9289032213   -0.3999644006
 C    1.2621819032   -1.6380893815   -1.0521961321
 O    0.3235046348   -0.6043614533   -1.2171012524
 H    0.8844270330    1.9190771629   -0.4045766125
 H   -0.8504192038    1.7997827920   -0.7456475572
 H   -0.2902728356    1.9219107228    0.9294876358
 H   -1.3688866219   -0.2602008130    1.7446825525
 H   -1.3352273968   -1.6933156752    0.6251043219
 H    1.1360855152   -0.3333969527    1.9832972590
 H    2.8677671202   -2.6417929829    1.9369273415
 H    3.5080253903   -2.7477580390    0.2941742610
 H    3.4711038229   -1.1872183430    1.1261387963
 H    1.4096919679   -3.8135595019   -0.6460357829
 H   -0.2260511640   -3.1203401718   -0.2539941289
 H    2.0239944326   -1.6427155171   -1.8258380504