23

 C   -1.1761000615    0.2034692118   -1.5104179913
 C   -0.6111512744   -0.4307328684   -0.2424860628
 O    0.7245228540   -0.9042815043   -0.3644766030
 C    0.8922204477   -2.1819938573   -0.9447698220
 C    1.2364586116   -2.1570581633   -2.4274872961
 C    2.3701495043   -1.2183983967   -2.8068092741
 C    2.6773609911   -1.1296553154   -4.3026769032
 C    0.9069653187   -3.3579117873   -3.2103403753
 O    0.1041398004   -2.1782830213   -3.3159981860
 H   -0.5358339336    1.0259353841   -1.8446426452
 H   -1.2573847772   -0.5255015688   -2.3197898743
 H   -2.1731680667    0.6098992964   -1.3064505162
 H   -0.5762771965    0.3104217590    0.5637490555
 H   -1.2639548500   -1.2509925716    0.0953696176
 H    1.7262467173   -2.6572239586   -0.4097738234
 H   -0.0033287678   -2.8019271198   -0.7957496669
 H    2.1074588639   -0.2287246123   -2.4181991818
 H    3.2645089187   -1.5272816229   -2.2497987804
 H    3.3933750056   -0.3260836226   -4.4966881141
 H    3.1155243642   -2.0558402400   -4.6883565895
 H    1.7666553081   -0.9228836900   -4.8706862519
 H    1.4837045704   -3.6089122409   -4.0977748601
 H    0.4265183416   -4.2059437398   -2.7220493252