20

 C   -0.2856717024    1.5524015968   -0.2133163243
 C    0.1361038383    0.0871564688   -0.0069480625
 C    0.9231219166   -0.4680781290   -1.1439886921
 C    2.1933998092   -0.9397629064   -1.2570399040
 C    2.3678043760   -1.3339670139   -2.6288984033
 N    3.5699831584   -1.8065638768   -3.1865670585
 C    1.1843168459   -1.0731055920   -3.2569017372
 C    0.7059370943   -1.2289633745   -4.6544981512
 O    0.2976248858   -0.5344286748   -2.3501876128
 H    0.5905910663    2.1998572076   -0.3150711291
 H   -0.8871026705    1.6560658086   -1.1204683799
 H   -0.8796813292    1.9086426487    0.6339360231
 H    0.7428348144   -0.0062364317    0.8995277176
 H   -0.7614218509   -0.5255332983    0.1524410554
 H    2.9281224099   -0.9990769849   -0.4682183562
 H    4.0297833082   -2.4797178759   -2.5853561393
 H    3.4366034217   -2.2265277529   -4.0981836133
 H    1.4033195657   -1.8477816230   -5.2277713474
 H   -0.2749324577   -1.7168737408   -4.6876485610
 H    0.6122897700   -0.2696525157   -5.1802122638