17

 C    0.1504142861    1.4000360267    0.1798823276
 O   -0.1164126776    0.0220548921   -0.0227467951
 C    0.5566907066   -0.5470110680   -1.1135917458
 C    2.0117050358   -0.6515028308   -0.8543332102
 N    3.1432262764   -0.7533690808   -0.6416982213
 C   -0.0415378189   -1.9746359983   -1.3410760309
 N    0.0305608326   -2.8449317815   -0.1730007362
 C   -1.4229839134   -1.8368484839   -1.8051944982
 C   -2.5489354643   -1.7050407760   -2.2006001333
 H    1.2110623953    1.5777033370    0.4021690404
 H   -0.1346272743    1.9934356866   -0.7003192218
 H   -0.4528132749    1.7122298140    1.0340211929
 H    0.4165323323    0.0529344276   -2.0262391250
 H    0.5512088545   -2.4374261549   -2.1402637487
 H    1.0034632173   -2.9938243709    0.0812362585
 H   -0.4190817447   -2.3816451483    0.6113320812
 H   -3.5481954189   -1.6046107206   -2.5464167243