20

 C    0.0670633294    1.5217180619    0.0259748285
 C   -0.0065665836    0.0144427356   -0.0392164094
 C   -0.8811197537   -0.7762232263    0.8778282467
 N    0.5744622650   -0.7756384779    1.0745256115
 C    1.2711115158   -1.9311868351    0.4645657874
 C    1.0425523180   -1.8138910402   -1.0243665863
 C    0.3462294048   -0.7125758798   -1.3067688499
 C   -0.0818948318   -0.2228670843   -2.6513085144
 O    0.3761464711   -1.1152484881   -3.6503054273
 H    1.0491349547    1.8832495204   -0.2980879584
 H   -0.6935858182    1.9842613321   -0.6135607570
 H   -0.0981557172    1.8642367666    1.0504097999
 H   -1.4377841233   -0.2775504200    1.6683321883
 H   -1.3539746255   -1.6700931536    0.4753881502
 H    2.3378354494   -1.8836591771    0.7233513963
 H    0.8881475329   -2.8703118608    0.8851185215
 H    1.3832889547   -2.5397608092   -1.7509288245
 H   -1.1828558217   -0.1289766428   -2.6696151759
 H    0.3130794630    0.7956874886   -2.8116238857
 H    0.1108912663   -0.7669818799   -4.5060662316