19

 C    0.5905941556   -0.7273831605    1.2123166032
 C   -0.0309276705   -0.1685307948   -0.0696426873
 C    0.8109885266   -0.4432116347   -1.3596933334
 N    2.1760058960    0.0288091912   -1.3754949358
 C    2.3786418037    1.4371264348   -1.0810487047
 C    0.8168143642   -1.9393005516   -1.6140248662
 O    1.7716205048   -2.6591228294   -1.4635632710
 C   -0.4845126140   -2.5085931984   -2.0299386012
 N   -1.5015538084   -2.9456347376   -2.3646842579
 H    0.6889624588   -1.8172213446    1.1778094432
 H    1.5875703239   -0.3117394832    1.3884574846
 H   -0.0294862879   -0.4781766990    2.0777892059
 H   -1.0387162778   -0.5744867085   -0.2155929910
 H   -0.1530462075    0.9162847572    0.0126386639
 H    0.2651038333    0.0226435291   -2.1944604136
 H    2.7712712156   -0.5769889216   -0.8250067479
 H    1.8233918206    2.0454578336   -1.8045474250
 H    2.0718126938    1.7574583117   -0.0715506460
 H    3.4396244892    1.6736610065   -1.2001394199