22

 C    0.0254806314    1.5936483555    0.0332495452
 C    0.0209750785    0.0814919742    0.0549113938
 C    1.2883810645   -0.7061576438   -0.2114731460
 C    0.6842372947   -0.6794005023    1.1625950962
 C    1.3307218067   -0.1280786084    2.4163812061
 N    0.2266422417    0.0629898556    3.3983420184
 C    0.8263986901   -1.2814329796    3.2089321436
 C    0.1613588779   -1.9088004286    1.9667137574
 C   -1.3346969268   -2.1814232500    2.0194222164
 H    0.9688734860    1.9909172255    0.4222013699
 H   -0.1001298487    1.9777796697   -0.9852801040
 H   -0.7819588710    1.9993641315    0.6516712477
 H   -0.8907389242   -0.3710188749   -0.3296622839
 H    1.2229384764   -1.6251414261   -0.7866205288
 H    2.2059784638   -0.1468033554   -0.3740449913
 H    2.2590316578    0.4234635841    2.5060418351
 H    0.6452651594    0.4525909265    4.2433797409
 H    1.2846175944   -1.8033920808    4.0403628858
 H    0.7122837754   -2.8067299049    1.6648864211
 H   -1.8663075364   -1.3005910645    2.3877678670
 H   -1.7278125831   -2.4341468797    1.0283228530
 H   -1.5561705385   -3.0232458736    2.6850528764