17

 N    0.0283895458   -1.1352035289   -0.0853141721
 C    0.0086231919    0.0211798468   -0.0339988748
 C    0.0167719714    1.4542615654    0.0178672611
 C    0.5321840983    2.1615707717    1.2690221709
 C    1.3470544666    2.1952174001    0.0250727989
 C    2.7080003901    1.5491348684   -0.2649991592
 C    2.8797144158    2.5549840716   -1.4426282589
 C    1.6699640173    3.3747307956   -0.9020533635
 H   -0.8063508978    1.9261536682   -0.5096313319
 H   -0.0036908804    3.0557622871    1.5704041024
 H    0.8671731904    1.5332457650    2.0873396774
 H    3.4258068806    1.7152927132    0.5436995384
 H    2.7000885560    0.4852218054   -0.5130793593
 H    3.8349644221    3.0791704962   -1.5023192371
 H    2.6716065404    2.0972938149   -2.4121739199
 H    0.9009951893    3.6649815612   -1.6227251108
 H    1.9778552423    4.2646093580   -0.3441963616