17

 O   -0.0513599051   -0.0164406049   -0.0940588262
 C   -0.0592384992    1.1667800938    0.0467456672
 C   -1.0416336718    2.3425422485    0.0168799798
 C   -0.8346852075    2.8867316497    1.4768172201
 C    0.7181984632    2.9810996946    1.4099628391
 C    1.9587206382    2.1418300762    1.8873027885
 C    2.4388410366    2.1343490230    0.3730464233
 C    0.9554597706    2.3251067477    0.0741542490
 O   -0.0020732821    2.9769532290   -0.8390324919
 H   -2.0283460739    2.3286075766   -0.4393643579
 H   -1.3012941433    3.8593505579    1.6428632342
 H   -1.2434276198    2.1763882880    2.2021217607
 H    1.0297659311    4.0279975582    1.3531796551
 H    2.6245464807    2.6150449357    2.6091711753
 H    1.7039115400    1.1353314656    2.2254524171
 H    3.0474220279    3.0138823210    0.1518138326
 H    2.9150169145    1.2345777893   -0.0196126061