25

 C   -1.5564332246   -0.1612696862   -0.3089107313
 C   -0.0606063710    0.0724892960   -0.0440416564
 C    0.3283277617   -0.4693421957    1.3341190101
 O   -0.4721586583    0.1950891229    2.3088648490
 C    0.7715985819   -0.5410228648   -1.1874700765
 C    2.2795963618   -0.2298253223   -1.2775715141
 C    2.8322277031   -0.8031166884   -2.5928702191
 C    2.5830672537    1.2725515721   -1.1873478625
 O    2.9005230019   -0.9179540690   -0.1789815709
 H   -1.8715326019    0.3127542721   -1.2444951986
 H   -1.7745707455   -1.2335717175   -0.3887831808
 H   -2.1578948919    0.2442821639    0.5066459208
 H    0.1050941281    1.1571746244   -0.0192978079
 H    0.1545531878   -1.5590049239    1.3555059671
 H    1.3952607853   -0.3069736458    1.5181777627
 H   -0.2069852056   -0.1241331827    3.1756304048
 H    0.6696680076   -1.6339254821   -1.1570792789
 H    0.3199070904   -0.2200018869   -2.1338443403
 H    2.3904707414   -0.3101869947   -3.4648964184
 H    3.9183743980   -0.6620269373   -2.6464658958
 H    2.6259837029   -1.8753457344   -2.6571909751
 H    2.2893868074    1.6774200641   -0.2162243999
 H    3.6572868806    1.4517405818   -1.3169261684
 H    2.0601303288    1.8334416148   -1.9689433893
 H    3.8443377762   -0.7279931601   -0.2106177404