22

 C   -0.3958327979    0.9703426766   -1.6004341519
 C    0.0093184816   -0.2171709882   -0.7522212455
 C    1.4546557594   -0.6183602845   -0.5235748514
 C    2.6264551960    0.1314215845   -1.1223357211
 C    0.6281618783   -0.0711568336    0.6265882441
 C    0.8959370836    1.2568273891    1.2640028095
 C    0.0472410274    1.7155782148    2.4265643326
 C    1.4842343723    1.3165637998    2.6541909789
 H    0.2918568081    1.8140080526   -1.5071617897
 H   -0.4346275682    0.6973227031   -2.6610971027
 H   -1.3907400984    1.3304429388   -1.3156026391
 H   -0.6804658474   -1.0527120577   -0.8496656916
 H    1.6237503499   -1.6923047030   -0.4851421705
 H    2.4642797827    1.2109482199   -1.1636892945
 H    3.5366582016   -0.0371420169   -0.5360260274
 H    2.8251353167   -0.2076354744   -2.1453786349
 H    0.3066365247   -0.8152060662    1.3535034427
 H    1.2209632016    2.0447367968    0.5933462725
 H   -0.2153632342    2.7656522236    2.4949104922
 H   -0.7270136616    1.0422549763    2.7801598851
 H    1.6740217400    0.3755531741    3.1604960118
 H    2.2075816236    2.0928656444    2.8787167411