16

 C    0.0040639761    1.4762295518    0.0268419835
 N    0.0090918198    0.0302931749   -0.0246744707
 C    0.0347455009   -0.7470869665   -1.1797475032
 C    0.0333121778   -2.0686879187   -0.9056384439
 C    0.0036715462   -2.2185999477    0.6028158971
 C   -0.0117905562   -0.7741072946    1.1121610029
 O   -0.0350773124   -0.3708356922    2.2520612706
 C    0.0552939190   -3.1346904576   -1.8212116741
 C    0.0735065049   -4.0800116718   -2.5705289101
 H    0.9036341910    1.8930329206   -0.4388393443
 H   -0.8779189103    1.8880956157   -0.4754283521
 H   -0.0183622202    1.7577058470    1.0808414188
 H    0.0528828732   -0.2656462900   -2.1470103029
 H   -0.8816267013   -2.7510046593    0.9657113945
 H    0.8774805100   -2.7447941870    1.0009251431
 H    0.0896886315   -4.9039657346   -3.2394806593