21

 C    0.1054264801    1.5595283986    0.1188317898
 C   -0.0667719946    0.0384619037    0.0498218452
 C    0.6570220256   -0.5868112667   -1.1350591825
 C    2.2292220468   -0.6294607614   -1.1472862137
 O    2.8515405647   -0.5168221356    0.1168420513
 C    2.1645322952   -2.0759557763   -1.7251674973
 C    0.6895113253   -2.1116730033   -1.3157751139
 C   -0.0313639435   -3.1486980613   -0.5694982344
 O   -0.3133396134   -2.8785889955   -1.9502193143
 H    1.1608435874    1.8217346824    0.2366921267
 H   -0.2652348928    2.0416663720   -0.7925181339
 H   -0.4437134444    1.9816230737    0.9660469070
 H    0.2993452847   -0.4089093026    0.9821783089
 H   -1.1325421191   -0.2157811352   -0.0146729395
 H    0.3064805358   -0.1326618116   -2.0706502185
 H    2.7169569732    0.1164850573   -1.7763072954
 H    2.5238405288   -1.2212545707    0.6859348701
 H    2.2827544465   -2.1025269717   -2.8123100828
 H    2.8463699765   -2.8030262915   -1.2753797359
 H    0.4506645243   -4.1058224760   -0.3708544517
 H   -0.8209397370   -2.8731154282    0.1284237749