17

 C    0.7310984938    1.0448731787   -0.0426565727
 C   -0.2840855788   -0.0605590278    0.1328362522
 O   -0.8086738617   -0.3181338880    1.1904788640
 C   -0.6001683733   -0.9092308966   -1.1069735726
 C    0.0994010309   -2.2553827790   -1.0055186154
 C    0.1263231387   -3.1658264394   -2.2465695973
 C    1.6344145546   -2.9171844903   -2.1991311222
 O    2.6032953458   -3.2312437732   -2.8083478485
 O    1.5658164323   -2.1084606185   -1.0890914895
 H    1.6632129560    0.6165562428   -0.4292954092
 H    0.3798042665    1.7679938456   -0.7880588607
 H    0.9118948008    1.5486711221    0.9072349473
 H   -1.6808493206   -1.0837705011   -1.1280883665
 H   -0.3009630535   -0.4073932545   -2.0327664409
 H   -0.1591467954   -2.7540283628   -0.0688382231
 H   -0.1636520005   -4.2064186374   -2.0938536757
 H   -0.3639363556   -2.7747857507   -3.1401890792