15

 O    0.0524441233    1.4336151935    0.3806430145
 C    0.0275953396    0.0981046298   -0.0603784621
 C   -1.3784781665   -0.4643435644   -0.0964425949
 C   -1.7990775119   -1.3719855690   -1.0189615875
 C   -3.1406487327   -1.9112517282   -0.9782301608
 O   -3.6556462571   -2.7229258883   -1.7198582015
 N   -3.8843333083   -1.3581152195    0.1000253528
 C   -3.3893510106   -0.4500645988    0.9684819686
 N   -2.1809062820    0.0137176795    0.9199254192
 H   -0.6330999829    1.4951768011    1.0604676323
 H    0.4759257559    0.0580020764   -1.0580379001
 H    0.6335525858   -0.5546876348    0.5942409882
 H   -1.1518117706   -1.7200356293   -1.8146652651
 H   -4.8376697220   -1.6866996937    0.1831433989
 H   -4.0690760399   -0.1071688343    1.7449261575