21

 C    0.2589601425    1.4489491449    0.2498002679
 C   -0.0907455529   -0.0039473614   -0.0950474168
 C    0.6063640297   -0.5154531245   -1.3275319712
 C    0.2735399876    0.0446496007   -2.7262776716
 C    1.4057521816   -0.6734902064   -3.5286814247
 C    2.0338954146   -1.4276092152   -2.3479908943
 O    2.0866055369   -0.3987109446   -1.3019241141
 C    0.8265670961   -2.0379774596   -1.5993602716
 O    1.1488427814   -2.7930191322   -0.4648483086
 H    1.3388972373    1.5654629052    0.3751752032
 H   -0.0631996587    2.1395141737   -0.5358889208
 H   -0.2290286875    1.7531745658    1.1802232191
 H    0.1655679925   -0.6615748622    0.7436105636
 H   -1.1723746112   -0.1094484214   -0.2488705820
 H   -0.7329103431   -0.2315890829   -3.0537905571
 H    0.3606955623    1.1324181252   -2.7577733183
 H    1.0332139010   -1.3420286003   -4.3097817936
 H    2.1131821507    0.0264914309   -3.9774233902
 H    2.9713664121   -1.9673510346   -2.4852294323
 H    0.0701369107   -2.5911416187   -2.1626779256
 H    1.8436459064   -2.2993438821   -0.0086368711