17

 O   -0.1218290406    1.4016193630    0.0732256268
 C   -0.0668256627    0.0143808253    0.0322292422
 C   -0.4311336911   -0.6898617672   -1.2695879971
 C   -1.3533271117   -0.7553527082   -0.0761130759
 C   -1.4480023602   -2.0704768726    0.6945117147
 C   -0.3915315160   -2.1372845794    1.7897667061
 O    0.9337226930   -1.7950830717    1.3188341215
 C    1.0875042974   -0.5595963283    0.7929295159
 O    2.1317594993    0.0341688192    0.8861811847
 H    0.8006926487    1.6927982539    0.1104094982
 H   -0.6952260980   -0.0210508606   -2.0803604674
 H    0.1050512320   -1.5893218322   -1.5554287214
 H   -2.2469334026   -0.1429317847   -0.1272353442
 H   -2.4323763092   -2.1720228067    1.1629067782
 H   -1.3321902662   -2.9194079217    0.0118319192
 H   -0.6446684565   -1.4573692042    2.6120257086
 H   -0.2897017257   -3.1442436142    2.1988303198