16

 N    0.0664097315   -1.1500172503   -0.1933376085
 C    0.0239455796   -0.0144082795    0.0132730801
 C   -0.0390855750    1.4325416019    0.2487700244
 N    1.2566983890    2.0545481259    0.0297823563
 C    1.7865211761    2.1718990009   -1.3646767551
 C    1.9740395518    3.6765420497   -1.1555433344
 C    0.6421232890    4.3055783478   -0.8362155076
 C    1.3561097649    3.5012192213    0.2211324721
 H   -0.8518216545    1.8396966301   -0.3798516519
 H   -0.3308712796    1.6015710318    1.2920791739
 H    2.7090561230    1.5988521482   -1.4884353324
 H    1.0799066357    1.8886975415   -2.1560638392
 H    2.8477267540    4.2475440276   -1.4367706775
 H    0.6611211664    5.3794549051   -0.6793327985
 H   -0.2655551532    3.9408453275   -1.3108498081
 H    1.6446437513    3.9085440504    1.1840240163