19

 C    0.0217495978    1.5492234445    0.0105841727
 C   -0.0190493315    0.0486612487    0.0594736341
 C    1.1499731399   -0.8204443076   -0.3307270401
 C    0.5904658493   -0.9468380159    1.0640172789
 C    1.4116668744   -0.7207529471    2.3010493981
 C   -0.6817163996   -1.8047673209    1.0033178103
 C   -1.3001506164   -0.7945549451   -0.0167379778
 H    1.0065760579    1.9325192756    0.2985905572
 H   -0.1897791411    1.9207617974   -1.0001009259
 H   -0.7196618610    1.9931259803    0.6856337631
 H    1.0305831464   -1.6248623135   -1.0554383533
 H    2.1042301036   -0.3051321500   -0.3992768461
 H    2.1353790458    0.0890068054    2.1586518993
 H    0.7811916665   -0.4579075251    3.1588620427
 H    1.9783756394   -1.6203033442    2.5729355163
 H   -0.5503263015   -2.8377904787    0.6620601089
 H   -1.2285044709   -1.8215022217    1.9502122057
 H   -2.1733341617   -0.2784118761    0.3919111260
 H   -1.5617626574   -1.1852041659   -1.0066059800