14

 C   -0.2045707296    1.5259411144    0.0563181836
 C    0.0248677047    0.0440478040   -0.0039432217
 N    0.1015077158   -0.4602921511   -1.1952085811
 O    0.3190775959   -1.8658063082   -1.2515905663
 C    0.4379466391   -2.6245249014   -0.1532945682
 O    0.6222415717   -3.8161327883   -0.2198581263
 C    0.3252793845   -1.8872226037    1.1394548521
 N    0.4468196370   -2.6635944509    2.2213464047
 N    0.1267404857   -0.6046035181    1.2049642155
 H    0.6140172582    2.0039434871    0.6032354183
 H   -0.2710379165    1.9464754982   -0.9469937497
 H   -1.1279667930    1.7341476448    0.6055702186
 H    0.5992862255   -3.6496326799    2.0823603122
 H    0.3860727607   -2.2647978369    3.1427058482