18

 C   -0.0836005041    1.4666958238    0.2944754447
 C    0.0760569617   -0.0234676523    0.1119797769
 O   -1.0814726235   -0.6993163545   -0.3008415454
 C    1.4105577065   -0.6014384936   -0.3401764113
 C    0.9120551849   -0.8276994879    1.0591152216
 O    1.6411112400   -0.1690314731    2.0724585394
 C    1.0756926276   -0.2040638233    3.3144345378
 N    1.8475311853    0.5168605358    4.1826340799
 O    0.0456676267   -0.7673016324    3.5889569782
 H    0.8200764490    1.9140520378    0.7145892617
 H   -0.2906001522    1.9556680288   -0.6649687999
 H   -0.9197220790    1.6716681073    0.9701011064
 H   -1.2573138738   -0.4504960224   -1.2153952455
 H    1.3981536709   -1.4497653281   -1.0150392495
 H    2.2419295319    0.0842007653   -0.4642839215
 H    0.5350106521   -1.8019302769    1.3451455454
 H    2.7913797754    0.7411876132    3.9166743518
 H    1.6553700006    0.3785438626    5.1599372994