16

 N    0.6039223894    0.3800123924   -0.8138344458
 C   -0.0296721916    0.0458726744    0.3403200021
 O    0.2651252407    0.5112875055    1.4270204767
 C   -1.1669345320   -0.9710427540    0.2263189782
 C   -2.2117285716   -0.8018231040   -0.9333099226
 O   -1.2268354543   -1.4161845606   -1.8423370408
 C   -0.9454711996   -2.2488349189   -0.6585939120
 C   -2.2853778862   -2.9790794889   -0.4770837789
 C   -3.1555009227   -1.9847202459   -0.6658270716
 H    1.3558425541    1.0471522345   -0.7695803530
 H    0.3159880761   -0.0376303869   -1.6850790828
 H   -1.5633559021   -1.1276629673    1.2281370341
 H   -2.5978866108    0.1603738797   -1.2648653156
 H   -0.0076649397   -2.7996783171   -0.7029058553
 H   -2.4327212591   -4.0239061155   -0.2495338477
 H   -4.2344422205   -1.9649380575   -0.6403654849