22

 C   -0.2413034981    1.5241021276    0.2662289656
 C    0.2063842691    0.1397593772   -0.1961466228
 N    0.7791598992   -0.5941005789    0.9325347201
 C    0.0049884765   -1.3466653310    1.8869888355
 C   -1.1544371702   -2.1310563524    1.2453642436
 C   -0.0974666952   -2.8886522034    0.3598818351
 C    0.0595034036   -4.3550799135    0.7524389271
 O   -0.1922148551   -2.7534347844   -1.0483395154
 C    1.0142651717   -2.0139019942    0.9730458374
 H    0.5887437648    2.0660091380    0.7287132887
 H   -0.6148456272    2.1106948193   -0.5789160293
 H   -1.0465952575    1.4497559191    1.0053214526
 H   -0.6198673296   -0.3869435186   -0.6864882224
 H    1.0009840783    0.2294955642   -0.9451235093
 H    0.0957605080   -1.1086300859    2.9413366453
 H   -1.6698150019   -2.7925148465    1.9460111191
 H   -1.8967713329   -1.5385394012    0.7041250481
 H   -0.8289724234   -4.9311215273    0.4648913649
 H    0.9287403845   -4.7883886890    0.2472685129
 H    0.1938241779   -4.4681223376    1.8321883560
 H   -0.8606040669   -3.3712693327   -1.3645231299
 H    2.0206332245   -2.3687140187    1.1773270171