21

 C    0.1948747821    1.5222748027    0.0082962904
 C   -0.0452649221    0.0104257535    0.0025284379
 C   -1.5227238443   -0.4464711120    0.0142538761
 C   -2.2466518290    0.0262764791    1.2881854091
 C   -2.2709103126    0.0398266162   -1.2404135855
 N   -1.4679140902   -1.9261921202    0.0057902612
 C   -2.5284450647   -2.7708859628    0.0113002007
 O   -3.7021567841   -2.4543662533    0.0239124809
 H    1.2689587543    1.7304976959   -0.0008952758
 H   -0.2403702859    2.0076912491   -0.8697218705
 H   -0.2233969713    1.9982424525    0.8996354843
 H    0.4358624528   -0.4231402250   -0.8849642824
 H    0.4527442555   -0.4325427627    0.8759533295
 H   -2.3361607227    1.1159029168    1.3006556661
 H   -3.2487563254   -0.4032674384    1.3263066134
 H   -1.6986079427   -0.2853408389    2.1834035007
 H   -1.7401810429   -0.2621310713   -2.1492706980
 H   -3.2736106759   -0.3893801763   -1.2638968612
 H   -2.3605243881    1.1295152774   -1.2394919272
 H   -0.5544504602   -2.3525819414   -0.0052759840
 H   -2.1986554128   -3.8309124111    0.0022058344