21

 C    0.1330480479    1.2232249316    0.3117381678
 O   -0.0231996535   -0.0951773162   -0.1932029545
 C   -1.3027159338   -0.5595592473   -0.1331000812
 C   -2.2228390942   -0.9405431320    1.0092245287
 C   -3.3755175437   -0.1225224155    0.4347472646
 C   -2.6517425525   -0.2292596538   -0.9352251325
 C   -2.7275021800   -1.7431935853   -1.2762968002
 C   -1.7930465372   -1.9730689192   -0.0868959430
 C   -1.0323913080   -3.2152578069    0.2678666625
 H    1.1936734591    1.4712450308    0.2331234450
 H   -0.4492290586    1.9476333069   -0.2741027751
 H   -0.1806709831    1.2850620012    1.3622404886
 H   -1.9702373458   -1.1293854245    2.0452626489
 H   -4.3895070946   -0.5361995936    0.4856809574
 H   -3.3791639413    0.9000392047    0.8238420221
 H   -2.7916556375    0.5250430498   -1.7068065323
 H   -3.7225712796   -2.2048704859   -1.2645991814
 H   -2.2248845322   -1.9788917697   -2.2194535404
 H   -0.4720083917   -3.5953800914   -0.5938119724
 H   -0.3111925855   -3.0199226000    1.0683062245
 H   -1.7028315242   -4.0127240737    0.6090314426