16

 O   -0.0181351393    1.4056068237   -0.2513271876
 C    0.0611565063   -0.0107315440   -0.2028318643
 C   -1.3340018340   -0.5126025859    0.1269480898
 C   -2.3465192213   -0.3824048193   -1.0389730442
 N   -2.0995593036   -1.8066559899   -1.3779276098
 C   -1.5375886052   -2.0543965495   -0.0342440410
 C   -0.3648619778   -2.9324307552    0.0066403803
 N    0.5636052958   -3.6190994778    0.0577327262
 H    0.8418138917    1.7461720657   -0.5140759555
 H    0.3877308651   -0.4321521955   -1.1651455329
 H    0.7705685954   -0.3514773814    0.5667329598
 H   -1.6550910934   -0.1060483515    1.0866427869
 H   -3.3644842311   -0.1674581438   -0.6886453799
 H   -2.0848597646    0.3223575095   -1.8325508496
 H   -2.9106552654   -2.3658876518   -1.6171131459
 H   -2.2621665885   -2.4280678032    0.7032634177