15

 C    0.0282910174   -3.7356514831    0.0091294579
 C    0.0331685140   -2.5273817670    0.0107005489
 C    0.0364166331   -1.1696291751    0.0133128457
 C    0.0569167996    0.0428211081    0.0063136361
 C    0.0521481205    1.4563240977    0.0041846157
 C    0.2613086657    2.3402280809   -1.2002935519
 C    1.1739017182    2.5019540085   -0.0132871405
 C    0.4051116013    3.1405293133    1.1340733373
 O   -0.6755747592    2.1752479008    1.0138337925
 H    0.0260633585   -4.7973200605    0.0071431882
 H    0.7089221771    1.8543112651   -2.0604129037
 H   -0.4996645033    3.0837841605   -1.4212245823
 H    2.2428812790    2.3497746839   -0.0622288724
 H    0.9017047549    3.0386183787    2.1048610857
 H    0.0568374131    4.1705635583    0.9976138629