18

 C   -0.0674915726    1.5282621678    0.0103331612
 C    0.0498924262    0.0297830306   -0.0316513630
 C    0.7712692497   -0.7049184055   -1.1886595866
 C   -0.3759224005   -1.7108816653   -0.9781299383
 C   -0.0558312971   -2.7115856623    0.1300806547
 N    0.4830910687   -1.9631160107    1.2597912200
 C    0.5130720121   -0.5949463921    1.3002686124
 O    0.8802834155    0.0434156526    2.2658203816
 O   -1.1942042322   -0.6599004692   -0.4012276202
 H    0.9023596494    1.9726615991    0.2481955790
 H   -0.4148216247    1.9058922639   -0.9546055314
 H   -0.7709927338    1.8331077780    0.7894534781
 H    0.6691977094   -0.1610890173   -2.1294724019
 H    1.8011123432   -1.0359156914   -1.0410833342
 H   -0.8449644144   -2.1906418786   -1.8403584069
 H   -0.9733515682   -3.2420716190    0.4167248960
 H    0.6700660007   -3.4548328128   -0.2265051146
 H    0.7009367985   -2.4373789778    2.1233460543