15

 O    0.0652767854   -0.0183715645   -0.1944049387
 C    0.1007662171    1.1692769955   -0.2807705220
 O    1.0675810152    1.9088040562    0.3264699836
 C    0.9791922753    3.2923806807    0.1922420011
 C    1.0859682774    4.0443857664   -1.1035043559
 C    2.1153060914    4.2666539748   -0.0118471362
 C    1.5341590820    5.1328636882    1.1534264138
 O    0.1781802368    5.5000167236    0.8467073642
 C    0.4410918074    4.1920311076    1.3618203665
 H   -0.6127899261    1.7924237166   -0.8488273895
 H    1.4605878082    3.4483998078   -1.9299081346
 H    0.3715555583    4.8154093769   -1.3623343823
 H    3.1664728488    4.0544612211   -0.1472820899
 H    2.0847283843    5.7640283421    1.8389302710
 H   -0.0869318617    3.8582139269    2.2469425889