18

 C   -0.0518711598    1.4686407393   -0.0431937474
 C    1.4628164364    1.9474392660    0.0095357140
 C    2.0666126649    0.6427444469    0.4788113234
 N    3.2979111990   -0.2660314495    0.2101098106
 C    2.2271505027   -1.3487661234    0.4880678943
 C    1.9422326061   -1.0580497236    1.9542606730
 C    1.8299990159    0.2678378982    1.9515561499
 C    1.2285138404   -0.3764665087   -0.2582990188
 O   -0.1073750165    0.0114205926   -0.0468231776
 H   -0.6090428756    1.8139490867    0.8328565071
 H   -0.5475424519    1.8488173381   -0.9431267537
 H    1.8105960030    2.2353159651   -0.9861854468
 H    1.5865968867    2.7997096952    0.6821386743
 H    3.4776032029   -0.2667423690   -0.8003105547
 H    2.4442936500   -2.3615798628    0.1523666562
 H    1.8725944253   -1.7779842191    2.7555051850
 H    1.6463035731    0.9673322895    2.7544883158
 H    1.4458551477   -0.4132651215   -1.3377602147