23

 C    0.3510693132    1.5799458915   -0.4013920433
 C    0.0124388516    0.1514056685    0.0420659848
 C    0.3558059722   -0.8769025033   -1.0421607279
 O    1.7497060104   -1.1357468388   -0.9024830461
 C    2.1348318838   -0.9094796016    0.4527399777
 C    0.8875466220   -0.3901749150    1.2025816252
 C    1.1820743144    0.5790924998    2.3482181287
 C    1.9234428198   -0.0761098026    3.5086745557
 O    2.0925998852    0.9037298037    4.5213537747
 H    1.3961445862    1.6622191222   -0.7171301469
 H   -0.2738997018    1.8713824973   -1.2517378512
 H    0.1802154029    2.3058471383    0.3985462985
 H   -1.0485937461    0.0979356355    0.3089259680
 H   -0.2264954947   -1.8026656759   -0.9035216396
 H    0.1812187317   -0.5141969664   -2.0603474112
 H    2.5213188231   -1.8405130059    0.8877733391
 H    2.9499433887   -0.1716957844    0.4681227109
 H    0.3579988808   -1.2583187646    1.6183973568
 H    1.7793669036    1.4260613692    1.9925297658
 H    0.2453031818    0.9948542771    2.7387267189
 H    1.3433003706   -0.9376820267    3.8797245240
 H    2.8964157796   -0.4637901123    3.1657607748
 H    2.5789117013    0.5050508747    5.2487393222