18

 O    0.2448150489    1.2035484781    0.3729181216
 C    0.0409507288   -0.1503057233    0.1294114591
 C   -1.3810943257   -0.6789398988    0.0329624402
 C   -2.5615860443    0.2741231127    0.1031553442
 C   -3.1186745571    0.4817709837   -1.3156671859
 C   -2.0612095936    1.0105639608   -2.2490181009
 N   -2.3037691842    1.8856932880   -3.1273555072
 O   -0.7783173897    0.5253862298   -2.0817308196
 C   -0.5263083870   -0.5535647625   -1.2062157278
 H    0.2949083182    1.6443039440   -0.4850675569
 H    0.7915621282   -0.7911038778    0.5849232457
 H   -1.5453215957   -1.6905857426    0.3900714462
 H   -3.3387265682   -0.1267615665    0.7580850185
 H   -2.2405098788    1.2318876695    0.5248365249
 H   -3.4820651303   -0.4793574415   -1.7025190793
 H   -3.9543051713    1.1823693137   -1.3462817773
 H   -1.4561609161    2.1002354285   -3.6577528415
 H   -0.1567929822   -1.4275952757   -1.7326214239