20

 O    0.7176853482   -0.7419803706   -1.1640283568
 C    0.1552233775   -0.0776685848   -0.0473708758
 C   -1.3328154637   -0.3545115591    0.0530008263
 C   -2.2415120083    0.4135497022    1.0474642802
 C   -3.0578745443    0.8375012426   -0.1776347744
 C   -4.5555241043    0.7912204678   -0.2811362384
 O   -5.1713763891    1.8282269113    0.4703908514
 C   -2.1947716493    1.5743141485   -1.1226896782
 N   -2.1512925930    0.0923523124   -1.1478488049
 H    0.1343847518   -0.5707965637   -1.9129976060
 H    0.6624431077   -0.4651868254    0.8439111358
 H    0.3556468780    1.0057233202   -0.0822888443
 H   -1.4733805110   -1.4357313638    0.1325695648
 H   -2.7808122859   -0.2405859813    1.7343745443
 H   -1.7891754130    1.2271786837    1.6219542597
 H   -4.8460748558    0.8162314417   -1.3426956816
 H   -4.9372313938   -0.1444918304    0.1412032805
 H   -4.8551235034    2.6676016548    0.1196219626
 H   -2.6519073374    1.9788798334   -2.0213262431
 H   -1.3430085310    2.1423301304   -0.7579136421