22

 C   -0.1369780955    1.5453099930    0.1263293125
 C    0.4855902753    0.1780014900   -0.1779129190
 C    0.8885807802   -0.5551539304    1.0827037473
 N   -0.1711287439   -1.2177375031    1.8729906258
 C    0.8925132862   -2.0347565587    1.2600340640
 C    0.4012688835   -3.0252892007    0.2370644327
 O   -0.8419508156   -2.7000300880   -0.3149308800
 C    1.3635210289   -3.7052290395   -0.6856236914
 C    0.7113315305   -4.4925910084    0.4371983100
 H    0.5599566733    2.1911252667    0.6731663428
 H   -0.4185876024    2.0651040527   -0.7943307203
 H   -1.0368119076    1.4310455402    0.7391808757
 H   -0.2099386463   -0.4412148829   -0.7482817206
 H    1.3806022392    0.3050984887   -0.8006398885
 H    1.6447451220   -0.0312854663    1.6699179180
 H   -0.0326056876   -1.1014843192    2.8716169267
 H    1.6637026575   -2.4320764144    1.9178330942
 H   -1.3217487095   -2.2578227562    0.4031910893
 H    1.0128817897   -3.8898617187   -1.6947285648
 H    2.4186772968   -3.4643609152   -0.6081165277
 H    1.3234553532   -4.7958979208    1.2808823534
 H   -0.0727495478   -5.1890252487    0.1638596299