19

 C   -0.0721917660    1.2302877076   -0.5579300213
 O   -0.1715777964   -0.1832434745   -0.5161812477
 C   -1.2500279514   -0.6504787442    0.2551171791
 O   -2.4965101891   -0.3041070375   -0.2889631617
 C   -2.8909345699   -1.2863121181   -1.2578702534
 C   -1.9149048397   -2.4736688323   -1.1134957983
 C   -1.2135305130   -2.1904857354    0.2315816278
 C    0.1799765220   -2.7736037518    0.3299227328
 O    0.5652012258   -3.4472003766    1.2510228303
 H    0.7988930360    1.4709026070   -1.1705211682
 H   -0.9677037936    1.6811776140   -1.0001475995
 H    0.0718832230    1.6478749849    0.4495586434
 H   -1.2126310534   -0.2145355095    1.2626224816
 H   -3.9254667087   -1.5687278419   -1.0362406675
 H   -2.8622918507   -0.8525569492   -2.2633435130
 H   -2.4254145583   -3.4384267367   -1.1215241116
 H   -1.1804653707   -2.4723474400   -1.9242978514
 H   -1.8004450244   -2.5633731517    1.0745572454
 H    0.8388146886   -2.5344466940   -0.5305805069