21

 C   -0.0663424823    1.6359800867   -0.0536501630
 C    0.0249442787    0.1092699629    0.0115409374
 C   -1.3309902209   -0.5781583228    0.0713271801
 C   -1.2968301509   -2.1129852610    0.1328868262
 C   -2.5563615531   -2.4497528962    0.9390529952
 C   -2.5450465878   -3.7434087484    1.7482218516
 C   -2.7214839171   -1.2074597040    1.8175474883
 O   -3.3610231392   -1.0970753517    2.8241079788
 O   -2.0141839269   -0.1768190863    1.2849213023
 H    0.9299490695    2.0863779785   -0.0830675794
 H   -0.6069412686    1.9622958820   -0.9489866035
 H   -0.5939574091    2.0291458973    0.8191417518
 H    0.5550062517   -0.2777530554   -0.8682837169
 H    0.6045656959   -0.1989620033    0.8902735391
 H   -1.9534556040   -0.2438044622   -0.7711726394
 H   -1.2714208782   -2.5651189069   -0.8610704395
 H   -0.4032215434   -2.4425616590    0.6769069354
 H   -3.4272355984   -2.4527199358    0.2673776076
 H   -1.6622122947   -3.7922470432    2.3939209731
 H   -3.4299628947   -3.7927576730    2.3874030463
 H   -2.5358606362   -4.6181918882    1.0917294483