21

 O   -0.0579371989    1.3623359113    0.0588270021
 C    0.0444794335   -0.0328978707    0.0396681401
 C    0.8960505333   -0.7528012121    1.0868410839
 C    0.5208932153   -2.1688211341    0.6020329910
 C   -1.0247125657   -2.1112652414    0.6831651747
 C   -1.3471319375   -0.7578277100    0.0001468391
 C   -1.2105799260   -0.8586225299   -1.5385831953
 C    0.3208759908   -0.7482234799   -1.3450949987
 C    0.9306747578   -2.0975084608   -0.8905327187
 H    0.8145889718    1.7293528209   -0.1198809660
 H    1.9669930703   -0.5348481295    0.9971975351
 H    0.5732655713   -0.5391168565    2.1107385797
 H    0.9699737760   -2.9992418426    1.1503058906
 H   -1.5151012940   -2.9567942557    0.1892801587
 H   -1.3470560636   -2.1079480416    1.7299820510
 H   -2.2101492907   -0.2344783124    0.4139582138
 H   -1.5965024047   -1.7605833787   -2.0252710986
 H   -1.6193693358    0.0240306733   -2.0367111044
 H    0.9044878294   -0.2223730985   -2.1044804146
 H    2.0225984495   -2.0847442044   -0.9804858015
 H    0.5621557079   -2.9447130767   -1.4788858720