16

 C   -0.0235354437    1.5419304969   -0.0006915573
 C    0.0440304519    0.0189623868    0.0338913907
 O    0.7675842109   -0.4729244859   -1.1033027095
 C    1.8328106888   -1.2417741743   -0.6974641352
 N    2.6583840408   -1.8146935371   -1.4686931359
 C    1.8340985422   -1.2749914571    0.7656685950
 C    0.7988832853   -0.5529962838    1.2236505013
 C    0.4001276663   -0.3127033421    2.5536099306
 C    0.0217457604   -0.0828902488    3.6744098195
 H    0.9827170110    1.9690829601    0.0247065442
 H   -0.5248847028    1.8739937788   -0.9131488150
 H   -0.5843772187    1.9106592601    0.8627726910
 H   -0.9713486294   -0.3985478711   -0.0066411508
 H    2.4252244133   -1.6279748905   -2.4450965393
 H    2.5737893226   -1.8122589345    1.3390064230
 H   -0.2987466187    0.1101360725    4.6685963578