18

 O    0.1003260023    1.4201721747   -0.1114679919
 C    0.0820771418    0.0045560957   -0.0724304279
 C   -1.3532169738   -0.5378130811    0.0061150013
 N   -1.4057520939   -1.9864388392   -0.0014608767
 C   -1.5876892262   -2.7993433199   -1.1110316939
 C   -1.5163756006   -4.1040579493   -0.7015593355
 C   -1.2737564193   -4.1089496202    0.7071960783
 C   -1.2102889102   -2.7904052877    1.0879194500
 O   -0.9973450554   -2.1753863002    2.2847778567
 H   -0.1525476533    1.7447022148    0.7586371380
 H    0.5511120114   -0.3377032937   -1.0002565928
 H    0.6709944433   -0.3943212976    0.7654022594
 H   -1.8330543499   -0.1737438234    0.9208825344
 H   -1.9302001083   -0.1641478492   -0.8439082358
 H   -1.7615775783   -2.3598428366   -2.0796381695
 H   -1.6307016617   -4.9717828998   -1.3326990931
 H   -1.1634757715   -4.9668400217    1.3524719511
 H   -0.9438668462   -2.8540683154    2.9638553281