21

 C    0.0434262922    1.5162854931   -0.2975458891
 C    1.4659490987    1.6029259849    0.3494570468
 C    1.4343111846    0.0714192602    0.6179084826
 C    0.8465636342   -0.3989938929    1.9771735608
 C   -0.5743424645   -0.4855582826    1.3308885852
 C    0.0164440833   -0.0149387445   -0.0269860457
 C    0.1738782233   -1.0328242829   -1.1483153936
 O    1.3284027281   -1.8021433445   -0.7852514498
 C    2.2766698166   -0.9047580658   -0.1918852286
 H   -0.7375366477    2.0879824758    0.2107934836
 H    0.0178143799    1.7782146872   -1.3591031598
 H    2.2539733474    1.9144088159   -0.3420360052
 H    1.5357134077    2.2264385587    1.2447306181
 H    1.2372989172   -1.3637174038    2.3116729500
 H    0.9506270399    0.3169145257    2.7973046303
 H   -0.9833667626   -1.4990158823    1.3015876045
 H   -1.3305459607    0.1779140576    1.7597581822
 H   -0.6565576883   -1.7367808801   -1.2572276860
 H    0.3345194627   -0.5286351232   -2.1160004437
 H    2.8483418299   -0.3755391802   -0.9726189884
 H    2.9708581279   -1.5158602162    0.3926635858