19

 N   -0.0096148887    1.4120494053    0.1709928158
 C    0.0630424907    0.0314542284    0.0124198796
 O    1.1312490669   -0.5507589651   -0.0461002074
 N   -1.1506619364   -0.6313364559   -0.1167473088
 C   -1.1227862569   -2.1003135413   -0.0907343560
 C   -2.2491875238   -2.6916003241   -0.9381799888
 C   -3.6164284942   -2.1527398687   -0.4921387831
 C   -3.5504408208   -0.6545560482   -0.3715030369
 C   -2.3916378591   -0.0006017570   -0.2336044721
 H    0.8980039348    1.7880560078    0.4033713194
 H   -0.7524428639    1.7815186609    0.7449109798
 H   -0.1402184588   -2.4095321278   -0.4446828630
 H   -1.2228754626   -2.4402232563    0.9497981827
 H   -2.0825238829   -2.4309682880   -1.9895390228
 H   -2.2105574514   -3.7826522338   -0.8633773629
 H   -4.3896937256   -2.4381918748   -1.2150066270
 H   -3.9144985019   -2.6137774329    0.4609075581
 H   -4.4615045054   -0.0727292900   -0.4508377760
 H   -2.3599690700    1.0802426615   -0.2470372306