14

 O   -0.0863302524    1.5030301949    0.1152124069
 C    0.0556103223    0.1247064477    0.0022434344
 C   -1.2276225233   -0.7330892652    0.0639446707
 N   -2.0327583546   -0.2923341733   -1.0479477229
 C   -0.9700551951   -1.3183874934   -1.3321382718
 C   -1.3738330250   -2.6608710314   -1.7873503061
 O   -2.5153017277   -3.0582559235   -1.7102472029
 C    0.3296679675   -0.5447545615   -1.4009337587
 O    1.2692287246   -0.5771180398   -2.1371950114
 H   -0.8136979724    1.7553272708   -0.4691249035
 H    0.8239263852   -0.1974983935    0.7120409078
 H   -1.6382626158   -1.2813194886    0.9028928283
 H   -2.9087568215   -0.8212342957   -1.0591363963
 H   -0.5590336718   -3.2905908075   -2.1934518944