18

 C    0.2974622847    1.5783917263   -0.0466187818
 C    0.7431762847    0.1195185609   -0.0028181003
 C    0.3747155675   -0.5836595200    1.2844957865
 O   -0.2777576863   -0.0565650764    2.1611957743
 C    0.8555963573   -2.0118328473    1.4804290714
 C    1.4943106001   -2.2524439781    2.8316778392
 N    0.1673322172   -2.7636688780    2.5571357269
 C    1.2933548612   -2.7618868230    0.3347768005
 C    1.6722148355   -3.3738843325   -0.6282457906
 H    0.7598225233    2.1547799183    0.7590271982
 H    0.5742870992    2.0345785949   -1.0008041249
 H   -0.7853246442    1.6594821291    0.0759436781
 H    0.3074631694   -0.4620815514   -0.8261876852
 H    1.8274879751    0.0177537563   -0.1440558495
 H    2.2824155132   -2.9968730805    2.8890184752
 H    1.6021127383   -1.3839507989    3.4756498394
 H   -0.5152039278   -2.1128802360    2.9514750904
 H    1.9984169016   -3.9245826639   -1.4757332876