21

 C    0.0887897918    1.5334211120    0.2244983997
 C   -0.0168062492    0.0337735339   -0.1029490256
 C   -1.4211501740   -0.4563530852   -0.1942786885
 C   -2.1743910192   -0.9696097979   -1.2039908119
 C   -3.4812614305   -1.2449342149   -0.6635652575
 C   -4.6619515088   -1.8325976924   -1.3787275364
 C   -4.4454738838   -3.2912684383   -1.8151302665
 C   -3.4083798462   -0.8716884834    0.6409314410
 O   -2.1694763165   -0.3914850043    0.9460747652
 H    1.1361287414    1.8401396304    0.3041438038
 H   -0.3875035294    2.1373939026   -0.5537966339
 H   -0.4059498949    1.7571386385    1.1735392670
 H    0.4753920259   -0.1793452948   -1.0572612061
 H    0.5217314513   -0.5405605038    0.6623806682
 H   -1.8445822290   -1.1326836566   -2.2192315432
 H   -5.5422284215   -1.7737192454   -0.7284315602
 H   -4.8951872455   -1.2260702805   -2.2635228412
 H   -3.5850162369   -3.3794921277   -2.4859701998
 H   -4.2566732386   -3.9330022901   -0.9490181814
 H   -5.3240526029   -3.6766808617   -2.3422309419
 H   -4.1209733935   -0.8802844404    1.4498911290