20

 C    0.2773144705    1.5395016383   -0.0430089426
 C   -0.1550921507    0.0770097602   -0.2118538644
 C    0.6507595126   -0.6287143019   -1.2822547751
 C    1.9443926741   -1.3095769300   -0.9876646522
 C    0.7350063578   -2.1589041317   -1.3791271179
 C    0.0707492029   -3.0681430539   -0.3642575614
 C    0.7626585575   -2.6781758073   -2.7744140753
 O    1.2782670447   -2.1166116062   -3.7130641588
 H    1.3315682261    1.6070644463    0.2442847451
 H    0.1522142651    2.0980655478   -0.9766918000
 H   -0.3170821472    2.0391586148    0.7280150491
 H   -0.0515540983   -0.4427159857    0.7470239711
 H   -1.2214164906    0.0398065782   -0.4692805853
 H    0.6067221457   -0.1587495954   -2.2622007657
 H    2.7420249255   -1.2417729872   -1.7189539347
 H    2.2623190900   -1.3836019727    0.0479720136
 H    0.1487115758   -2.6711771202    0.6496654836
 H   -0.9938291181   -3.2083359219   -0.5840128582
 H    0.5420311050   -4.0575632291   -0.3622279528
 H    0.2543448115   -3.6604200123   -2.9120329780