15

 N   -0.0811223071    1.3256198934   -0.1893098241
 C   -0.0062079080    0.0712237134   -0.0019843062
 C   -1.2748526972   -0.7356663358    0.1703983822
 C   -1.0913034135   -1.9729632303    1.0340538604
 O   -1.8518356564   -2.2797047920    1.9160362175
 C    0.1240164743   -2.8074232829    0.6662818421
 C    1.3792160613   -1.9966067854    0.3781676723
 O    2.4917468282   -2.4666724279    0.4276649182
 N    1.1839610773   -0.6630169922    0.0451871560
 H    0.8397759122    1.7542835737   -0.3037493956
 H   -2.0594433536   -0.0952401499    0.5699181375
 H   -1.5918714170   -1.0796557745   -0.8251624935
 H    0.3453479250   -3.5380871802    1.4447991656
 H   -0.1123989163   -3.3657979263   -0.2505589141
 H    2.0483954710   -0.1602806830   -0.1157129684