23

 C    0.3722559636    1.6581427105   -0.0768492966
 C    0.1250420323    0.1565313484   -0.0195763275
 C    0.9946210587   -0.7631716478   -0.9259053288
 C    1.2871869834   -1.6942212257    0.2939888762
 C    0.7430422408   -3.1045352824    0.2088606103
 O    2.6541284476   -1.7593913706    0.6807280306
 C    2.9912518837   -0.5404283360    1.3269385234
 C    1.7293198688   -0.1148499170    2.0994624562
 C    0.5803077147   -0.6589619575    1.2365332711
 H    1.4315839730    1.9030303903    0.0574295599
 H    0.0658607989    2.0624250781   -1.0480375032
 H   -0.1931163332    2.1899296748    0.6967662622
 H   -0.9386213990   -0.0310913086   -0.1995476168
 H    0.4838363382   -1.2343022885   -1.7698120164
 H    1.9013028371   -0.2798381906   -1.3012571362
 H    1.2920148367   -3.6814585422   -0.5427052987
 H    0.8440319194   -3.6138171777    1.1722112478
 H   -0.3143446295   -3.0954721392   -0.0731218073
 H    3.8572109167   -0.7295658980    1.9674130136
 H    3.2788480033    0.2278602963    0.5911305224
 H    1.7119704213   -0.6032061853    3.0785118752
 H    1.6848645540    0.9645023570    2.2671736012
 H   -0.2402599103   -1.0382780083    1.8494062817