15

 N   -0.0432590844    1.2418521349    0.3537952110
 C   -0.0115415031    0.0388584931   -0.0081167759
 O    1.1274163778   -0.6703706946   -0.3139212571
 C    0.7943288093   -1.9339559319   -0.8872336800
 C   -0.7045265046   -2.0881188697   -0.6332460635
 C   -1.1426210319   -1.9246439586    0.7795351836
 N   -1.1817176597   -0.7661263594   -0.1406255635
 C   -1.4849065690   -2.8071184522   -1.5972465426
 C   -2.0982274339   -3.4458372409   -2.4093475151
 H    0.9001355358    1.6287487527    0.3726325624
 H    1.0003455644   -1.9217366667   -1.9623987970
 H    1.4013418920   -2.7093915784   -0.4116904905
 H   -2.1208993293   -2.2865209706    1.0745337288
 H   -0.3790740182   -1.9326342571    1.5532889271
 H   -2.6558043352   -3.9975344206   -3.1257972776