16

 C    0.8982086763    1.9511124809   -0.0056708309
 C    0.3397969347    0.5119878927    0.0425175915
 C    0.7446500491   -0.2758058069   -1.1118036176
 C    1.0829625337   -0.9248420047   -2.0779404643
 C    1.4694867958   -1.6534889336   -3.1602948754
 C    1.8117839526   -2.3029135735   -4.1190984215
 C    0.6803035367   -0.1298486192    1.4178046893
 N    1.1452746781   -1.4015634520    1.3843885276
 O    0.4987409152    0.4962203348    2.4422409204
 H    1.9901959897    1.9394029487   -0.0560758980
 H    0.5169391417    2.4788897444   -0.8824403479
 H    0.5929493507    2.4734643467    0.9020445648
 H   -0.7576933410    0.5775657169    0.0439262544
 H    2.1135562748   -2.8695464445   -4.9648396694
 H    1.3238746478   -1.8748096522    0.5151474105
 H    1.3736861042   -1.8495042485    2.2563245463