21

 C    0.3196487721    1.2751047546    0.5631736504
 C   -0.1437335963   -0.0797361347    0.0115723845
 C    0.5355552540   -0.4654016895   -1.2884812216
 C    1.9981689129   -0.9126139789   -1.2745477007
 C    0.9736935056   -1.9437566408   -1.5228994288
 O    0.7471440954   -2.8792984814   -0.5338281085
 C   -0.4772371949   -3.5768051715   -0.6951425918
 C    0.0711016008    0.1968549866   -2.5275709766
 O    0.6127421847    0.0998948411   -3.6070040503
 H    1.3964365085    1.2724873281    0.7603331544
 H    0.1164727345    2.0863732704   -0.1442670879
 H   -0.1939482632    1.5135612540    1.4996706398
 H    0.0394322310   -0.8653536598    0.7508863863
 H   -1.2302696530   -0.0541311251   -0.1479351990
 H    2.6083511411   -0.5929342201   -2.1117352901
 H    2.4801872841   -0.9264745385   -0.3030442638
 H    0.8398972011   -2.2985417855   -2.5449321267
 H   -1.3395353178   -2.8995952328   -0.6299283321
 H   -0.5129012761   -4.0984707554   -1.6618878913
 H   -0.5339546294   -4.3118476880    0.1100814290
 H   -0.8681774350    0.7858820969   -2.4139739955