17

 N   -0.0226101901    1.4958967706    0.0809381801
 C    0.0006997971    0.0892949007   -0.0238535309
 C    1.1908871184   -0.7097689039   -0.5453257021
 C    2.0052127058   -1.7029825474    0.2585406744
 O    2.6755129300   -2.6302331808   -0.5803112765
 C   -0.1704133071   -0.9972150715   -1.1026112301
 O   -0.9083684689   -1.8346778933   -0.1756186110
 C   -0.8660000750   -0.8258874759    0.7936550475
 N   -1.4548872275   -0.7393028617    1.8944749604
 H    0.6805041506    1.9433728729   -0.4920379393
 H   -0.9329735584    1.8877857132   -0.1316719944
 H    1.7910545928   -0.1111759573   -1.2316002040
 H    2.7879713877   -1.1739714161    0.8108109567
 H    1.3675460801   -2.2086522034    0.9944470584
 H    2.0015479739   -3.1705210336   -1.0060953118
 H   -0.4971206430   -0.9856093378   -2.1333801036
 H   -2.0168962664   -1.5716735145    2.0810594363