16

 N    1.0919200888   -0.2734968332    0.2486029843
 C   -0.0059447648    0.1362568673   -0.2128492004
 O   -1.0445476186   -0.6878213650   -0.4881856931
 C   -0.8446087538   -2.0835916354   -0.2324336154
 C   -1.0114891654   -2.3758751886    1.2018362861
 N   -1.1718534051   -2.6430150003    2.3138995006
 C   -1.8527122027   -2.8736726396   -1.0564218897
 C   -3.2103814764   -2.3449344084   -1.3138578250
 N   -2.2126798248   -2.4288372163   -2.4012407494
 H    1.7457024796    0.4935593917    0.3834714038
 H   -0.2994159997    1.1596959679   -0.4588071212
 H    0.1796590892   -2.3500858145   -0.5142063574
 H   -1.7073577411   -3.9462434693   -0.9546521476
 H   -4.0460098086   -3.0318920957   -1.4020236402
 H   -3.4538296012   -1.3650271475   -0.9159411095
 H   -1.8266465554   -1.5009051929   -2.5615411860