17

 C   -0.0971119218    1.5550849481    0.2773046293
 C   -0.0307349806    0.1044151962    0.1936540308
 C    0.0133815144   -1.0961726047    0.1150525225
 C    0.1050686571   -2.5321056602    0.0151801055
 C    1.4060216113   -3.0872286905   -0.5685932773
 C    1.6753536555   -2.6303389668   -1.9265770590
 C    1.8984413097   -2.2566468295   -3.0459350237
 C   -0.6750811037   -3.3818580795    0.9385846580
 O   -1.0832381865   -3.2176052442   -0.4155395625
 H    0.6962125152    2.0211716275   -0.3168759285
 H   -1.0566018263    1.9249302811   -0.1002551347
 H    0.0102386323    1.9019610126    1.3108995279
 H    2.2341470927   -2.7984966360    0.0909695807
 H    1.3448382299   -4.1811957075   -0.5501701133
 H    2.0901534970   -1.9275025982   -4.0369146925
 H   -0.2960985122   -4.3694125946    1.2018295985
 H   -1.3103211341   -2.9077704640    1.6841208683