19

 O    0.0719748854    1.5109315018   -0.0755550268
 C    0.1048970151    0.0875730546   -0.0697473821
 C   -1.2921816825   -0.5039752506   -0.0004556969
 C   -1.5463910998   -2.0524870299    0.0867307300
 C   -0.7786010875   -2.4151206927    1.3602803800
 O   -1.1673368381   -1.3068995896    2.2169436117
 C   -2.0461558269   -0.5647969846    1.3561455014
 C   -2.9211550832   -1.6929342544    0.7295902838
 O   -3.8713020964   -1.3172206281   -0.2360062324
 H   -0.2284169066    1.7959640320    0.7931186750
 H    0.5853162310   -0.2014505481   -1.0113421257
 H    0.7317587380   -0.2837819384    0.7513937187
 H   -1.9244175840   -0.0672990826   -0.7732042426
 H   -1.4681406722   -2.7166327729   -0.7729214401
 H   -1.1031793275   -3.3619583818    1.8067255718
 H    0.3096762809   -2.4370970839    1.2410703801
 H   -2.4470613003    0.2974717171    1.8903945672
 H   -3.3265330476   -2.4158367350    1.4505403925
 H   -4.6087163276   -0.8969197227    0.2179477045