18

 C   -0.0458389269    1.5813912026   -0.1420073155
 C    0.0488347051    0.0664421519   -0.0565945807
 N    1.1600856461   -0.5395500418   -0.8117943046
 C    1.7573759407   -1.1444303075    0.2658403574
 O    2.7205573131   -1.8532730206    0.3895082620
 C    0.6904934643   -0.5669806858    1.2178022920
 C    1.0693042268    0.2139188011    2.4891916285
 O    0.2834703756   -0.6620133067    3.3206750547
 C   -0.0761480237   -1.4809471861    2.1914690481
 H    0.9079662574    2.0513377119    0.1163379127
 H   -0.3150483739    1.8959364513   -1.1557524406
 H   -0.8171216284    1.9587863314    0.5372573412
 H   -0.9186546718   -0.3912493640   -0.2999841168
 H    1.3481606949   -0.6013106816   -1.8018936688
 H    2.1356751873    0.1755691151    2.7425750552
 H    0.7202996709    1.2526051623    2.5364347035
 H   -1.1622952811   -1.5292399715    2.0411837280
 H    0.3278066436   -2.4974124620    2.2734326937