12

 C    0.0749289904    1.5481862448    0.0088202432
 C   -0.0284586848    0.0687937912    0.0013100631
 C   -1.0910100562   -0.8038484061    0.0023385467
 N   -0.6075651617   -2.0795918891   -0.0071762319
 N    0.6369462236   -2.0777303736   -0.0138565343
 O    1.0679543704   -0.6607668060   -0.0086215356
 N   -2.4919975700   -0.4971576800    0.0115875854
 O   -2.7725917970    0.7016395000    0.0199151961
 O   -3.2852788822   -1.4214869133    0.0106148232
 H    1.1218482080    1.8528354669    0.0010392054
 H   -0.4431268383    1.9619633416   -0.8601744806
 H   -0.4266886522    1.9518997037    0.8921539894