15

 C   -0.5018125236    1.3452352496    0.1292360322
 C    0.2211022008    0.0201534171    0.0094490374
 C    0.9398426803   -0.3102692555   -1.3167935776
 C    2.2184422248   -0.4093270510   -0.4414202179
 O    1.4808485362    0.0111256359    0.7335159878
 C    2.8164253633   -1.7296369199   -0.3088350620
 C    3.3103810070   -2.8212388636   -0.2104755649
 H    0.1221934698    2.1645697151   -0.2412914279
 H   -1.4335789277    1.3258993880   -0.4470293019
 H   -0.7518219965    1.5497718901    1.1749856785
 H   -0.4217133964   -0.7967093590    0.3646450547
 H    0.6413767582   -1.2312946247   -1.8161537339
 H    0.9616487034    0.5110017519   -2.0355858642
 H    2.9981169694    0.3221220375   -0.6877433328
 H    3.7507520709   -3.7831650415   -0.1170738775