19

 O    0.0857965890   -0.0438653265    0.4608242960
 C   -0.0126805127    1.1401720943    0.2095186619
 N   -1.2127996279    1.8033171174    0.1662855600
 C   -1.3601374897    3.2448436413    0.0429204280
 C   -0.8573654132    4.0351854127    1.2712005377
 C    0.4901733183    3.4978450293    1.8036044976
 C    1.4237474139    3.1329716116    0.6710411429
 C    2.2737060748    1.9041983865    0.7044718229
 N    1.0918323782    1.9526400126   -0.1384126393
 H   -2.0032275616    1.2385639347    0.4308160341
 H   -0.8207213243    3.5729104593   -0.8516460092
 H   -2.4173788346    3.4591101952   -0.1350580017
 H   -0.7592884558    5.0879480468    0.9799254564
 H   -1.5999145277    4.0002920829    2.0760860820
 H    0.9590247572    4.2394244859    2.4593293661
 H    0.3126448434    2.6077033942    2.4168388132
 H    1.7764651760    3.9741006169    0.0741490321
 H    3.2253506315    1.8865833751    0.1809576697
 H    2.2204442251    1.2657620901    1.5827304295