13

 O    0.0062707857   -0.0340433637   -0.3778924279
 C    0.0457496487    1.0984904938    0.0339344503
 C    1.2781649159    1.9234102241    0.0712124973
 C    1.1640985056    3.4122181768   -0.1859203625
 C    1.4806363734    2.9436935434    1.2070128241
 C    0.5226326377    3.0843269108    2.2664892083
 C   -0.2597805433    3.2185299824    3.1697156311
 H   -0.8646126200    1.6122455600    0.4135679688
 H    2.1680532329    1.4124325805   -0.2782882795
 H    1.9522278629    3.8807768987   -0.7630340219
 H    0.1703884334    3.8115705182   -0.3564557918
 H    2.5160767521    3.0402655833    1.5199761409
 H   -0.9535306949    3.3308484918    3.9658225728