18

 C   -0.2361707858    1.5975172016    0.0516151059
 O    1.0330586588    0.9745691282   -0.1292767156
 C   -0.1285113337    0.1351985290   -0.0492187087
 C   -0.2951494134   -0.7451449062    1.1592362353
 C   -0.4111262799   -2.2445506241    1.1997202754
 C    0.7087237552   -2.9901443031    0.4457186290
 C    1.7841737393   -2.1656807162   -0.1544818033
 N    1.7830099413   -2.3797540916    1.3044967924
 C    0.6991178130   -1.5623609882    1.9698778623
 H   -0.3943438303    2.0527843624    1.0292053023
 H   -0.6037081999    2.1769536778   -0.7946412717
 H   -0.4014025885   -0.3190712407   -1.0019284693
 H   -0.9977450003   -0.3150690918    1.8732274820
 H   -1.2921928331   -2.7560684763    1.5653811026
 H    0.6705255309   -4.0664307305    0.3105388145
 H    2.5857555769   -2.7249751366   -0.6310378067
 H    1.6371975597   -1.1784658168   -0.5648664644
 H    0.8209389000   -1.3866923567    3.0312054181