19

 C   -0.0350734913    1.5291007835    0.0594343876
 C    0.0421249869    0.0204657910    0.0800774786
 C    0.8541615710   -0.8213581496   -0.9812912805
 C    0.6762903097   -1.9224599467    0.1045886046
 C    0.8640620944   -0.7762422039    1.1339889812
 N   -0.7938268208   -2.1853560830   -0.0470548423
 C   -1.6469115708   -1.7429939371    1.0712431890
 C   -1.2751114649   -0.7768519940    0.0057390705
 H    0.9629420630    1.9778218699    0.0294126081
 H   -0.5870948596    1.8841226767   -0.8186661624
 H   -0.5486820505    1.9110590680    0.9489088802
 H    0.3824504966   -1.0113567544   -1.9487123277
 H    1.8850010671   -0.4805622640   -1.1056691995
 H    1.2641848459   -2.8390290102    0.1276647553
 H    1.9025320437   -0.4402805278    1.1615460499
 H    0.4972141420   -0.8733511425    2.1566424069
 H   -2.6420989327   -2.1786231311    1.0362532939
 H   -1.2462768627   -1.6552237458    2.0744294527
 H   -2.0085194770   -0.4720860289   -0.7381074061