15

 O   -0.6875312779    0.9221023839   -1.0749735590
 C    0.0974404851    0.8261744656   -0.1698978106
 C    1.3431228360    1.6809409637   -0.0318963053
 C    1.3008994600    2.6874165674    1.1733148007
 C    2.5638343796    1.9813537067    1.7436648436
 N    2.4700623561    1.0275555280    0.6370428806
 C    3.3605889200    0.0906661890    0.2270413199
 O    4.3606757222   -0.2108799715    0.8414450384
 H   -0.0454642756    0.1051958008    0.6681348548
 H    1.5774396869    2.1375043917   -0.9989467333
 H    1.4231674867    3.7305664282    0.8859925350
 H    0.4115741198    2.5884468476    1.7980320815
 H    3.4843932979    2.5731098295    1.7248028700
 H    2.4565954047    1.5273936087    2.7327697398
 H    3.0597170985   -0.3771160592   -0.7332167961