18

 C   -0.0311924077    1.4935335351   -0.0363696179
 N    1.2723581559    0.7981938192    0.0788783349
 C    0.0681493099    0.0263097876    0.0174099291
 C   -0.5150423340   -0.9753082889    1.0189474718
 N   -1.6612473029   -1.0686319518    0.0286901571
 C   -0.5469206690   -0.9620347172   -0.9941125101
 C    0.2583497746   -2.2635415506   -0.7574033057
 N    1.5466149297   -2.0670679049   -0.0535802962
 C    0.2972179428   -2.2649597028    0.7248755054
 H   -0.3200862326    2.0662904092    0.8406314351
 H   -0.3127460078    1.9455571710   -0.9849661424
 H    1.7842032488    0.7684411024   -0.7979947719
 H   -0.7550615225   -0.7271259292    2.0519056318
 H   -2.0672794900   -2.0074189640    0.0268887184
 H   -0.8206695877   -0.6869442125   -2.0132632460
 H    0.0905414069   -3.1461260509   -1.3646160499
 H    2.0606834303   -2.9477229186   -0.0628290094
 H    0.1745425054   -3.1546250029    1.3322644558