20

 C    0.7477730053    0.9495014724    0.7466805869
 C   -0.0649039548   -0.0129678547   -0.1023209885
 O    0.7675852341   -0.5278846175   -1.1231268483
 C    0.1096602101   -1.4612897607   -1.9650601432
 C    1.0995833758   -2.0076938506   -2.9364001669
 C    0.9823394948   -2.3995662122   -4.2515524017
 C    2.2459793626   -2.9127978551   -4.6597958867
 C    3.0967105155   -2.8107775890   -3.5836697427
 N    2.3857289143   -2.2755890861   -2.5403282824
 H    1.5987349297    0.4358035530    1.2035944020
 H    1.1315334239    1.7706607580    0.1348452797
 H    0.1286131958    1.3700776257    1.5445754597
 H   -0.4626714698   -0.8364621112    0.5151435257
 H   -0.9329290987    0.5017481519   -0.5471226675
 H   -0.3292098759   -2.2617835565   -1.3410763554
 H   -0.7236885973   -0.9899186579   -2.5093840663
 H    0.0863521633   -2.3317462030   -4.8502000706
 H    2.5000700624   -3.3054002558   -5.6323346731
 H    4.1402834835   -3.0593805226   -3.4762431833
 H    2.7532416355   -1.9890805780   -1.6493871974