20

 C    0.0463092799    1.4637444179   -0.0367585920
 O    1.1840113296    0.6018608442   -0.1225353767
 C   -0.1079798159    0.0045511828    0.0384416812
 C   -0.3559842130   -0.7310653304    1.3141965983
 C    0.1059200810   -0.1445905491    2.6422248981
 C    0.0645116879   -1.3264173172    3.6395191791
 C    0.2661211513   -2.5967382060    2.7788706959
 C   -0.2673569132   -2.2199063720    1.4072569643
 N   -1.5767734789   -1.5585310442    1.3142192042
 H   -0.0150127830    2.0642816314    0.8690872012
 H   -0.2164798552    1.9850124649   -0.9562682484
 H   -0.4828954247   -0.5124269955   -0.8448175391
 H    1.1264467379    0.2309856153    2.5100472883
 H   -0.5118969314    0.6971585469    2.9747006720
 H    0.8176646066   -1.2324209855    4.4252397653
 H   -0.9041622938   -1.3608748946    4.1488546507
 H    1.3311453744   -2.8404970784    2.6852371637
 H   -0.2277041787   -3.4765679861    3.2059756297
 H   -0.0099625515   -2.8383199762    0.5517624586
 H   -2.0459220993   -1.5245653281    2.2159448855