19

 C    0.0657288000    1.5353988619    0.0904745322
 C    1.3726234288    0.7690606363   -0.0204586214
 C    1.9785001540    0.4476715921    1.3095610789
 C    1.2099502515   -0.4016118629    1.9921450263
 C    0.9862101129   -0.6920260481    3.4532420421
 C   -0.5391537189   -0.7191934937    3.4827095297
 C   -1.0788706891   -0.7768283494    2.2608098989
 C   -0.0079202566   -0.8508358694    1.1897636965
 C    0.0317174225    0.0369587990   -0.0513232422
 H   -0.1782665069    1.9802782935    1.0497749399
 H   -0.2551248429    2.1095880949   -0.7728521549
 H    1.9837084937    0.8965373644   -0.9075511412
 H    2.8428542321    0.9740797740    1.7003573112
 H    1.3945004040   -1.6648638743    3.7689189653
 H    1.4211736624    0.0616183287    4.1189491280
 H   -1.0967673454   -0.7216400200    4.4133328479
 H   -2.1407858806   -0.8379317193    2.0500851037
 H    0.0862134385   -1.8999250065    0.8614744097
 H   -0.3383230298   -0.3683363212   -0.9854712907