23

 C   -0.8364145125   -0.1274072983   -4.1426073211
 C   -0.5976145281   -1.1507036596   -3.1342500841
 C   -0.3926944026   -1.9972618661   -2.3026443843
 C   -0.1712403097   -3.0194339092   -1.2810864663
 C   -1.4721018052   -3.5249457225   -0.6667362697
 C   -2.2928349706   -4.6360854267   -1.2871159080
 C   -1.9000859437   -5.3342467750   -2.5725281997
 C   -1.5798292383   -4.8650843397    0.0335787581
 C   -0.4134196329   -5.8189184433    0.1924506554
 H   -0.4303694649   -0.4227542688   -5.1166803690
 H   -1.9080207718    0.0592684094   -4.2758303112
 H   -0.3686611646    0.8241992529   -3.8657796805
 H    0.4034053841   -3.8449346172   -1.7142538627
 H    0.4635716777   -2.6056291538   -0.4852532052
 H   -2.0482530852   -2.7181915727   -0.2214780261
 H   -3.3681887244   -4.4979973738   -1.2015300641
 H   -0.8241897836   -5.5060501152   -2.6539306681
 H   -2.3904681023   -6.3112099388   -2.6483583851
 H   -2.2004155072   -4.7407960551   -3.4425850939
 H   -2.2306824887   -4.8595090768    0.9052058510
 H    0.2413071292   -5.8450223033   -0.6817431614
 H    0.2041379238   -5.5412421062    1.0542066605
 H   -0.7697094784   -6.8414748502    0.3603121855