20

 C    0.0555081486    1.3860142054   -0.0797409606
 O    0.1358576835   -0.0309335882   -0.0709925663
 C    0.6555571865   -0.5689152844    1.0905697660
 C    0.5337412370   -2.0788566070    1.0561969403
 C    1.2847760933   -2.6641473343    2.2554246194
 N    2.6204178108   -2.1075367022    2.4305660880
 C    2.8857904050   -0.9876446109    1.8999957489
 C    4.2464590915   -0.3623982636    1.9916646789
 O    2.0399834751   -0.1813640898    1.1889041962
 H    1.0493991184    1.8454752691   -0.0527508010
 H   -0.4491791971    1.6666297076   -1.0061483084
 H   -0.5310050100    1.7551286451    0.7745848395
 H    0.1487800187   -0.1437076897    1.9749363072
 H   -0.5225554509   -2.3616294421    1.0586633003
 H    0.9748443884   -2.4289209592    0.1170932354
 H    0.7151827412   -2.5056839056    3.1822791568
 H    1.3798506080   -3.7495725747    2.1452978254
 H    4.9163010250   -1.0242688313    2.5388590616
 H    4.6447857212   -0.1781918754    0.9887024682
 H    4.1873537457    0.6062903712    2.4984553043