21

 C    0.1178454635    1.0549351641    0.4868416853
 C   -0.2794466947   -0.3938740108    0.2158348727
 O   -0.3898233522   -1.0454295450    1.4677469105
 C   -1.5885527582   -0.4488905938   -0.5826234733
 O   -1.9656518501   -1.7626594054   -1.0054827305
 C   -2.7833942567   -2.4716763732   -0.1170798462
 C   -3.0410952423   -3.9068122974   -0.5046658335
 C   -2.1171780549   -3.5851012416    0.6461260055
 O   -0.7269554435   -3.7267385436    0.4943716602
 H    1.0570263106    1.0811931726    1.0442459860
 H    0.2453767716    1.6171839577   -0.4431200150
 H   -0.6471953090    1.5507596218    1.0934546546
 H    0.5036983363   -0.8690875878   -0.3996368777
 H   -0.3398259036   -2.0016634801    1.3169308993
 H   -2.3948255933   -0.0030290839    0.0159692819
 H   -1.4781874906    0.1332993915   -1.5044965813
 H   -3.5778824853   -1.8844130630    0.3390281275
 H   -4.0150113996   -4.3358531862   -0.2965864703
 H   -2.5816379568   -4.2465019154   -1.4277436996
 H   -2.4154930124   -3.8166503315    1.6619627053
 H   -0.5150147489   -3.3530836589   -0.3731773313