12

 C   -0.0219577806   -1.2265865389   -0.0427579004
 C   -0.0071019031   -0.0258383396   -0.0073765261
 C   -0.0339072029    1.4198253692   -0.0070672937
 C    0.0659859307    2.1338777838    1.3801278946
 O    1.4958778036    1.7448873381    1.4451825110
 C    1.3438379944    2.1578622622    0.0286827121
 C    0.6085480743    3.3876004246    0.6353262174
 O    0.6042782047    4.5708266697    0.6522866736
 H   -0.0235399717   -2.2884314941   -0.0631308441
 H   -0.7761351816    1.8273734885   -0.7016439782
 H   -0.5413277111    1.9978431265    2.2713051236
 H    2.2018174233    2.0493300200   -0.6298189997