19

 C    1.0657243984    0.6266342550   -1.9242641370
 C    1.4654643935   -0.6680360475   -1.2491608186
 O    2.9069903655   -0.9082191145   -1.1567990421
 C    2.7676359409   -1.3525865807    0.1972862498
 C    2.3683670659   -0.2077614725    1.0956985916
 C    2.9118286625    1.1984343052    0.9617908160
 O    4.0599976748    1.3836236109    1.7803778411
 C    1.3212439148   -0.9229416792    0.2540338907
 O    0.2352551459   -1.5757818508    0.8033549392
 H    1.4437819669    0.6490494620   -2.9514803837
 H   -0.0271288597    0.6902313921   -1.9704750856
 H    1.4409835467    1.5074200873   -1.4000057679
 H    1.0123903734   -1.5185382706   -1.7770263288
 H    3.2814825609   -2.2580010086    0.4975473803
 H    2.2801924299   -0.5334129224    2.1321169413
 H    3.1371633062    1.4152738634   -0.0888202678
 H    2.1802683327    1.9347847990    1.3117623045
 H    4.7429961819    0.7901966443    1.4505815341
 H   -0.3017623212   -0.9316202823    1.2768785629