18

 C    0.0853026812    1.5532279022   -0.0393506774
 C    0.1243261864    0.0308238384    0.0631225546
 N    0.6409430621   -0.5518320816   -1.1841745913
 C   -0.3047029033   -0.7028173232   -2.3824946047
 C    0.7362438290   -1.7576979939   -2.8964497649
 O    1.9659417602   -1.2967340750   -3.3360520640
 C    0.5690683547   -2.0678150329   -1.3683403924
 C   -0.9457370523   -1.8474141905   -1.5701347487
 O   -1.9992861282   -2.1992950206   -1.1389655914
 H    1.0719257321    1.9512089054   -0.2931823878
 H   -0.6219375723    1.8807349629   -0.8082008057
 H   -0.2319584475    1.9901066698    0.9118451268
 H    0.8173210356   -0.2734334777    0.8561340012
 H   -0.8691130772   -0.3568980043    0.3357955690
 H   -0.7320905994    0.1536385309   -2.8997687462
 H    0.3693353226   -2.5099825730   -3.5943679078
 H    2.2374889145   -0.6370356867   -2.6801643673
 H    1.1279491619   -2.7530127802   -0.7334128221