16

 C   -0.4316216002    1.6163310031   -0.1184916439
 C    0.0656131551    0.1782296270   -0.0889043871
 C    1.1222915385   -0.2314250242   -1.1574704006
 C    2.0373737229   -0.4848292206    0.0512902133
 O    1.0243131822   -0.0393137065    0.9838140152
 C    2.4346563777   -1.9274892076    0.3128546634
 O    2.7485651065   -2.6961756472   -0.5566624525
 C   -1.0591617100   -0.7650320240    0.0300942245
 N   -1.9431873219   -1.5045444000    0.1128327544
 H    0.4205532290    2.2941739050   -0.2117038026
 H   -1.1069384417    1.7698925035   -0.9653845523
 H   -0.9695695814    1.8494226554    0.8038613070
 H    0.8959187372   -1.1162032000   -1.7508977902
 H    1.4207851487    0.5897914910   -1.8084902230
 H    2.9392760658    0.1401609178    0.1134980935
 H    2.4104623515   -2.2111733228    1.3877009308