16

 N   -0.0792164816    1.4888117838   -0.1751835763
 C   -0.0719740333    0.0883796582   -0.0323198106
 C   -1.0865178607   -0.8285003313    0.1080998836
 C   -2.4649305445   -1.3861864793   -0.2066231324
 C   -1.7103851310   -2.7574738913   -0.3888974399
 N   -0.5208271304   -2.0698357233    0.1637996922
 N    0.8229848896   -2.0646451177   -0.0516799458
 C    1.0818680903   -0.7612810543   -0.0836063781
 O    2.3404511296   -0.2687496885   -0.1464105734
 H    0.8636279796    1.8558284514   -0.1222602475
 H   -0.6419279568    1.9476543552    0.5307674232
 H   -3.1971968818   -1.3653525725    0.6042784077
 H   -2.9248183975   -1.0010891513   -1.1187952535
 H   -2.0453649881   -3.6171828968    0.1964675913
 H   -1.5921654000   -3.0370309816   -1.4394755056
 H    2.9401380065   -1.0236300004   -0.1904312850