16

 N    0.1512243190    1.1748568731   -0.9342995579
 C    0.0993022960    0.0187198505   -0.4199527026
 O    1.0741239441   -0.9413721499   -0.5073592147
 C    0.6506970967   -2.1121705261    0.2009872076
 C   -0.7044173379   -1.7673520337    0.7403879640
 C   -1.0178370954   -0.5239497647    0.3738556223
 C   -2.2424743902    0.3010521244    0.6445594654
 C   -3.2539134033   -0.3790876581    1.4432683489
 C   -4.0790282559   -0.9521283258    2.1024838646
 H    1.0287632078    1.3136632702   -1.4364724601
 H    0.6334530623   -2.9629736335   -0.4931711568
 H    1.3823386443   -2.3374670855    0.9883635697
 H   -1.3086817008   -2.4422175578    1.3307714801
 H   -1.9333120781    1.2347730028    1.1329307537
 H   -2.6660507224    0.6226043785   -0.3162290968
 H   -4.8199237863   -1.4423477945    2.6840345326