14

 O    0.0350380880    0.0183877530    0.0179035866
 C    0.0246648342    1.2207876328    0.0310510355
 N   -0.9845482599    2.1603843157    0.0659618560
 C   -0.1016198109    3.3350847707    0.0523995634
 C    1.0646762562    2.3304751158    0.0165344461
 C    2.3800173902    2.3305739824    0.7385724415
 C    2.3441698146    2.3429911449   -0.7672385759
 H   -1.9883757662    2.0704398108    0.0817061039
 H   -0.2075550677    3.9649802836   -0.8373433929
 H   -0.1640636011    3.9526625849    0.9547554709
 H    2.6749517362    3.2401960260    1.2510819582
 H    2.6649193646    1.4110966978    1.2388044335
 H    2.6039879133    1.4316413714   -1.2952537191
 H    2.6150850386    3.2607724902   -1.2784214879