19

 C   -0.8973311363    1.1198716036   -0.1288238509
 C   -0.0390357317   -0.1387930659   -0.0984798897
 C    1.1164802953   -0.1751042989   -1.1368450292
 O    1.7228542151    1.0906626707   -1.3894676431
 C    2.0952375108   -1.1409838491   -0.5058021381
 C    1.8681344920   -1.2901262068    0.7975921972
 C    0.6618946077   -0.4805759765    1.2617730065
 C    1.0958967697    0.6846187256    2.0329073719
 C    1.4818492466    1.6412009966    2.6528301626
 H   -0.2994139578    2.0142038026    0.0556563258
 H   -1.3730561335    1.2324481369   -1.1081468446
 H   -1.6870197877    1.0751864143    0.6280441746
 H   -0.6705317029   -1.0077811086   -0.3191062918
 H    0.7521615128   -0.5028158452   -2.1156219446
 H    2.1514358130    1.3713497560   -0.5718671066
 H    2.9218550481   -1.5735889038   -1.0577487767
 H    2.4699016795   -1.8625056678    1.4940595284
 H   -0.0089110072   -1.0785546525    1.8911143905
 H    1.8106340564    2.4830945388    3.2104781678