15

 C    0.4086517827    1.5540766899    0.1876599617
 N    1.2014212404    0.4154634728   -0.2638968194
 C   -0.2177969552    0.2016667209    0.1083351658
 C   -0.4679438959   -0.6042546396    1.3272373912
 N    0.3070441703   -0.4008441720    2.4003585594
 C    0.0214841527   -1.1685604641    3.4458089567
 N   -0.9469923104   -2.0862290543    3.5099117881
 C   -1.6607475747   -2.1876769917    2.3890436749
 N   -1.4762037212   -1.4850612889    1.2728031977
 H    0.6856584263    1.9304585569    1.1671316908
 H    0.0787428772    2.2989277165   -0.5317794108
 H    1.2730404715    0.4156983097   -1.2786217755
 H   -0.9359251838    0.0127879209   -0.6825291249
 H    0.6324173862   -1.0355256156    4.3364204110
 H   -2.4712712262   -2.9137688114    2.3837889335