21

 O    0.0189671258    1.4668641015    0.0232513614
 C    0.0408495548    0.0501408183    0.1046749090
 C   -1.4036352385   -0.4322670964    0.0224330766
 C   -2.0260758959    0.0020455751   -1.2932832064
 O   -3.1606720326    0.3797604380   -1.4249109794
 C   -1.5006968963   -1.9605320273    0.1349809767
 C   -1.1448077616   -2.6370215161    1.4927018048
 C   -2.3355077359   -3.6087418375    1.2733813593
 C   -2.9079316790   -2.6166903834    0.2255393684
 H    0.9250961052    1.7891245904    0.0301826589
 H    0.6217963412   -0.3891382663   -0.7242281814
 H    0.4973193777   -0.2962895764    1.0437100987
 H   -1.9876537929    0.0266480435    0.8280282138
 H   -1.3491396229   -0.1034180624   -2.1754265494
 H   -0.9233919227   -2.4260311213   -0.6739472294
 H   -0.1458750679   -3.0659694417    1.6035423545
 H   -1.3274316492   -1.9574840707    2.3316251628
 H   -2.0130967735   -4.5468117810    0.8127630529
 H   -2.9582296988   -3.8453525586    2.1387717047
 H   -3.6362006041   -1.9289550342    0.6646277705
 H   -3.3349834229   -3.0279287034   -0.6916092871