18

 C   -0.2227535012    1.3649875390   -0.0272917508
 N    0.0407668924   -0.0566231330    0.0522086313
 C    0.7061659694   -0.6252744423    1.0760182153
 C    1.3580315569   -0.0585753888    2.1269143337
 C    1.8847344995   -1.0884755050    3.0130167660
 O    2.5517894822   -0.9461864218    4.0170407638
 C    1.4113654257   -2.4555208820    2.4667835640
 C    0.8017432666   -2.1466212274    1.0932250372
 O   -0.4420414603   -2.7671214745    0.7815379573
 H    0.7175907437    1.9263227403   -0.0406967618
 H   -0.7616943968    1.5799303027   -0.9517293484
 H   -0.8209818807    1.7233707814    0.8217183903
 H   -0.5376603434   -0.6851984408   -0.4843518434
 H    1.4804076501    0.9977767542    2.3229975822
 H    2.2339792004   -3.1731566055    2.4357459849
 H    0.6529903763   -2.8658451309    3.1443289039
 H    1.4682337943   -2.4679750907    0.2846734392
 H   -1.0395996052   -2.6139125648    1.5227866054