16

 C   -0.0534508585    1.3750642273    0.1250325145
 N   -0.1352816743    0.0411197772   -0.4345304900
 C   -1.0787767257   -0.6880769408   -0.0547675665
 O   -1.1734302530   -1.9671263454   -0.5431585879
 C   -2.2702974217   -2.6827415148   -0.2281660880
 C   -2.4061075337   -3.9807157302    0.1407122796
 C   -3.8228255567   -4.1960234647    0.2454586479
 C   -4.4200896485   -3.0183587001   -0.0602715260
 O   -3.4737854241   -2.0731212694   -0.3635640832
 H    0.9093978678    1.4966259098    0.6330001575
 H   -0.0813392715    2.1100697624   -0.6866249381
 H   -0.8571475444    1.6130304554    0.8395995261
 H   -1.8717956201   -0.4244388070    0.6539719156
 H   -1.6068252829   -4.6810829465    0.3151225443
 H   -4.3205821180   -5.1130210749    0.5189291663
 H   -5.4413054748   -2.6814949785   -0.1071731821