17

 C   -0.0637693911   -1.1863408454   -0.2031648992
 C   -0.0741138660    0.0152727021   -0.1784513821
 C   -0.0471265825    1.4722054994   -0.1427293224
 C    1.3621252739    2.0057643806    0.1481313589
 C    2.3532167707    1.8813579137   -1.0382484283
 N    2.0553462394    3.2888570439   -1.3986556331
 C    1.5330442185    3.5512809012   -0.0432816406
 C    0.3480086557    4.4085191345    0.0247806634
 N   -0.5925015994    5.0763187423    0.0996413184
 H   -0.0745040485   -2.2479049693   -0.2268381160
 H   -0.3974940952    1.8768171420   -1.1000718627
 H   -0.7443278100    1.8408387667    0.6196848880
 H    1.7176863933    1.6290499266    1.1071897043
 H    3.3838522555    1.7039055599   -0.7036597342
 H    2.1001266693    1.1540175067   -1.8149950432
 H    2.8393978646    3.8652453408   -1.6828121957
 H    2.2758409816    3.9452015941    0.6654009149