23

 C    0.0351755236    1.6122017219    0.2485446382
 C    0.0216127623    0.0984588451    0.0091364622
 C   -1.4010283944   -0.4857086689   -0.0580529027
 C   -2.0862965071   -0.0427917308   -1.3370255483
 O   -3.2227220560    0.3499402403   -1.4191006503
 C   -1.4355170901   -2.0503435461    0.0983110214
 C   -2.8851623983   -2.5443363066    0.1868218125
 C   -0.6852163438   -2.7738432133   -1.0235704168
 O   -0.7385441065   -2.4061867845    1.2951764192
 H    1.0600162628    1.9935296644    0.2863716889
 H   -0.4916148470    2.1550850137   -0.5441999535
 H   -0.4512905495    1.8669745603    1.1964987094
 H    0.5538255752   -0.1255985060   -0.9242853181
 H    0.5625283501   -0.4181128204    0.8065112041
 H   -2.0024793430   -0.0813242939    0.7670453256
 H   -1.4419999583   -0.1063491086   -2.2463411935
 H   -3.4490284063   -2.3265387855   -0.7237215950
 H   -2.8950702310   -3.6244463912    0.3576176559
 H   -3.4114249707   -2.0584866248    1.0169113362
 H    0.3617408331   -2.4646479265   -1.0615348751
 H   -0.7101351221   -3.8509309665   -0.8382633091
 H   -1.1432206866   -2.5825045891   -1.9982843799
 H   -1.2644854866   -2.1060721130    2.0449089487