19

 C    0.2587787425    1.5732766108    0.0780616575
 C    0.0661956988    0.0512698518    0.0249768474
 C    0.8011052696   -0.6268364510   -1.1620446607
 C    1.4875962120   -1.8990531858   -0.6070815817
 O    0.8787398849   -3.1332713909   -0.9945318318
 C    2.9412050459   -2.0471119785   -1.0626164594
 O    3.6461138911   -1.1416595898   -1.4210974180
 C    1.4212689265   -1.6965720161    0.8963036266
 C    0.6356082977   -0.6716171931    1.2232483021
 H    1.3219107368    1.8273049583    0.1428363718
 H   -0.1485389967    2.0477251540   -0.8203198100
 H   -0.2481773888    2.0086843824    0.9457249178
 H   -1.0152404842   -0.1443608305   -0.0245257661
 H    0.1405550918   -0.8881813299   -1.9916889136
 H    1.5799980417    0.0386267363   -1.5458872236
 H    0.0707401093   -3.2321177231   -0.4800518995
 H    3.3030594907   -3.0971309632   -1.0127015647
 H    1.9220361706   -2.3680967968    1.5849772298
 H    0.4034143599   -0.3705512348    2.2405638860