18

 C    0.3210076575    1.4327186033    0.3960344912
 C    0.2065565028   -0.0200556428   -0.0047357862
 O    1.2224898224   -0.3667133406   -0.9148875670
 C    1.3549764403   -1.7751726901   -0.7977472743
 C    1.1218117781   -2.0278953367    0.7032149252
 C    2.4075701499   -2.0790428096    1.5262855460
 O    2.1340996872   -2.0218935336    2.9089809863
 O    0.3775120080   -0.8739623896    1.1233957390
 H    1.3083755878    1.6212637656    0.8244456469
 H    0.1800953380    2.0733122665   -0.4782685384
 H   -0.4454932496    1.6753262672    1.1361467355
 H   -0.7820646056   -0.2327362675   -0.4531847321
 H    0.6072560054   -2.2954276510   -1.4139514262
 H    2.3549234481   -2.0567358718   -1.1376144178
 H    0.5193803319   -2.9244141048    0.8904904534
 H    2.9352802240   -3.0213603753    1.3397893539
 H    3.0627812568   -1.2525564878    1.2039261954
 H    1.5337442069   -1.2746769913    3.0231589892