18

 C    0.0629039538    1.5923823977    0.0108249664
 C    0.0327043051    0.0560596513    0.0720813455
 C    0.8257636381   -0.4969872808    1.2682032519
 O   -1.3464072856   -0.4314034133    0.0979864757
 C   -2.1657342485   -0.0979936764    1.1255467925
 N   -3.4085256224   -0.6143839373    0.8876884983
 O   -1.8752572894    0.5700398764    2.0926859079
 C    0.5712489394   -0.4987647811   -1.1756485092
 C    1.0559659529   -0.9310378569   -2.1857418494
 H    1.0929924477    1.9279473479   -0.1343030355
 H   -0.5354755247    1.9441548085   -0.8331184827
 H   -0.3302879413    2.0108478536    0.9368622588
 H    0.4344487543   -0.0854977488    2.1980366182
 H    0.7546825006   -1.5872481291    1.2914004098
 H    1.8786938975   -0.2238993576    1.1608028863
 H   -3.5174203361   -1.3186995685    0.1783580813
 H   -4.0473294199   -0.6124881927    1.6637738301
 H    1.4776136185   -1.3160798431   -3.0813058059