17

 O    0.0649961337   -0.1501791095    0.1878736538
 C    0.0263924970    1.0308933405   -0.0375614369
 C    1.2221488075    1.9563805509   -0.0204666501
 C    1.3905474614    2.6943824411   -1.3601250074
 C    2.4801915179    3.7470569252   -1.3053998573
 C    2.5367397464    4.7960258662   -2.4317776671
 C    2.1916458183    5.7797304513   -1.3129819671
 O    2.0039202462    6.9445813386   -1.1848353445
 O    2.1572314631    4.8113675928   -0.3373687457
 H   -0.9367624904    1.5359100207   -0.2877627116
 H    1.0577106320    2.7049540602    0.7666140251
 H    2.1124805048    1.3747545993    0.2353027425
 H    1.6373601031    1.9810744660   -2.1562275314
 H    0.4462298997    3.1772259417   -1.6427752919
 H    3.4480946386    3.3113435871   -1.0414616077
 H    3.5104972499    4.9669902649   -2.8928624883
 H    1.7729355111    4.7089047632   -3.2070141645