21

 C   -0.0294654981    1.5464081864    0.0206891356
 C   -0.0282844237    0.0350360268    0.0021483590
 C    0.3132530049   -0.7696811495   -1.3375301198
 C   -0.3935452625   -1.8977443646   -0.5502260676
 C   -0.7614533837   -3.3738288675   -0.3225063037
 O   -0.2453289641   -3.2513857244    1.0461843811
 C    0.5770909036   -2.1327054138    0.5887503880
 C    0.7342969395   -0.7058871939    1.1570563524
 C   -1.3321899960   -0.8079092225    0.0180729201
 H    0.9852765259    1.9470903327   -0.0844005810
 H   -0.6359273259    1.9555514567   -0.7941914564
 H   -0.4375243460    1.9259436188    0.9647151550
 H   -0.2428432101   -0.3535055979   -2.1814048327
 H    1.3617567465   -0.9227249101   -1.6099060177
 H   -1.8206218285   -3.6462003022   -0.3370255632
 H   -0.1741988474   -4.1014546379   -0.8984089028
 H    1.5463745927   -2.5383534314    0.2656430057
 H    1.7844665218   -0.4162401433    1.2583986834
 H    0.2377448464   -0.5364231176    2.1166223590
 H   -1.8160996381   -0.9926702836    0.9805112412
 H   -2.0642445373   -0.4760027112   -0.7239655656