19

 C   -0.0615834049    1.5904878949    0.2255445104
 C    0.0896769720    0.1012844157    0.0080494931
 C    0.5372372804   -0.6315710228   -1.1995960138
 C    1.6869838439    0.0052831403   -1.9761792592
 C    1.4101628462    1.2078042007   -2.8955840937
 C    2.6383350669    1.7469647027   -3.4775992835
 N    3.6236990319    2.1573709695   -3.9205772870
 C    2.4173234238    0.1444897521   -0.6152094378
 N    1.3538996281   -0.6548663362    0.0987653088
 H   -1.0310449089    1.9268555008   -0.1569400568
 H   -0.0347011472    1.8108029430    1.2981397478
 H    0.7119997364    2.1946532663   -0.2493538790
 H   -0.6779308681   -0.4574009290    0.5434967325
 H    0.0069224010   -1.5155531589   -1.5436462933
 H    2.1884248187   -0.7622926124   -2.5709600680
 H    0.7448191680    0.8993153694   -3.7110121224
 H    0.8967482093    2.0125532694   -2.3626928491
 H    3.3685451908   -0.3865652035   -0.5716701139
 H    2.5667484816    1.1548260581   -0.2244024251