21

 C   -0.0888857859    1.5106853573    0.0909470118
 C    0.0228454896    0.0223173174   -0.0058502166
 C   -0.0345425615   -0.7268079170   -1.1152756036
 C    0.0429576661   -2.2041757257   -0.8058703029
 C    1.0636505872   -3.1562161929   -1.4710826210
 C    1.5051189644   -4.0835604468   -0.3013463243
 C    1.3273852909   -3.1906970959    0.9163737948
 C    0.5200086303   -2.1721066042    0.6372098510
 C    0.1851689550   -0.8403739720    1.2479580371
 H    0.8026175183    1.9469126912    0.5598988220
 H   -0.2149751787    1.9706707591   -0.8931247320
 H   -0.9422594805    1.8052913853    0.7158567404
 H   -0.1851370950   -0.3281403861   -2.1136476077
 H   -0.9644987062   -2.6497340722   -0.8845267010
 H    0.6601606003   -3.7055815078   -2.3265402481
 H    1.9286502528   -2.5798443165   -1.8178192094
 H    0.8735544501   -4.9825159998   -0.2430263729
 H    2.5353122874   -4.4388143698   -0.4150106610
 H    1.8391546300   -3.3649769045    1.8566190391
 H    0.9608740459   -0.4690607330    1.9287411216
 H   -0.7530175004   -0.8509209862    1.8254640526