25

 C   -0.1463691806    1.5961529381    0.0858336544
 C    0.0044835161    0.0756514737   -0.0057435657
 C    0.6605610776   -0.5394729803    1.2340544471
 C    0.8769132301   -2.0554605466    1.1262885812
 O    1.6797201584   -2.3877399831   -0.0114521365
 C    1.4562513643   -2.6315816164    2.4015169396
 C    0.5618956836   -3.1723086978    3.4955105273
 C    1.4376650098   -4.1123361981    2.7033230722
 C    0.8465572602   -5.1312715110    1.7527075446
 H    0.8279940561    2.0853910417    0.1980306140
 H   -0.6207366656    2.0049105212   -0.8119806089
 H   -0.7594552832    1.8853976161    0.9470317112
 H   -0.9826602374   -0.3826904179   -0.1535782895
 H    0.5978399711   -0.1931463331   -0.8860176075
 H    1.6351329047   -0.0594341938    1.4135290835
 H    0.0529334833   -0.3339978561    2.1251873635
 H   -0.0890879109   -2.5298852830    0.9170252869
 H    2.5768708533   -2.0871274352    0.1715368542
 H    2.3425039960   -2.0973888988    2.7440158138
 H    0.8092981418   -2.9559247352    4.5290568584
 H   -0.5053640937   -3.2003711632    3.2940996623
 H    2.3194363907   -4.4709843427    3.2291828637
 H   -0.0861248677   -4.7787032207    1.3037434393
 H    1.5373336601   -5.3577477021    0.9345502562
 H    0.6225163619   -6.0651176858    2.2799246447