18

 C    0.0715921413    1.5719583268    0.1359293658
 C    0.0164720310    0.0507341252   -0.0840122104
 C   -1.3842649050   -0.5094046465   -0.0515581238
 C   -2.0154630710   -0.9520966746   -1.1746344841
 N   -3.2889528383   -1.4363158936   -1.1290361685
 C   -4.0879463955   -1.5425057545    0.0256509483
 O   -5.2201774551   -1.9927895996   -0.0481870488
 C   -3.4016161844   -1.0738472495    1.2155509395
 C   -2.1308337237   -0.5898513870    1.1671903654
 H    1.1054326892    1.9310877294    0.1273333442
 H   -0.4811366211    2.0997481102   -0.6475647110
 H   -0.3718405919    1.8502685287    1.0974532246
 H    0.4811397823   -0.1941413702   -1.0459213179
 H    0.6257335618   -0.4444530369    0.6831517649
 H   -1.5468357722   -0.9453085705   -2.1525350998
 H   -3.7387392695   -1.7627596903   -1.9730782140
 H   -3.9579890374   -1.1365462184    2.1426680850
 H   -1.6551154405   -0.2544616987    2.0857917508