15

 C   -0.0103434984    1.4746958696   -0.1367850446
 C   -0.0268851199   -0.0182538414   -0.0653442006
 C   -1.1389569334   -0.7706467582   -0.1345356559
 C   -1.0119417903   -2.2034513388   -0.0523457710
 O   -2.1568120612   -2.9111596144   -0.1266966779
 N    0.0906977955   -2.8529436394    0.0846503163
 O    1.2572485179   -2.0789962459    0.1581459725
 C    1.2610994552   -0.7020890496    0.0911466962
 N    2.3561286321   -0.0593473970    0.1643016319
 H    0.6150101255    1.8055913484   -0.9716614519
 H   -1.0189635500    1.8770578440   -0.2529524542
 H    0.4487200245    1.8905187105    0.7653618620
 H   -2.1294166535   -0.3463803653   -0.2497803487
 H   -1.9208071121   -3.8478564927   -0.0583258158
 H    3.1440597283   -0.7000841997    0.2709794916