17

 O   -0.0256355575   -0.0320368973    0.1714272052
 C   -0.0080953647    1.1633065135   -0.0408756876
 C   -1.3018719537    1.9774317709   -0.1121598859
 O   -1.1805673807    3.1344251954   -0.9264852595
 C   -0.1217069208    3.9706373296   -0.5636134729
 C   -0.1560567387    5.3223291365   -1.2235537980
 C   -0.4645848436    5.2243015228    0.2457583245
 C    1.1561345227    3.2863219557   -0.3195217150
 C    1.2255012417    1.9570196100   -0.1474510422
 H   -2.0924090151    1.3629784246   -0.5463808379
 H   -1.5979085732    2.2415941213    0.9178388547
 H    0.7839511306    5.7632039172   -1.5357607753
 H   -0.9864256875    5.4808668330   -1.9016924698
 H   -1.5021385877    5.3096076297    0.5467326764
 H    0.2583286854    5.5957535750    0.9630694063
 H    2.0483559261    3.9066460092   -0.2836595978
 H    2.1651360268    1.4351441027   -0.0023244952