13

 O    0.0222743296    1.4181451504   -0.1368890216
 C   -0.0235846965    0.0166615198   -0.0499806036
 C    0.5981505977   -0.4812615247    1.2765195117
 O    1.6681692898   -0.1646590301    1.7300362826
 N   -0.3444162143   -1.3200846767    1.8539071950
 C   -1.5302258942   -1.3007660748    1.1294117631
 C   -1.4337137361   -0.5335161026    0.0249771471
 C   -2.4378110827   -0.3274889509   -0.9433028880
 N   -3.2513677755   -0.1493924827   -1.7498259665
 H    0.9106541697    1.6842694887    0.1355284445
 H    0.5221677905   -0.4596245764   -0.8826451666
 H   -0.2371519328   -1.7136950035    2.7757528217
 H   -2.3793218351   -1.8764938264    1.4683629205