20

 C    0.1581427635    1.6307627943    0.0933088975
 C    0.0073913653    0.1063238380   -0.0073199097
 O    0.4331510562   -0.3279538836   -1.3123139332
 C    1.7379010203   -0.3603237951   -1.6784526232
 N    2.8158128474   -0.5278600517   -1.0514187668
 C    3.0085537829   -0.8290072916    0.3454434169
 C    1.8806431409   -0.9891398305    1.3421049278
 C    2.3248621346   -1.6289397890    2.6348027973
 C    0.6174737723   -0.6031771851    1.1685039737
 H    1.2142726544    1.9137974070    0.0642102519
 H   -0.3632780668    2.1183307045   -0.7353374013
 H   -0.2640875770    1.9922387790    1.0355499159
 H   -1.0611855140   -0.1323229056   -0.0231460282
 H    1.7864541778   -0.2400405654   -2.7623663712
 H    3.6007503504   -1.7569884700    0.3672959547
 H    3.7040964677   -0.0762181276    0.7518853570
 H    2.6759755880   -2.6551547358    2.4681575532
 H    3.1669688073   -1.0806243101    3.0765610818
 H    1.5173733429   -1.6601957362    3.3700213625
 H   -0.0796689442   -0.7521890456    1.9912462137