14

 C   -0.0510329879    0.8585190417   -0.6570733655
 C    0.1735654541   -0.1176842759    0.4948389266
 O    0.4817730526    0.5582319236    1.7088678519
 C   -1.0766628465   -0.9567731322    0.8169453129
 C   -1.4671535903   -1.8520271882   -0.2626853359
 C   -1.7734788173   -2.5885589416   -1.1620435066
 H    0.8616473624    1.4283392582   -0.8663605064
 H   -0.3309602875    0.3242823368   -1.5691708023
 H   -0.8473713644    1.5666080976   -0.4048609691
 H    0.9866987629   -0.8109768831    0.2271174003
 H    1.2132288457    1.1591198416    1.5367446398
 H   -0.8691026062   -1.5318373416    1.7266823629
 H   -1.8991439089   -0.2730335033    1.0623741414
 H   -2.0524421088   -3.2427905937   -1.9503464601