22

 C   -0.2929767796    1.3635305604    0.0797309149
 O    0.0246104824    0.0003982917   -0.0534635590
 C    0.6012974346   -0.5454663843    1.1128329569
 C    0.8822159343   -2.0250147866    0.8659352726
 C    1.5350323387   -2.6837508230    2.0462868807
 C    3.0041490035   -2.5226162731    2.4903153848
 C    2.9906018208   -4.0094501557    2.9791950681
 C    1.5263385812   -4.1087827451    2.5311037373
 N    0.7042942744   -3.0908383096    3.1802105414
 H    0.6005568650    1.9747352270    0.2871687857
 H   -0.7324683617    1.6928097271   -0.8652162117
 H   -1.0198452915    1.5384157872    0.8892455506
 H    1.5345295535   -0.0101505944    1.3639148495
 H   -0.0791120112   -0.4322304611    1.9732404508
 H   -0.0629492331   -2.5305211110    0.6448366254
 H    1.5226199238   -2.1195347622   -0.0191466956
 H    3.6921755646   -2.3699338893    1.6547110013
 H    3.1929174993   -1.7474106196    3.2410554473
 H    3.6670998536   -4.6413469716    2.3987867639
 H    3.1727051111   -4.1906531884    4.0441773596
 H    1.0262447509   -4.9838799967    2.1302586911
 H    1.0834336656   -2.8004638915    4.0805205144