12

 O   -0.0243562275   -0.0285388187    0.0662306242
 C    0.0381175741    1.1650495350    0.0364809988
 O   -1.0861274305    1.9628187868    0.0001367437
 C   -0.7062365964    3.3455674413   -0.0142807910
 C    0.8080838529    3.3239165278    0.0090062275
 C    1.2215021359    2.0619348984    0.0391881136
 C   -1.2537540618    4.0362580980   -1.1776304107
 C   -1.6889715908    4.6302931508   -2.1256221627
 H   -1.1006806541    3.8067604090    0.9025080523
 H    1.3950687750    4.2318794908   -0.0062553146
 H    2.2300727036    1.6770005927    0.0624192582
 H   -2.0824705604    5.1464661881   -2.9668976294