14

 C   -0.0253196454    1.5020399911   -0.0526502431
 N    1.3451644073    2.0371849749    0.0377846198
 C    2.3480323818    1.2839012663    0.2605357464
 N    2.3537036767   -0.0892334242    0.4686149156
 C    1.1365766449   -0.7110986679    0.2303251773
 C    0.0228948915    0.0142994581   -0.0037277673
 O   -0.9995435036   -0.8808901318   -0.1947660012
 C   -0.4092334779   -2.0914166659   -0.0598050486
 N    0.8645191911   -2.0612310073    0.1962402530
 H   -0.6240958159    1.9324405844    0.7651320279
 H   -0.4846044242    1.8731927742   -0.9800125667
 H    3.3368162505    1.7377461016    0.3196421578
 H    3.2110820432   -0.6123143961    0.3947248487
 H   -1.0419186899   -2.9566354476   -0.1743347896