18

 C    0.0444528390    1.4836072931    0.0127469865
 C    0.0331729168    0.0285434232    0.0077291614
 C    0.0301898609   -1.1759361460    0.0229482052
 C   -0.0065862578   -2.6427608055   -0.0367664100
 N   -1.3689280383   -3.2152856211    0.0094485184
 C    0.6659769359   -3.1451036914   -1.3717488331
 N    0.7476622684   -4.5789034020   -1.5265394301
 C    0.7554988006   -3.2048281791    1.0981007089
 N    1.3751657896   -3.6577327533    1.9615929527
 H    0.6729566348    1.8665582628    0.8237713788
 H    0.4361897218    1.8806072062   -0.9297727863
 H   -0.9638853687    1.8877079847    0.1529259701
 H   -1.7942898999   -3.0111753994    0.9096925827
 H   -1.9302296895   -2.7283780865   -0.6857408554
 H    0.0653124061   -2.7182749184   -2.1839373462
 H    1.6636317601   -2.7040036981   -1.4392083760
 H    1.4017253108   -4.9698538914   -0.8546247910
 H   -0.1597282407   -4.9894164779   -1.3234585368