16

 C   -0.0694198495    1.5326853434   -0.0852130179
 C    0.0009580968    0.0334819102   -0.0085927714
 C   -0.8026446357   -0.7773453034    0.9596502585
 C    0.7164031794   -0.8180997421    1.1005595824
 N    1.4197483723   -1.8822195368    0.4334274051
 C    1.1936828730   -1.7378180778   -0.8228042608
 N    0.3709037391   -0.6939326277   -1.1989005191
 C    1.3196056492   -0.2407236714    2.2695335083
 N    1.7763557493    0.2734182785    3.1998884715
 H    0.8474581695    1.9500081946   -0.5143062733
 H   -0.9198741513    1.8570463484   -0.6954535714
 H   -0.1941906644    1.9564303444    0.9140744992
 H   -1.3318422956   -0.2278205753    1.7296967194
 H   -1.2832220243   -1.6885015504    0.6193361810
 H    1.5908747850   -2.4062584733   -1.5790026661
 H    0.5458620671   -0.1920997214   -2.0571308355