16

 C    0.0934021594    1.3948835695    0.1530078191
 C    0.0466829134   -0.0509728275    0.0288087195
 C   -0.0147285943   -1.2522110115   -0.0764661097
 C   -0.0892276417   -2.6877987092   -0.2222458168
 O   -1.1270366366   -3.2801463671   -0.3993068319
 C    1.2730142901   -3.4056016358   -0.1101931914
 C    1.7887789691   -3.3530937573    1.3484900809
 C    1.1836916688   -4.7842603374   -0.5914311187
 N    1.1589806568   -5.8780405488   -0.9608177655
 H    1.1205662080    1.7696043040    0.1024015959
 H   -0.4856977588    1.8704979039   -0.6455336951
 H   -0.3375612427    1.7115510860    1.1090266605
 H    1.9832323586   -2.8654617272   -0.7483995332
 H    2.7755814262   -3.8155629807    1.4161540445
 H    1.8618965732   -2.3135935332    1.6757473318
 H    1.1067377905   -3.8879021276    2.0137529699