23

 C   -0.0317373266    1.5636678288   -0.0786684853
 C   -0.0115993852    0.0318001644    0.0015834461
 O   -1.3515785317   -0.4541359123    0.0182352106
 C    0.8306941642   -0.5369805957   -1.1812784992
 C    2.2002163602   -0.7035522290   -0.5736279342
 C    2.1473413506   -0.6699398550    0.7561735058
 C    0.7323009064   -0.5106192396    1.2830413001
 C    0.6530240300    0.4151673937    2.5070163242
 C    0.1854311575   -1.8998636721    1.6859716012
 H    0.9795007759    1.9803424146   -0.0684339969
 H   -0.5052059354    1.8752251153   -1.0182783432
 H   -0.6006568280    1.9967399041    0.7469311329
 H   -1.8286549471   -0.0268528968   -0.7002775974
 H    0.4137372525   -1.4994188162   -1.5063461106
 H    0.8188394775    0.1256083840   -2.0555516089
 H    3.0960675366   -0.8567742652   -1.1654433199
 H    2.9924545303   -0.7965634557    1.4256857661
 H    1.1270744313    1.3842739684    2.3306043751
 H   -0.3877842708    0.5888425936    2.7999615061
 H    1.1605648726   -0.0490654857    3.3596022682
 H    0.8098741717   -2.3290270073    2.4769673798
 H   -0.8398509057   -1.8222903608    2.0560295606
 H    0.1867901632   -2.5939249453    0.8419270888