18

 C   -0.7702399962    1.2351348616   -0.3400208889
 C   -0.4035250393   -0.2177273388   -0.5493319343
 C    0.5368384804   -0.8057659239   -1.5842474068
 C    1.8223292913    0.0036289982   -1.7684679215
 C    1.8659176125    1.3126878419   -2.5268516736
 O    1.9844206003    0.1278490305   -0.3162455906
 C    0.9140316716   -0.7941828878   -0.1022037109
 C    1.0885022900   -1.8489428115    0.8444083942
 N    1.2088075634   -2.7060722505    1.6126521186
 H   -1.3626820204    1.6195096931   -1.1763331700
 H   -1.3686227609    1.3383672362    0.5703486617
 H    0.1215573645    1.8528362004   -0.2260757239
 H   -1.2184939056   -0.9162799019   -0.3676665050
 H    0.2515041899   -1.6527133778   -2.1937201995
 H    2.6161872360   -0.6613082170   -2.1328448261
 H    2.8212212019    1.8150325360   -2.3444327160
 H    1.7921042552    1.1128861855   -3.6011927561
 H    1.0578496553    1.9884013156   -2.2453119814