17

 C   -0.2331662220    1.5082867615    0.0510087994
 C    0.0819759299   -0.0047724819   -0.0145130656
 C    0.8561275422   -0.3449169204   -1.2087181050
 C    1.5092737786   -0.6135861188   -2.1822717109
 C    0.7760330221   -0.4678158303    1.2452538163
 N    0.2998803111   -0.3269863830    2.4636925643
 C    1.2454983185   -0.8830797851    3.2942259421
 C    2.3020043885   -1.3646382565    2.5676656134
 N    1.9868191321   -1.0906690444    1.2553362773
 H    0.6911175347    2.0915540078    0.0669483028
 H   -0.8235279083    1.8125389375   -0.8169642056
 H   -0.7936205329    1.7149252547    0.9645048030
 H   -0.8768831156   -0.5383260886   -0.0696505347
 H    2.0620374770   -0.8479893411   -3.0585136249
 H    1.1100122494   -0.9053979775    4.3648827344
 H    3.2181036535   -1.8585028195    2.8447386570
 H    2.5300482313   -1.3043019645    0.4344263269