19

 C   -0.3334255560    1.3052721482   -0.0993441272
 O    0.2649535940    0.0333731894    0.0857646099
 C    0.7997658410   -0.5132206543   -1.0715443795
 C   -0.1082040756   -1.1641786596   -2.0628583240
 C    0.8328782464   -2.0211176139   -1.2014146687
 C    2.1381607127   -2.3895649788   -1.8263350941
 O    2.6384939835   -3.4863554073   -1.8476624683
 C    2.7761336160   -1.1049880335   -2.3843080200
 C    2.1215356085    0.0518564989   -1.6003416396
 H    0.4008363060    2.0654472669   -0.3994389380
 H   -1.1300439698    1.2698085412   -0.8555645332
 H   -0.7643572294    1.5934589110    0.8617038161
 H   -1.1528555401   -1.2414745835   -1.7837044971
 H    0.0752552616   -1.0765533020   -3.1288943859
 H    0.3907478865   -2.6794872088   -0.4654127436
 H    3.8617051782   -1.1529490670   -2.2826515436
 H    2.5600817273   -1.0460093761   -3.4578813733
 H    1.9851812084    0.9526885260   -2.2067320322
 H    2.7365660108    0.3224605632   -0.7355850877