9

 C   -0.0478653981   -1.2249459022   -0.0040577385
 C   -0.0074990859   -0.0254089728    0.0019798973
 C    0.0253578888    1.4380295789    0.0095301156
 C    1.3795342700    1.9938244221   -0.0004317440
 C    2.4846082810    2.4621179786   -0.0084700013
 H   -0.0782401306   -2.2863303134   -0.0094381026
 H   -0.5303977177    1.8187347073   -0.8583480499
 H   -0.5136639047    1.8093294445    0.8919158861
 H    3.4644066073    2.8713026970   -0.0155942129