20

 O    0.0383778735    0.1449155902   -0.7091266093
 C   -0.0208516886    1.2595420443   -0.2816127449
 C   -1.1412645874    2.1710287005    0.2410598965
 N   -0.0874660410    3.0940138912    0.7388114565
 C    1.0054419632    2.3697991546    0.0199301990
 C    2.2406887463    2.0393812616    0.8371928230
 C    2.1222695090    1.1343594461    2.0958551107
 C    3.4646746871    0.4679808431    1.6881003449
 C    3.2641479594    1.0228171968    0.2511906262
 H   -1.7710761369    2.5532162257   -0.5749598406
 H   -1.7905764306    1.7526264863    1.0178868508
 H   -0.2098671155    4.0549411264    0.4423289697
 H    1.3068646364    2.8488583083   -0.9271342829
 H    2.7437120780    2.9770903652    1.1008292674
 H    2.0651215739    1.6284863771    3.0675348285
 H    1.2868161672    0.4330011951    2.0120989744
 H    4.3178989923    0.9357388250    2.1880320135
 H    3.5467086646   -0.6150140781    1.8022466630
 H    2.7644059309    0.2942498686   -0.3928057785
 H    4.1352008384    1.4232881719   -0.2735239676