15

 C   -0.2059139452    1.4311511852   -0.0325291896
 C    0.0805629659   -0.0396473317    0.0543281703
 N    0.5970476088   -0.7281705391    0.9722336768
 O   -0.3208405613   -0.6464350067   -1.1247512577
 C   -0.2475796029   -1.9903103626   -1.2136898128
 C    0.6065255185   -2.8059690288   -1.8820807448
 C    0.0437920936   -4.0877896279   -1.6517583541
 N   -1.0446512195   -4.0400242426   -0.9214127916
 O   -1.2367554136   -2.6840726974   -0.6420023298
 H    0.2886697279    1.8604552003   -0.9089223733
 H   -1.2809725085    1.5957629051   -0.1530499915
 H    0.1389070999    1.9455680379    0.8650843699
 H    0.8443046181   -0.1485123019    1.7706768068
 H    1.4890773536   -2.5328229757   -2.4328968004
 H    0.3959238647   -5.0503824642   -1.9957572983