18

 O    0.1136827299    1.3698972031    0.3472457649
 C    0.0520133986   -0.0029452137    0.0802869307
 C    1.1142643238   -0.5995073501   -0.8107658661
 C    1.1632388929   -0.8086982778    0.6894235881
 C   -1.3331599360   -0.5917845707    0.0637250434
 C   -2.4530196735    0.0823088241    0.7892685453
 C   -2.4643464361    0.0630625145   -0.7342991679
 C   -2.2122793846    1.2651875041   -1.4755951803
 N   -1.9787494384    2.2243455025   -2.0819133011
 H   -0.1067552898    1.8517117821   -0.4603395505
 H    0.8503748884   -1.4391284837   -1.4450729091
 H    1.8314152997    0.0894232736   -1.2419300003
 H    1.9028408568   -0.2477292340    1.2481447445
 H    0.9381406751   -1.7927091789    1.0860456433
 H   -1.3490973210   -1.6767970320    0.0267753366
 H   -3.2050402842   -0.5171379181    1.2883938234
 H   -2.2183619033    1.0301165012    1.2576503862
 H   -3.1693548684   -0.6055695463   -1.2161119013