18

 C   -0.0787404672    1.5551594376   -0.0942484903
 C   -0.0521485221    0.0154540581   -0.0915277416
 C   -1.4578880007   -0.5708867652    0.0533064046
 O   -1.9578690680   -0.1383156540    1.3126589147
 C    0.6708611823   -0.5161646744   -1.3147123287
 N   -0.0113835473   -1.1652561116   -2.1901600123
 O    0.7562065717   -1.5858635943   -3.2684850588
 C    2.0686586743   -0.2541731683   -1.4282388053
 C    3.2472873901   -0.0115583093   -1.4656867593
 H    0.9333135589    1.9666383443   -0.1276654343
 H   -0.6278560616    1.9275051974   -0.9660184629
 H   -0.5778409984    1.9126704135    0.8082247949
 H    0.5220080263   -0.3081159462    0.7869045675
 H   -2.0944680391   -0.2256963908   -0.7738009543
 H   -1.4116199833   -1.6670366286   -0.0046196202
 H   -2.8669558126   -0.4400640866    1.3911881760
 H    0.1100244144   -2.0479254797   -3.8141685067
 H    4.2881869622    0.1940681180   -1.5176654130