15

 N   -0.0654976763    1.4224557734   -0.1545740880
 C   -0.0510363669    0.0340579445   -0.0853918404
 C   -1.1991505526   -0.7504156335   -0.0649585620
 C   -1.0889381898   -2.1447505736   -0.0558560206
 O   -2.1739868023   -2.9743662450   -0.0367723185
 C    0.1763287103   -2.7160319076   -0.0629920294
 N    1.2885293426   -1.9664547683   -0.0770587356
 C    1.1781663373   -0.6585633335   -0.0886005966
 O    2.3131339862    0.0997392522   -0.0971717880
 H    0.8031432413    1.8503288358    0.1317159732
 H   -0.8720854812    1.8680266710    0.2572393397
 H   -2.1778026623   -0.2757694746   -0.0613131191
 H   -2.9774210848   -2.4451648081   -0.0491999048
 H    0.2921315528   -3.7943132230   -0.0537360837
 H    3.0483167657   -0.5267639496   -0.0811450562