19

 C   -0.0087869174    1.5434052483   -0.0257315101
 C    0.0176791082    0.0303663704   -0.0082115227
 C    0.8126151972   -0.6992052424   -1.0855263541
 C    0.6528687784   -1.9947845394   -0.8119787925
 C   -0.2316901846   -1.9996555746    0.4144800285
 C    0.2297390718   -0.8061318974    1.3221802764
 C   -1.2299310263   -0.5468552789    1.7576635147
 C   -1.2886000231   -0.8232668793    0.2350037039
 O   -2.3813875843   -0.7654675283   -0.6026884167
 H    1.0057609768    1.9512086657    0.0427371913
 H   -0.4505121154    1.9085077159   -0.9591379165
 H   -0.5910831292    1.9619774382    0.7998131212
 H    1.3626547435   -0.2238557902   -1.8862328250
 H    1.0328620239   -2.8618875328   -1.3334237829
 H   -0.5391598822   -2.9355644727    0.8835379320
 H    1.1224288959   -0.7938817058    1.9479698562
 H   -1.6800936803   -1.3038178482    2.4074641193
 H   -1.4868483735    0.4589410714    2.0967865945
 H   -3.1069378393   -1.2546053999   -0.1999291977