14

 C    0.1666409469    1.4101924266    0.0371650876
 C   -0.0374647072   -0.0588857648   -0.0198148106
 C   -1.1435453613   -0.8499123196   -0.1838304288
 C   -0.6937643795   -2.1992238146   -0.1509075006
 C    0.6535414573   -2.1171225990    0.0310666542
 O    1.0711131206   -0.8349615851    0.1128604396
 N    1.6406920828   -3.1408512979    0.1424960962
 O    1.2270193062   -4.2961851431    0.0637694846
 O    2.8065849177   -2.8024376234    0.3053898707
 H    0.8421527050    1.7461847495   -0.7567458861
 H   -0.7900781985    1.9223544383   -0.0804641914
 H    0.6080642968    1.7108741167    0.9933282594
 H   -2.1566628664   -0.5028860714   -0.3124022539
 H   -1.2642812205   -3.1075341524   -0.2456133509