21

 C   -0.0239797467    1.4402876670   -0.1903682501
 C    0.0063187946   -0.0478631892    0.0385722396
 O    1.2998744312   -0.6849709329   -0.0014942046
 C    0.5971030598   -0.6661187287    1.2303102659
 C    1.1037575908   -0.0156926274    2.5250251349
 C    0.4193835954   -1.1739398932    3.3221252480
 C    0.1833376699   -1.9087012626    1.9918473305
 C   -0.8285849869   -2.9528581036    1.6268017467
 C    0.6418746890   -3.2961553975    1.6410639654
 H    0.7551594542    1.9424376991    0.3887127630
 H    0.1354659433    1.6703455745   -1.2491432789
 H   -0.9969379450    1.8527446205    0.0991752044
 H   -0.7680987404   -0.6123843623   -0.4851122479
 H    2.1944663124   -0.0402149558    2.5889609836
 H    0.7589402785    0.9990900744    2.7370440197
 H    1.0490084590   -1.6884516314    4.0516808173
 H   -0.5058470285   -0.8610316544    3.8141664573
 H   -1.4557287513   -3.3471450709    2.4202958611
 H   -1.3260823883   -2.8734707044    0.6650778120
 H    1.1456596679   -3.4180171669    0.6880421713
 H    1.0150904309   -3.9274843644    2.4411047307