19

 O   -0.0454911181    1.4380984182   -0.0268497076
 C    0.0141393410    0.0188174923   -0.0108522283
 C   -1.4169565381   -0.5017474079    0.0586945557
 C   -1.4316916041   -2.0325587299    0.1695655930
 C   -0.4497464613   -2.6906921889   -0.7582778509
 C    0.5220360215   -2.0327278346   -1.4121722358
 C    0.7214515316   -0.5338100129   -1.2540368470
 C    1.4142650844   -2.7076679936   -2.2925193981
 C    2.1961125318   -3.2284844667   -3.0477217407
 H    0.8545476540    1.7750463043   -0.0835844889
 H    0.5561280382   -0.3293832766    0.8852445990
 H   -1.9333353997   -0.0432072681    0.9070817291
 H   -1.9431889077   -0.1841114340   -0.8494698580
 H   -1.2092990358   -2.3418856772    1.2023056460
 H   -2.4396637710   -2.4164613635   -0.0318985494
 H   -0.5387475871   -3.7645612405   -0.8966709582
 H    0.3361890612   -0.0092863872   -2.1385564303
 H    1.7957698661   -0.3154200016   -1.2112182077
 H    2.8743212830   -3.7045422017   -3.7113576020