23

 C   -0.1150905633    1.3775336803   -0.0121402920
 O   -0.1693494668   -0.0294538482   -0.0839819959
 C    0.7283771692   -0.5781377744   -1.0427093188
 C    0.6441946331   -2.0853627298   -0.9941113376
 C   -0.3859314318   -2.7533090227   -1.8695136242
 C    1.0734534217   -2.8248027703   -2.2400050382
 C    0.9166152354   -2.7367668270    0.3622709074
 C    2.2577802918   -2.3225155808    0.9790512328
 O   -0.1528923284   -2.5117663379    1.2717318522
 H    0.8878416280    1.7326414477    0.2704085168
 H   -0.3858419986    1.8388256066   -0.9740148102
 H   -0.8324819145    1.6958352401    0.7475210947
 H    0.4685875099   -0.2144019721   -2.0500861207
 H    1.7517104125   -0.2306249458   -0.8265246157
 H   -0.8654515738   -3.6448208955   -1.4813083321
 H   -1.0351873019   -2.1227265644   -2.4674922421
 H    1.4180313869   -2.2457357836   -3.0910253531
 H    1.5934900882   -3.7681777693   -2.1114380242
 H    0.9351801254   -3.8230324463    0.2032957415
 H    2.2693383607   -1.2533550498    1.2146000990
 H    2.4139422840   -2.8685259967    1.9130313856
 H    3.0934371371   -2.5376163034    0.3038911503
 H   -0.3769675047   -1.5747574265    1.1957808746