15

 N   -0.0480523102    1.1986596606    0.3959781901
 C   -0.0324022810    0.0243412749   -0.0647302111
 O    1.0127419779   -0.5518737989   -0.7281216534
 C    0.8403402641   -1.9769232914   -0.8507300918
 C   -0.6466819152   -2.2520697845   -0.6179579274
 C   -1.2028505023   -0.9349377307   -0.0125750650
 N   -2.0892218447   -0.8387731117   -1.1855581932
 C   -1.5584233005   -1.9322427393   -1.8370342345
 O   -1.7262885798   -2.4010501319   -2.9271224650
 H    0.8440526940    1.6679043296    0.2285761540
 H    1.1774465100   -2.2738815793   -1.8467164084
 H    1.4673184106   -2.4707954257   -0.1001268229
 H   -0.8568415635   -3.1902887322   -0.1074663950
 H   -1.7166975672   -0.9365809839    0.9479349629
 H   -2.5690804421   -0.0298824457   -1.5569357996