20

 C   -0.3010265992    2.0109010492   -0.6318343974
 C    0.1694258604    0.6527271652   -0.1144706147
 N    0.5946586710   -0.2167429189   -1.2046807014
 C    1.1396085798   -1.5363272986   -0.9078672357
 C    0.1046204764   -2.5299337162   -0.4588565832
 C    0.2199111816   -2.1844811397   -1.9277067547
 C   -0.3512527664   -0.7826505161   -2.2185605443
 C   -1.8456616675   -0.6465679675   -2.0282297631
 O   -2.6023779482   -0.3469409879   -2.9185528270
 H    0.4859360607    2.4887888543   -1.2218022596
 H   -1.1868460728    1.9160568069   -1.2688943482
 H   -0.5642524176    2.6683118497    0.2020962119
 H    1.0490138977    0.7879764833    0.5272908790
 H   -0.6087836841    0.2051289661    0.5282818514
 H    2.2030375621   -1.6662959689   -0.7370016700
 H    0.4899572207   -3.5139998233   -0.2091490806
 H   -0.7470445553   -2.2267258615    0.1410813881
 H    0.4446962375   -2.9198324404   -2.6875698525
 H   -0.1143059213   -0.4221188137   -3.2246061311
 H   -2.2291555655   -0.8736089221   -1.0098358868