19

 C   -0.1152680645    1.4934127691    0.0120333188
 C   -0.0684786454    0.0374467445    0.0273660723
 C    0.0072621635   -1.1665932683    0.0295855063
 C    0.0416256824   -2.6202467934    0.0567400017
 C    0.6094914567   -3.1960353678    1.3919801536
 O   -0.2267329920   -4.2847570485    1.7437987412
 C   -1.5395674269   -3.8934111962    1.3874717280
 C   -1.4034379302   -3.2611515255   -0.0111886232
 O   -2.4473910978   -2.3890139759   -0.3556762483
 H    0.8944029588    1.9170555666   -0.0202468778
 H   -0.6586729319    1.8649524026   -0.8633958356
 H   -0.6117192370    1.8876635282    0.9052447792
 H    0.6339721448   -2.9838838367   -0.7877983360
 H    1.6319779194   -3.5679715104    1.2975582461
 H    0.5860282709   -2.4182207731    2.1693047054
 H   -2.1796949109   -4.7778070034    1.4085719964
 H   -1.9466150890   -3.1414722012    2.0851922224
 H   -1.3941193705   -4.0533353306   -0.7658454345
 H   -2.1886306305   -1.4989850500   -0.0799258560