22

 C   -0.1852552721    1.2357618613    0.7654011966
 C    0.3893010693   -0.0978189847    0.3351693907
 C    0.5936982547   -0.4671784018   -1.1016675412
 C    0.2091984555    0.4600120383   -2.2476441458
 C    0.6792348620   -0.0574633736   -3.6089149948
 C    2.1714102149   -0.2725107537   -3.7895208315
 O   -0.1091475276   -0.2767710720   -4.4987229060
 N    1.7407216541   -0.2638810416   -0.2061879283
 C    2.6211275719    0.8853024848   -0.3391011175
 H   -0.0102137950    2.0390207158    0.0474857427
 H   -1.2684895938    1.1428381008    0.8969510042
 H    0.2359226017    1.5471129966    1.7276459160
 H    0.1130018152   -0.9086850461    1.0099814653
 H    0.4521042867   -1.5185588033   -1.3557939804
 H   -0.8791577246    0.5560503947   -2.3061971083
 H    0.6227621574    1.4637225681   -2.1021804447
 H    2.7097811396    0.6690066190   -3.6306580883
 H    2.5519149116   -0.9827109675   -3.0478038448
 H    2.3705777756   -0.6434792895   -4.7953620844
 H    2.1464986939    1.8293100762   -0.6443189541
 H    3.1079338435    1.0604237969    0.6257923048
 H    3.4042615458    0.6513570015   -1.0670351501