25

 C    0.0836315847    1.4944979823   -0.0688261359
 C   -0.0071305029   -0.0277293315    0.1005422664
 C    0.5150410441   -0.4543157591    1.4792490009
 C   -1.4464191258   -0.5177184961   -0.1578582592
 C   -1.5840391845   -2.0268287035   -0.2434786709
 C   -1.8915565998   -2.9719391347    0.8922566299
 C   -2.9062163193   -2.3759152729    1.8773650333
 C   -3.9161310803   -2.1818687754    0.7000661187
 C   -2.8849786416   -2.7860900588   -0.2639281668
 H    1.1087091375    1.8508102399    0.0784598983
 H   -0.2405001132    1.8064182206   -1.0674922767
 H   -0.5528992638    2.0082353226    0.6619937337
 H    0.6394835133   -0.4883019171   -0.6613327139
 H   -0.0888189253   -0.0076626574    2.2788010327
 H    0.4836738289   -1.5397769353    1.6049750561
 H    1.5498145368   -0.1266366848    1.6261365307
 H   -2.1039567260   -0.1092579701    0.6191953631
 H   -1.7965461445   -0.0846414028   -1.1051032224
 H   -0.8661154655   -2.4681420506   -0.9354564182
 H   -1.2521924935   -3.8207578007    1.1075847969
 H   -3.2640762326   -3.1102274894    2.6024157448
 H   -2.5922302223   -1.4812667625    2.4246187474
 H   -4.8015568702   -2.8108494529    0.8150943127
 H   -4.2472253825   -1.1607666479    0.4850718093
 H   -3.1230252816   -3.4700419120   -1.0707422007