21

 C   -0.1469377915    1.5423787969    0.0624391666
 C   -0.0432548254    0.0262885387    0.0655400954
 C   -1.3104208254   -0.6380572263   -0.4606860574
 O   -1.5743022531   -0.2531113090   -1.8068231738
 C    1.2741196511   -0.6218638112   -0.2398420226
 C    0.7744746082   -0.6539742122    1.1960858010
 C    1.4345608327    0.1908056894    2.2739191514
 C    0.3212888992   -1.9813630583    1.7050237322
 O    0.0703427951   -2.9570703999    1.0356610633
 H    0.8182797412    2.0372643376    0.1864999214
 H   -0.5676738913    1.8555256548   -0.8971158582
 H   -0.8176521391    1.8972918781    0.8532307505
 H   -1.2517110969   -1.7254270799   -0.3658266926
 H   -2.1774490956   -0.2917135566    0.1134792202
 H   -0.8831144073   -0.6383390781   -2.3555891439
 H    1.2710906568   -1.5815980333   -0.7484168683
 H    2.1300196421    0.0114340086   -0.4506663607
 H    1.8489283827    1.1169488839    1.8747828251
 H    0.7240468142    0.4576370269    3.0646601098
 H    2.2589841368   -0.3586882175    2.7419939757
 H    0.2379306356   -2.0289691026    2.8150648447