20

 C    0.6591724356    0.0571520818    0.4822560326
 C   -0.6073118669    0.5855574194   -0.1912813031
 N   -1.7058470936   -0.3648792814   -0.0223650910
 C   -2.3823882705   -0.7260326277   -1.0141050477
 O   -2.2926996779   -0.3971319273   -2.3533876217
 C   -3.3062924179   -1.4000369016   -2.6936909819
 C   -3.4780819479   -1.7495369815   -1.1983465244
 C   -3.0829021524   -3.1327215071   -0.6754493139
 O   -2.9178974755   -3.0959981859    0.7234775154
 H    1.4672369431    0.7918847902    0.4124346980
 H    0.4722649984   -0.1553913543    1.5388884877
 H    0.9969770790   -0.8684478644    0.0057857566
 H   -0.9062071829    1.5268188068    0.2870531395
 H   -0.4137443550    0.8068338443   -1.2487331393
 H   -4.1609024303   -0.9384135586   -3.1921829655
 H   -2.8744553358   -2.1840092152   -3.3218776094
 H   -4.4362128677   -1.4449090542   -0.7708140716
 H   -3.8651165933   -3.8688641600   -0.8901258400
 H   -2.1653223710   -3.4654954608   -1.1906751932
 H   -2.3350100975   -2.3455307125    0.9165154230