18

 C   -0.0809631094    1.5421080300    0.0370685902
 C    0.0218202710    0.0445576058    0.0186482800
 C   -0.8214332926   -0.8587118198    0.8884316323
 C    0.6744468927   -0.9278234941    1.0120992027
 N    1.2841756944   -1.6981285371   -0.1062777308
 C    0.7145534700   -0.7498109355   -1.1144734261
 C    0.0588847364   -1.9309522907   -1.8720755611
 C    0.5599657346   -2.7920744163   -0.6830004810
 O    0.3807318397   -3.9074812600   -0.2964014378
 H    0.8618941825    2.0103019550   -0.2669122658
 H   -0.8633395037    1.8923476279   -0.6470669157
 H   -0.3306733948    1.9097892712    1.0372034950
 H   -1.3133132637   -0.3384808650    1.7050404765
 H   -1.3938424538   -1.6961635805    0.5003546568
 H    1.2210975682   -0.7576742473    1.9313668694
 H    1.4512650131   -0.1595513841   -1.6652207488
 H   -1.0291650442   -1.9246822403   -1.9675211344
 H    0.5023872396   -2.1656193790   -2.8426429516