21

 C   -0.9174665689    0.6716762897    0.0565900646
 C    0.6009236859    0.5159266010    0.1684015594
 N    1.0086339408   -0.2618167047    1.3292406411
 C    1.4307724367   -1.5513809359    1.2393431424
 O    1.5512864194   -2.1391510316    0.1716758126
 C    1.7653637479   -2.2426584377    2.5459106897
 C    1.9432126705   -1.4260782917    3.8079776813
 C    1.2603913910   -3.6489975326    2.6243314682
 N    2.6798321739   -3.3876993523    2.3924907301
 H   -1.3336977809    1.1731632284    0.9371748884
 H   -1.1749909788    1.2705357782   -0.8227002093
 H   -1.3988870150   -0.3056159314   -0.0394335282
 H    0.9970239934   -0.0087755718   -0.7029849917
 H    1.0815774110    1.5001845297    0.2167998011
 H    0.8906269882    0.1455055167    2.2416277223
 H    1.0048667383   -0.9587169682    4.1310511060
 H    2.2829559264   -2.0771393516    4.6163205218
 H    2.6965162617   -0.6416327091    3.6760785760
 H    1.0144667609   -4.0615115832    3.5995921903
 H    0.6611430295   -4.0087257582    1.7934933676
 H    2.8543856980   -3.4875579936    1.3916038464