19

 C   -0.0997461804    1.2827455833    0.5144086067
 N   -0.0746988027   -0.1642450851    0.3954513773
 C   -1.1262397423   -0.7811871262    0.0411103895
 C   -2.4588698243   -0.1549053564   -0.2904664545
 N   -1.0029551794   -2.1939001152   -0.1390525071
 C   -2.0200342469   -3.0943862414    0.1802152019
 N   -3.0925516739   -2.7390145022    0.7640722116
 C    0.2432500842   -2.7041488408   -0.5335180475
 N    0.4781933603   -3.9515827361   -0.5838414213
 H    0.8249391655    1.6128186789    0.9940742546
 H   -0.1541679140    1.7708827478   -0.4690845795
 H   -0.9439051491    1.6496628558    1.1127773920
 H   -3.0747816074   -0.8083944912   -0.9046149677
 H   -3.0245086453    0.0560779760    0.6210451960
 H   -2.2882625926    0.7888025324   -0.8169083829
 H   -1.7457884816   -4.1067887755   -0.1169176588
 H   -3.6957141656   -3.5500803013    0.8897618250
 H    0.9354601483   -1.9008092829   -0.7812350698
 H    1.4179641373   -4.1134102298   -0.9388261655