9

 C   -0.0331603753    1.3868373475    0.0428569364
 O    0.0259235346   -0.0513599324   -0.0348443884
 C    0.6380322779   -0.5340798509   -1.1140859009
 O    1.1331894655    0.0981644041   -2.0058172642
 C    0.6329618795   -2.0023759647   -1.0784405755
 N    0.6591526981   -3.1564392392   -1.1039712486
 H    0.9755820126    1.8046717745    0.0680552169
 H   -0.5688976665    1.7894845150   -0.8193865759
 H   -0.5659453965    1.6035685461    0.9670750201