18

 C    0.0434723380    1.5829808666    0.0259466590
 C    0.1255951277    0.0567096923   -0.0390701573
 N    0.8334888857   -0.3494465023   -1.2533812414
 C    1.4965144470   -1.4211191784   -1.2477835818
 O    1.7142868322   -2.3049930570   -0.2346855174
 C    1.4479838664   -1.8781671878    1.0960475412
 C    2.6277244780   -1.1403974642    1.7559121084
 O    1.9322951973    0.1189156711    1.6810678790
 C    0.7115205954   -0.5280132962    1.2417113448
 H    1.0413562692    2.0039427163    0.1675846906
 H   -0.3717192740    1.9684614637   -0.9079103826
 H   -0.5901129805    1.9071455365    0.8579810973
 H   -0.8957225892   -0.3451443319   -0.1256531142
 H    1.9828681724   -1.7838586335   -2.1515081334
 H    1.0379005424   -2.7396715229    1.6232494440
 H    2.8324304446   -1.4389749453    2.7919498774
 H    3.5574012454   -1.1456083522    1.1772600264
 H   -0.0359667982   -0.5247501247    2.0465427698