23

 C   -0.0070589675    1.5466252174   -0.1101611911
 C   -0.0561273625    0.0184743169    0.0001430029
 C   -1.4599521970   -0.5527383829    0.0978204190
 C   -2.3329605627   -0.1001040238    1.2952953069
 C   -3.4988909688   -1.1405108584    1.2772565078
 C   -3.1513407816   -2.0147398706    0.0494920397
 C   -3.2875219256   -1.1343903994   -1.2033069357
 O   -2.1875880908   -0.2141410817   -1.1064125892
 C   -1.6154218990   -2.0845649027    0.1468091361
 H    1.0234153851    1.8932805444   -0.2339216536
 H   -0.5897607451    1.8879985775   -0.9695729050
 H   -0.4131691345    2.0279964357    0.7852778743
 H    0.4290389254   -0.4266865344   -0.8765303862
 H    0.5114365026   -0.3130728703    0.8786928748
 H   -1.7710255998   -0.1321112552    2.2344371727
 H   -2.6818611090    0.9238049289    1.1469928197
 H   -3.5098588378   -1.7429335713    2.1906096424
 H   -4.4828429067   -0.6720761531    1.1829845554
 H   -3.6928730260   -2.9599316105   -0.0110875868
 H   -3.1984394942   -1.7124489624   -2.1334520376
 H   -4.2359015830   -0.5821943803   -1.2316614908
 H   -1.1359157971   -2.5785174117   -0.7028576148
 H   -1.2583259245   -2.5281943321    1.0805945893