14

 O   -0.1080767011    0.0554774375   -0.0099437810
 C   -0.0793054400    1.2457568918    0.0759005643
 C   -1.1265890471    2.3678497758   -0.0724391228
 N   -0.9262860098    3.1264003256    1.2153413924
 C    0.3673773847    3.5461138723    0.6269702874
 C    0.0248520855    3.1937666162   -0.7732450012
 C    1.0234740593    2.2766510577    0.0503511305
 C    2.4212714434    2.1219270031   -0.1116863198
 C    3.6078845185    1.9752667884   -0.2452021614
 H   -2.1352320656    2.1762228452   -0.4245935109
 H   -1.5384945703    3.9421813998    1.1842149744
 H    0.9920624194    4.3303245398    1.0349749043
 H    0.2041418006    3.5955892617   -1.7603793315
 H    4.6540252024    1.8365097451   -0.3632022146