20

 C    0.1882003273    1.4022850402    0.2814836697
 C   -0.0211404757   -0.0969374167    0.1592210010
 C   -1.5046405437   -0.4513652710    0.1358639677
 N    0.6111458443   -0.7606631128   -1.1019903893
 C    2.0777903622   -1.2835157140   -0.9790247086
 C    3.0965958991   -0.8880635778    0.1079255595
 C    2.1368537039   -0.5875870558    1.2520560728
 C    0.9120670794   -1.0612494179    0.9311980444
 C    0.9662391028   -1.9587828641   -0.3065160002
 H    1.2382378654    1.6771925618    0.1641613590
 H   -0.3930601814    1.9185569903   -0.4895900861
 H   -0.1549111213    1.7636878772    1.2566868913
 H   -2.0036029102    0.0360593475   -0.7073099816
 H   -1.6574986382   -1.5295134435    0.0498592034
 H   -1.9799777452   -0.1114561415    1.0615723211
 H    2.4131755157   -1.5718319290   -1.9716360687
 H    3.8178418637   -1.7104084637    0.2240121079
 H    3.6791444771    0.0151781223   -0.1084722401
 H    2.2594490207    0.3344648778    1.8122429614
 H    0.5397727443   -2.9415873693   -0.4729701145