14

 O   -0.0027880584    1.4279691311   -0.0845395175
 C    0.0540545387    0.0242762245   -0.0366716493
 C    1.0121253662   -0.5136179203   -1.0104696467
 N    1.7894815402   -0.9271394715   -1.7597467051
 C    0.0462897180   -0.6528757987    1.3586587008
 C   -1.4758884015   -0.3416262345    1.5375005601
 O   -1.8313650565   -1.7094988388    1.8779500610
 C   -0.8193617426   -1.8425985483    0.8390346200
 C   -1.3395071076   -0.6292730437    0.0067616181
 H    0.8888033993    1.7825540929    0.0079704354
 H    0.8227513602   -0.6747834928    2.1214444316
 H   -1.9665031151    0.4803887567    2.0518006315
 H   -0.5185374216   -2.8349213258    0.5113280805
 H   -2.1184302696   -0.6180489308   -0.7525506405