22

 C    0.3634902600    1.6166653506    0.4669179777
 C    0.2387015802    0.1412619576    0.1757086589
 C    0.9734932037   -0.4609262621   -0.9561639771
 N    1.4581010456   -0.6387341999    0.4787183713
 C    1.1217478145   -2.1132540312    0.3667460527
 C    0.2043928760   -2.6954786495    1.4278534002
 C    0.6436900086   -1.9271261067   -1.0852138575
 C   -0.5042282072   -2.5643609860   -1.8155205710
 C    0.9222423696   -2.8235194263   -2.2496477694
 H    1.3562899064    1.9808834264    0.1884080256
 H   -0.3864654335    2.1888301899   -0.0897799866
 H    0.2213595215    1.8148203563    1.5343024613
 H   -0.7253662330   -0.2953214081    0.4315641321
 H    1.5371141997    0.1281448738   -1.6748203738
 H    2.0784956366   -2.6462418190    0.3857766074
 H   -0.7858701179   -2.2316406524    1.4267629877
 H    0.0665429470   -3.7699918166    1.2638676653
 H    0.6451348643   -2.5622484247    2.4213135054
 H   -1.0391626551   -3.3686863324   -1.3202507165
 H   -1.1273179226   -1.9356036985   -2.4437517865
 H    1.2644683101   -2.3692990390   -3.1744514126
 H    1.3498181753   -3.8020643023   -2.0519797947