18

 O    0.1057826124    1.3541159205    0.3631849115
 C    0.0429164554   -0.0360164139    0.0486710621
 C   -1.4345888572   -0.4265219667    0.0108730740
 O   -2.2913139874    0.3002629606   -0.8699872116
 C   -2.0671294970    0.4224789333   -2.2171112415
 N   -2.9929402952    0.2126368562   -3.0549118599
 C   -0.7369589905    0.9829994836   -2.6697375649
 C    0.4473791019    0.0743963009   -2.4205511393
 C    0.7945205663   -0.3854186653   -1.2207558089
 H    1.0191246690    1.6361331343    0.2498309045
 H    0.4676622488   -0.6289160741    0.8759787487
 H   -1.5016284221   -1.5007796806   -0.2082744986
 H   -1.8662408001   -0.2460287614    0.9989675549
 H   -3.8234201541   -0.1287290261   -2.5647919923
 H   -0.8370615191    1.2008011109   -3.7324968705
 H   -0.5807258832    1.9264366333   -2.1330255312
 H    1.0397678107   -0.2004405834   -3.2889974127
 H    1.6602351014   -1.0343988820   -1.1198622141