18

 C   -0.0175808511    1.4859330878    0.0397380136
 C    0.0111177241   -0.0058543905   -0.0180467782
 C    0.0031022013   -0.8031965642   -1.0904954585
 C    0.0036650605   -2.2713381856   -0.7161280451
 C    0.4636627956   -2.2346429472    0.7536473495
 O    1.8879921537   -2.3216597490    0.8648273408
 C    0.0037813710   -0.8383308700    1.2611013111
 O    0.8186056592   -0.3412010454    2.2999884596
 H    0.7909594610    1.8565217680    0.6786092626
 H    0.0745545417    1.9360336215   -0.9522615439
 H   -0.9526911564    1.8416623006    0.4918241613
 H   -0.0436616829   -0.4609672201   -2.1194052225
 H   -1.0003740636   -2.7095433476   -0.8026826314
 H    0.6694637461   -2.8933604233   -1.3251726311
 H    0.0782603224   -3.0560422202    1.3609367360
 H    2.2587634583   -1.7634956431    0.1696297222
 H   -1.0221203225   -0.8944498414    1.6557516573
 H    1.6589097015   -0.8138873803    2.2031722167