12

 O   -0.0567220546   -0.0067781985   -0.0005522752
 C   -0.0076797950    1.1846506451    0.0080081052
 N    1.2006370680    1.9254486548    0.0002557675
 N    2.4096391318    1.3253961847   -0.0177296585
 C    3.2873472287    2.3133306575   -0.0198699076
 C    2.6642476094    3.5853921185   -0.0033600982
 C    1.3178357134    3.3072175428    0.0094700088
 C    0.2024534561    4.1770546593    0.0284352735
 N   -0.7113643937    4.8883977545    0.0439602619
 H   -0.8780346778    1.8608061251    0.0227826763
 H    4.3442495741    2.0906519277   -0.0332528211
 H    3.1213564898    4.5610640285   -0.0010252927