16

 C   -0.4030797497   -1.2154577280   -0.1652625609
 C   -0.2386494877   -0.0318847384   -0.0390011884
 C   -0.0217069204    1.3911430998    0.0834437174
 O    0.0474627872    1.8283928176    1.5180068650
 C    1.3944152889    2.0122127642    1.3504519433
 N    2.4220065968    1.8618814839    2.0622830205
 C    3.4994067749    1.6952608675    1.0349106286
 C    2.7802608158    1.2008786599   -0.2811093980
 C    1.4424457042    1.9350596785   -0.1335561030
 H   -0.5583053800   -2.2614205931   -0.2693705528
 H   -0.7952309336    1.9691059050   -0.4257828601
 H    4.0341825099    2.6400547869    0.8719541445
 H    4.2253993391    0.9668190912    1.4039489307
 H    3.3304471512    1.4403666864   -1.1936738907
 H    2.6366702417    0.1169799754   -0.2326818121
 H    1.4097216717    2.8983453032   -0.6476679239