18

 C    0.0555564890    0.7539149917   -1.3224129127
 C    0.0059875712   -0.0247787765   -0.0245288569
 C    1.2446582884   -0.6409641621    0.5154411471
 N    0.6460976937    0.5365254372    1.1727789607
 C   -1.3200599376   -0.7084647548    0.2312643151
 C   -1.9332314525   -0.6893680288    1.5741423973
 O   -2.4062918306    0.1836208795    0.5503479631
 C   -1.6461956144   -1.7787101016   -0.6847131174
 C   -1.8846013735   -2.6677896503   -1.4579552656
 H    1.0484080478    1.1866964426   -1.4802840248
 H   -0.1748523444    0.1072218874   -2.1745016223
 H   -0.6806929792    1.5640297033   -1.3056560810
 H    1.1910420844   -1.5591082610    1.0936641171
 H    2.1619846854   -0.5159961676   -0.0540400653
 H    1.1569341687    1.3796269747    0.9229147112
 H   -2.6121290153   -1.4945971130    1.8493585795
 H   -1.3790312797   -0.2103876615    2.3763511997
 H   -2.1080099312   -3.4535547791   -2.1368183648