19

 C   -0.1785612326    1.6386306970   -0.0156274065
 C    0.0262990149    0.1335184746    0.0134028861
 C    1.1673704176   -0.6055091916   -0.7456763853
 C    2.4551815814    0.0708049649   -0.2451462350
 C    2.1280986301    0.0789024987    1.2817879592
 C    0.7404096785   -0.6020262356    1.1993316799
 N    1.0730555709   -1.7424106714    0.2542728733
 C    0.0498091638   -0.9021436150    2.4345029570
 N   -0.5255586882   -1.1248179976    3.4124902684
 H    0.7425676138    2.1965444758    0.1704116212
 H   -0.5647027339    1.9505158284   -0.9919733770
 H   -0.9111963566    1.9406001707    0.7401903409
 H   -0.9209946078   -0.3797705516   -0.1826208193
 H    1.0955004959   -0.8601960803   -1.8025396039
 H    3.3324124583   -0.5348319450   -0.4762335302
 H    2.5990435085    1.0706461770   -0.6606565776
 H    2.8184340115   -0.5277520596    1.8681817276
 H    2.0746262961    1.0775290536    1.7190950743
 H    0.2007134677   -2.2419881030    0.0705361870