20

 C   -0.0565395959    1.4902271879   -0.0231355373
 C   -0.1334595018   -0.0007305766    0.2579989802
 O   -1.3119036504   -0.5108631083   -0.3403881453
 C   -1.4547894097   -1.8940213950   -0.2078377559
 C   -2.0374552321   -2.5031776591    1.1135444637
 C   -3.4000366018   -1.8594956009    0.7156396463
 C   -2.8333667747   -2.4739498508   -0.6015261215
 C   -2.4410285168   -3.7230631699    0.2393200171
 H    0.8461362698    1.9172033656    0.4240881758
 H   -0.0332238063    1.6761145828   -1.1006662034
 H   -0.9271506476    2.0047405078    0.3935718795
 H    0.7504850980   -0.5178781322   -0.1516706173
 H   -0.1432511410   -0.1900953275    1.3432255021
 H   -0.5750988240   -2.4160606490   -0.6150792763
 H   -1.5758677426   -2.5279953004    2.1016554425
 H   -4.2949090445   -2.3365163874    1.1240926457
 H   -3.4598799571   -0.7725339720    0.7573099302
 H   -3.2876716020   -2.4580759233   -1.5928364654
 H   -1.6325263440   -4.3505733451   -0.1480860594
 H   -3.2707229654   -4.3257478267    0.6144675886