17

 C   -0.0075965931    1.4603929113   -0.1910084370
 C   -0.0593359657   -0.0139565712   -0.0105504965
 N   -1.0604357391   -0.8180361424   -0.2087431099
 C   -0.5222412507   -2.0479764149    0.1190570254
 N    0.7315840923   -2.0018786863    0.4951967103
 O    1.0477374840   -0.6375876018    0.4099926408
 C   -1.3068431338   -3.2904109675    0.0452042512
 C   -0.6388862254   -4.5900857596   -0.3669807088
 C   -1.0717065628   -4.4012031739    1.0531987646
 H    0.7572863278    1.7327467507   -0.9244702722
 H   -0.9794693628    1.8137473631   -0.5344619693
 H    0.2462923000    1.9557622826    0.7509767864
 H   -2.3236509654   -3.1225584143   -0.2870086510
 H   -1.2076047063   -5.2602297452   -1.0016245287
 H    0.4215801101   -4.5389677462   -0.5842396581
 H   -0.3041523960   -4.2222842983    1.7970076546
 H   -1.9425403631   -4.9395184961    1.4098116483