21

 C   -0.0662691966    1.7977008662    0.3819249991
 C   -0.0485025287    0.3056171254    0.1243996563
 C   -1.2015640236   -0.1570635101   -0.7530190221
 O   -1.0374161972   -1.5331147613   -1.0623492570
 N    1.2675025536   -0.3110025381   -0.1213032868
 C    0.5192977369   -0.6648015090    1.1025884323
 C    1.1544110039   -0.2592693603    2.4022200378
 C    2.4874263063   -0.8060369234    2.7604022566
 N    2.3365513806    0.6131018129    2.3959234301
 H    0.7260472148    2.0950862732    1.0693022208
 H    0.0647222018    2.3518280769   -0.5545238051
 H   -1.0243857085    2.1011238183    0.8201799648
 H   -2.1522712424    0.0234662727   -0.2267770644
 H   -1.2131929819    0.4517834923   -1.6718678502
 H   -1.7285029763   -1.7931959686   -1.6769964946
 H    1.1593558051   -1.0586816673   -0.8030120620
 H    0.0449156740   -1.6437794236    1.1128564235
 H    0.4512091196   -0.0495975289    3.2066377729
 H    2.7422131438   -0.9951306295    3.7995169496
 H    2.9645205026   -1.4684154425    2.0422324088
 H    2.6193397720    0.7117970245    1.4199785496