19

 C    0.0890187636    1.3366180771   -0.1121296369
 O   -0.1300528168   -0.0353074471    0.1536071962
 C    0.5866747543   -0.5465216693    1.2163337323
 C    0.2587796780   -0.0920450648    2.6425130970
 C    1.2245467566   -1.0063428290    3.4500347390
 C    1.8882830798   -1.7771255113    2.3124472583
 C    0.8490025932   -2.0807792255    1.1967464631
 O    1.8755097723   -1.9361192358    0.1568198880
 C    2.1331244998   -0.8400917876    1.0978471112
 H    1.1509729378    1.5469392164   -0.3016008640
 H   -0.4834364471    1.5794132655   -1.0097415248
 H   -0.2552249064    1.9795168311    0.7101403432
 H    0.4610851609    0.9715894725    2.7978806113
 H   -0.7954805234   -0.2648188363    2.8786752848
 H    1.9502388768   -0.4363981009    4.0378472693
 H    0.6939128615   -1.6689772550    4.1400381631
 H    2.6396891486   -2.5367349140    2.5189140369
 H    0.1332569517   -2.8982867232    1.1032333188
 H    2.9711645586   -0.1729371127    0.8917548132