19

 C    0.1080324726    1.5609649816    0.0105161273
 C    0.0289177544    0.0352266490   -0.0217330126
 O   -1.3387670968   -0.4006624444    0.0424183073
 C    0.7438384765   -0.5936391858   -1.2053360689
 C    1.5643123668   -1.5850581734   -0.8576929142
 C    1.6214085143   -1.7858658301    0.6295363260
 C    2.7615157217   -1.0338908305    1.3603881975
 O    1.8832236225    0.0667070654    1.6719967702
 C    0.7264283909   -0.6452980806    1.1771789490
 H    1.1443705028    1.8934997573    0.0962682746
 H   -0.3223645950    1.9837429196   -0.9049321771
 H   -0.4568486101    1.9482115364    0.8632776857
 H   -1.7747287540   -0.1284615648   -0.7721393303
 H    0.5665067923   -0.2552670520   -2.2222637543
 H    2.1533072557   -2.1794808266   -1.5488254840
 H    1.4413941310   -2.8129213772    0.9535434574
 H    3.1226231186   -1.5307957573    2.2701658026
 H    3.6177745025   -0.7227902427    0.7511735433
 H    0.0092864634   -0.8702581040    1.9722387205