17

 C   -0.2969585050    1.6079096220   -0.2392800087
 C    0.0022161163    0.1203716851   -0.0679900892
 C    0.8714998094   -0.5465112377   -1.1801273358
 C    1.8980838677   -0.7653569971   -0.0546368751
 O    1.0570981886   -0.0960455150    0.9110846694
 C   -1.2087289956   -0.6206019483    0.2680517114
 C   -2.2221368814   -1.2289038398    0.5213954714
 C   -3.4112612490   -1.9636610793    0.8661309642
 O   -4.3625719407   -2.1109710943    0.1331624872
 H    0.6249150346    2.1369666511   -0.4947590063
 H   -1.0341001675    1.7638441818   -1.0323837851
 H   -0.6920919924    2.0227983447    0.6917383270
 H    0.4484160891   -1.4464352104   -1.6247066200
 H    1.1731743506    0.1450890516   -1.9679537549
 H    2.0768546358   -1.8115495210    0.2186620543
 H    2.8615262184   -0.2577546417   -0.1733050347
 H   -3.3917608489   -2.3993035619    1.8857339848