19

 C   -0.0844233249    1.4728931197    0.0774085560
 C   -0.0683266973   -0.0136183930   -0.0156907778
 C   -0.0647179132   -0.8274132457   -1.0737609319
 C    0.0815583639   -2.2331698245   -0.5199553232
 O   -0.5926783170   -2.1341701948    0.7521253792
 C    0.0951579600   -0.9498775766    1.1875422887
 C    1.5809454199   -1.4250713552    1.1710727906
 C    1.5450063796   -2.4432782264   -0.0140586241
 O    1.7434681089   -3.7795387313    0.4065652779
 H    0.8207264360    1.8477085691    0.5737012848
 H   -0.1444299568    1.9382821721   -0.9099399128
 H   -0.9342752858    1.8251834154    0.6753808628
 H   -0.0684535603   -0.5644346095   -2.1230921014
 H   -0.3092876053   -3.0650032751   -1.1047997697
 H   -0.2959407920   -0.6092728827    2.1464178256
 H    2.2877207726   -0.6046304770    1.0289966727
 H    1.8474231504   -1.9564818405    2.0875851675
 H    2.2973518805   -2.2485336844   -0.7802295248
 H    1.0181095508   -3.9768696098    1.0125695599