17

 C    0.1067674370    1.4774828917    0.5407108992
 C   -0.0859954331    0.0785818894   -0.0422842814
 C    0.8392197540   -0.9458224533    0.6151733569
 O    1.6719958034   -0.6801882449    1.4432519260
 C   -1.4965696090   -0.4394946693    0.0329290126
 C   -2.5411907305   -0.0047066966    0.8104258012
 N   -3.5907041224   -0.8482877671    0.5174891857
 C   -3.1443173455   -1.7456326288   -0.4034716885
 N   -1.8884308853   -1.5301244171   -0.7177013477
 H    1.1503312356    1.7863563947    0.4528569483
 H   -0.5232225924    2.2041956208    0.0210161142
 H   -0.1429555227    1.4954825268    1.6058004636
 H    0.1946588870    0.0701895925   -1.1067933361
 H    0.6749269865   -1.9869277638    0.2641195183
 H   -2.6403289294    0.8027296792    1.5153806664
 H   -4.5177811748   -0.7983020354    0.9051760258
 H   -3.7761439384   -2.5225589191   -0.8072727244