21

 C   -0.0074245831    1.4876019522    0.0461360234
 C   -0.0646138795   -0.0029768318   -0.0147614436
 C   -0.1003841228   -0.7972765310   -1.0885740109
 C   -0.0273456550   -2.2599610850   -0.6750106495
 C   -0.6501358096   -2.1776729443    0.7369355601
 C    0.0387497176   -0.8904300415    1.2387715936
 C    1.5096695279   -1.2139366001    1.4690134039
 C    2.1426651652   -2.0468128121    0.6397964592
 C    1.4535317367   -2.7081192294   -0.5345186080
 H    0.9228001533    1.8273096249    0.5199996969
 H   -0.0613923605    1.9344601733   -0.9506771713
 H   -0.8296598326    1.8951165445    0.6485154258
 H   -0.0845801797   -0.4639115200   -2.1209948476
 H   -0.5600201422   -2.9349084762   -1.3514454306
 H   -1.7333032312   -2.0389196261    0.6690409535
 H   -0.4375104557   -3.0477071185    1.3652388946
 H   -0.4218474569   -0.4512386597    2.1279586976
 H    2.0335237552   -0.7432193932    2.2961471210
 H    3.1966986982   -2.2736537931    0.7834891796
 H    1.5026456258   -3.8003405423   -0.4165793700
 H    2.0060268989   -2.4870021206   -1.4591984877