21

 C   -0.1379661708    1.6511739198    0.2361227173
 C   -0.0983319384    0.1512407762    0.0559522517
 C    1.1970370460   -0.5376662581   -0.3433329032
 C    0.6207841193   -0.7042077235    1.0502468001
 O    1.2204271998   -0.0670372504    2.1385230526
 O   -1.2831820662   -0.4414543441   -0.4088321327
 C   -1.6108116829   -0.1822792139   -1.7685802871
 C   -2.9109486168   -0.9239288463   -2.0370670021
 O   -3.9466011731   -0.4765335755   -1.1854397652
 H    0.7367043693    1.9827816582    0.7979126767
 H   -0.1548397772    2.1773526710   -0.7234194475
 H   -1.0325694593    1.9342421732    0.8000604857
 H    1.1411662301   -1.3857229690   -1.0167143042
 H    2.0806706950    0.0836462858   -0.4466860059
 H    0.1450789563   -1.6594139928    1.2693119678
 H    2.0566676752   -0.5094640055    2.3170939077
 H   -1.7567523793    0.8937371955   -1.9357991381
 H   -0.8110550592   -0.5342097185   -2.4378057168
 H   -3.2350741018   -0.7412553228   -3.0669999737
 H   -2.7351155211   -2.0059907683   -1.9241127387
 H   -3.5750059149   -0.4899648509   -0.2954113042