16

 N    0.0032791865    1.2685302510   -0.1191311901
 C   -0.0563045863    0.0167742199   -0.2501756683
 O   -1.2332727841   -0.6210818357   -0.0656702539
 C   -1.2013180954   -2.0442933929   -0.1680264195
 C   -2.6319625984   -2.5272347788    0.0021809779
 C   -2.7695040803   -4.0270693990   -0.2413873814
 O   -1.8642651752   -4.7219062778   -0.6217443879
 C   -3.2335107483   -2.1867726532    1.3684185789
 O   -4.3626717918   -2.4700291436    1.6687110765
 H    0.9501161556    1.5950614330   -0.3001658984
 H    0.7699399525   -0.6572639376   -0.5149359535
 H   -0.8046282018   -2.3638263717   -1.1372336395
 H   -0.5580991380   -2.4706945923    0.6134740610
 H   -3.2834305726   -2.0342593918   -0.7343123825
 H   -3.7809701881   -4.4263521262   -0.0297406081
 H   -2.5451954342   -1.6768962732    2.0741238886