19

 C    0.6317917919    1.5075014445    0.4187335683
 C   -0.1254258245    0.2178955665    0.0769341963
 C    0.3508539309   -0.4024120037   -1.2215614244
 N    1.7071342829   -0.9789361461   -1.2639543903
 C    0.5803316976   -1.8877783032   -1.4201666421
 C    0.3423776099   -2.9198840700   -0.3462230978
 C   -0.0801890834    0.2889384764   -2.4741955387
 O    0.4929841862    0.1781147087   -3.5338680241
 H    1.7037629044    1.3058160027    0.4964697848
 H    0.4902357989    2.2745408894   -0.3510654622
 H    0.2884631772    1.9248178989    1.3698155763
 H   -0.0118505462   -0.4989785111    0.8935496822
 H   -1.2014206696    0.4221700042   -0.0070338539
 H    2.0988003582   -0.7656001913   -2.1823938168
 H    0.3778941220   -2.2313055460   -2.4339302510
 H    0.6486881419   -2.5558423696    0.6361328831
 H   -0.7119498390   -3.2126360682   -0.3053613458
 H    0.9311780782   -3.8175919125   -0.5638215624
 H   -0.9877306875    0.9240580003   -2.3775324513