25

 C   -0.3279371578    1.5721812048    0.0093141625
 C   -0.2209696906    0.0561373037    0.1956702383
 C   -1.4766758110   -0.6894266118   -0.2802511152
 C   -1.4229795264   -2.1975803008   -0.0901210356
 C   -0.4535919739   -2.9477257102   -0.9841332506
 C   -1.6344752398   -2.7310398737    1.3211002191
 C   -2.7029542717   -2.9222563155    0.2916766163
 O   -3.8925915873   -2.2254570120    0.4942886933
 C   -4.6718628239   -2.1173963460   -0.6808025277
 H    0.5746150181    2.0832315404    0.3591845901
 H   -0.4697796296    1.8333733062   -1.0455162940
 H   -1.1791656804    1.9802406065    0.5658442978
 H    0.6594080826   -0.3134322506   -0.3444865755
 H   -0.0470597023   -0.1744941662    1.2542284488
 H   -2.3507892931   -0.2985606588    0.2521923331
 H   -1.6389673233   -0.4673179803   -1.3452640729
 H    0.5863187870   -2.6690024252   -0.7797704405
 H   -0.5328853062   -4.0301102043   -0.8376471704
 H   -0.6513554913   -2.7396865598   -2.0427182822
 H   -1.0684645366   -3.5943824809    1.6549483789
 H   -1.8516284003   -2.0053397323    2.0980907031
 H   -2.8464518537   -3.9223676469   -0.1242537368
 H   -5.5893442656   -1.5884927599   -0.4118678437
 H   -4.1505001378   -1.5560064442   -1.4686124446
 H   -4.9371926352   -3.1086285423   -1.0792214416