16

 N    0.0388647982    1.3956552384    0.1721945146
 C   -0.0397477439    0.0159205810    0.0461702408
 C   -1.2156156756   -0.6835513150   -0.0104400273
 C   -1.1651230530   -2.1086151378   -0.0618191869
 N   -2.3617561582   -2.7943874259   -0.1688719002
 C    0.0434651564   -2.7727987398   -0.0654591185
 C    1.2895239485   -2.0730549834   -0.0138172957
 O    2.4210394922   -2.5362364341    0.0024090136
 N    1.1419417559   -0.6556264612    0.0382351653
 H    0.8161375480    1.8251399273   -0.3112984512
 H   -0.8273641589    1.8732378904   -0.0298744718
 H   -2.1615257369   -0.1581696866   -0.0434479932
 H   -3.1749959774   -2.3363691422    0.2123975011
 H   -2.3254614187   -3.7785875745    0.0478898065
 H    0.0935843992   -3.8539959566   -0.1015667889
 H    2.0153103343   -0.1602960099    0.1499192316