18

 C   -0.6162699779    1.4078012826    0.0160146016
 C   -0.2073064589   -0.0440269723    0.0797633244
 C    1.1184439129   -0.4839964333   -0.4439781570
 N    0.8455483950   -0.5165396841    0.9883150240
 C    1.5223528310    0.3511223401    1.8567994196
 C    1.0083751057    1.0198534077    2.9312961065
 O    2.0011309740    1.6850341304    3.5934491420
 C    3.1563588630    1.4302341404    2.9355687305
 C    2.9352741248    0.6229771610    1.8660724829
 H    0.2493364276    2.0741102769    0.0371320156
 H   -1.1736725875    1.5951924734   -0.9076889216
 H   -1.2640244256    1.6762544217    0.8577255962
 H   -1.0341445622   -0.7487506562    0.0049840017
 H    1.2408736919   -1.4520413410   -0.9225953262
 H    1.7796464221    0.2971444307   -0.8162254502
 H    0.0186352426    1.1087412690    3.3440257842
 H    4.0413594202    1.8888908955    3.3449796758
 H    3.6703770413    0.2507904073    1.1701447400