21

 C   -0.1719122302    1.5786476438    0.0061302550
 C   -0.0270769773    0.0639942723    0.0190794849
 C    1.2035097627   -0.5941064233   -0.6319263245
 C    2.1366147216   -0.2877654950    0.5913593613
 C    2.5996904410   -1.7597732661    0.6304244715
 O    3.1284496631   -2.3369287633    1.7969284988
 C    1.1001043747   -1.8588820324    0.2871707039
 C    0.7101622606   -0.6252459164    1.1964536939
 C    0.2685789042   -0.6119876209    2.6388474568
 H    0.7652993858    2.0791856582    0.2714324438
 H   -0.4699387254    1.9368554176   -0.9855994900
 H   -0.9393716634    1.9088757148    0.7155213288
 H   -0.9788287008   -0.4179125590   -0.2439829737
 H    1.5150557373   -0.5991656062   -1.6775656252
 H    2.7195644864    0.6194391975    0.7567447125
 H    3.2806619892   -2.0506663746   -0.1762158136
 H    2.5437923842   -2.1356398365    2.5332472329
 H    0.4799169217   -2.7376049575    0.0973395183
 H    0.9592755018   -1.1340407170    3.3106572691
 H    0.1820441661    0.4167290061    3.0069095170
 H   -0.7132538633   -1.0866244822    2.7483435285