15

 C   -0.0071370147    1.4245505867    0.1804747396
 C   -0.0210612688   -0.0459817580   -0.0253937786
 N   -0.0856797694   -0.7056660624   -1.1427687593
 C   -0.0664410970   -2.0374518685   -0.7682876142
 C    0.0103721963   -2.1268618088    0.5834651328
 O    0.0403112863   -0.8401364090    1.0746744543
 C    0.0609085758   -3.2790697244    1.5010708439
 N    0.1353757622   -2.9592955828    2.8243815594
 O    0.0356674315   -4.4211956272    1.0783770517
 H    0.9073899124    1.7411111065    0.6924726901
 H   -0.0615891869    1.9167906758   -0.7904053372
 H   -0.8567442728    1.7438595479    0.7927955900
 H   -0.1083822611   -2.8421638619   -1.4836545151
 H    0.1591511927   -2.0057983769    3.1400794084
 H    0.1762170734   -3.7098396768    3.4927817039