11

 O   -0.0494045449    1.3197817751    0.0100210056
 C    0.0002796282   -0.0114304084    0.0027295085
 N    1.1673979757   -0.5882881936   -0.0071558751
 C    1.2611179158   -1.9513658343   -0.0148207858
 O    2.2531778685   -2.6119273394   -0.0242800473
 O    0.0175183212   -2.6892850577   -0.0113956723
 C   -1.1451478833   -2.0502816012   -0.0012237782
 C   -1.2485802687   -0.7055611295    0.0064394634
 H    0.8702848237    1.6297221344    0.0062385361
 H   -1.9927196711   -2.7282357719    0.0001953393
 H   -2.1968072752   -0.1906594636    0.0147042159