20

 C    0.1041887865    1.4108958741    0.1927023287
 N    0.0092157902   -0.0354042034    0.1721196249
 C   -1.1038921186   -0.6488759259    0.1608825358
 N   -1.1496971402   -2.0399530597    0.2953996546
 C    0.1344860477   -2.7051542393    0.4749123306
 C   -2.0673598442   -2.7799504201   -0.5684366888
 C   -2.4729426903    0.0383406309    0.1283452539
 N   -3.2916581222   -0.3438956801    1.1492299183
 O   -2.7739651733    0.8817389428   -0.6929595924
 H    0.6340958531    1.7380719550   -0.7097217054
 H   -0.8494934206    1.9470016831    0.2353528226
 H    0.7260102648    1.7113282818    1.0447605487
 H    0.7038525841   -2.1969419293    1.2527853579
 H   -0.0494123824   -3.7435795013    0.7663709479
 H    0.7416952357   -2.6948977823   -0.4416967348
 H   -3.0193364978   -2.2557489055   -0.6614483057
 H   -1.6549737117   -2.9260512940   -1.5787826899
 H   -2.2604087657   -3.7657546146   -0.1338798670
 H   -3.0165030995   -1.0718052532    1.7858766025
 H   -4.2028114153    0.0783409312    1.2274050775