15

 O   -0.5277503218    0.5111435324    0.5356382361
 C    0.2024253765    0.9140906441   -0.3307479918
 C    1.3467793872    1.8914930190   -0.0958808790
 C    1.3126343809    3.0351588484   -1.0609530707
 O    1.6960931797    2.8253336297   -2.4222701125
 C    2.3437708468    3.8649780695   -1.6883859114
 C    1.3727682424    5.1132800678   -1.6483269640
 O    0.1873618984    4.7759195908   -2.3631193595
 C    0.3334246609    4.2913411362   -1.0321308642
 H    0.0917747990    0.5851583590   -1.3868843969
 H    1.3004109931    2.2401664109    0.9402183478
 H    2.2874755299    1.3437134051   -0.2400858248
 H    3.4241769533    3.8527336942   -1.6121737297
 H    1.6343520607    6.1567245525   -1.5290563712
 H   -0.4342389869    4.5187512004   -0.3027140682