15

 N    0.1836215990    1.3867214024   -0.2695199908
 C    0.0582333419   -0.0014025311   -0.1181098854
 C   -1.0826242150   -0.7658931837    0.0401370107
 N   -0.6587498587   -2.0471890349    0.2321574941
 N    0.6713910173   -2.1747359255    0.1986296344
 C    1.1201229335   -0.9364450985   -0.0036878198
 C    2.5992508365   -0.6720874948   -0.0604351808
 C    2.9809995065    0.1109458794   -1.2394028504
 N    3.2368017330    0.7626631899   -2.1594439010
 H    0.8976537017    1.6431047706   -0.9424129735
 H   -0.6869775199    1.8323084978   -0.5278172669
 H   -2.1283313575   -0.5037064567    0.0314902302
 H   -1.2241694399   -2.8647244815    0.3810122236
 H    2.9373548606   -0.1207079303    0.8268506143
 H    3.1295610009   -1.6287387731   -0.0702160087