20

 N   -0.3359222722   -1.1259412146   -0.1519296962
 C   -0.2021714104    0.0227678180   -0.0914215234
 C   -0.0557477421    1.4463965428   -0.0126802446
 C    0.4828629398    2.1096276839    1.2596761448
 C    0.9229775705    1.2664555578    2.4564420636
 C    2.4232975473    0.9319567672    2.4265564588
 C    2.8296878618    0.3370043367    1.0738232050
 C    2.6233517123    1.3525852492   -0.0655336279
 C    1.3125445106    2.1209850006    0.0033401771
 H   -0.8416350726    1.9799122524   -0.5376257171
 H   -0.0312223047    3.0327722387    1.5067201729
 H    0.6794604686    1.8080517212    3.3753406485
 H    0.3485212324    0.3331464134    2.4882934637
 H    3.0076465316    1.8426389790    2.6162672594
 H    2.6570013544    0.2332386546    3.2365647700
 H    3.8820685526    0.0348743890    1.0883033757
 H    2.2467636631   -0.5703823175    0.8856204103
 H    3.4278611374    2.0975206367   -0.0155770128
 H    2.7200344204    0.8603339378   -1.0400605698
 H    1.3206714995    3.0526182332   -0.5551776280