21

 C    0.2252610732    1.5459808315   -0.3441192444
 C   -0.0033167914    0.0899147207    0.0566534024
 O    0.2536875129   -0.7457117416   -1.0792209366
 C    1.3138657801   -1.6594445840   -0.8102761064
 C    2.0621830134   -1.0913567465    0.3946622827
 C    0.9078657270   -0.4560824340    1.1885464566
 C    1.3276093246    0.5562965112    2.2625494583
 C    2.0597517681   -0.1154397856    3.4034874764
 O    3.1511687353    0.1946428673    3.8044302100
 H    1.2773240008    1.7391759654   -0.5764105148
 H   -0.3611194087    1.7653001432   -1.2403542092
 H   -0.0906483922    2.2342028348    0.4464613612
 H   -1.0585298647   -0.0349367522    0.3372780295
 H    0.9068873294   -2.6570362585   -0.5816285857
 H    1.9316910305   -1.7464369481   -1.7098069331
 H    2.6078107073   -1.8531645855    0.9575909178
 H    2.7807453305   -0.3251156189    0.0824604278
 H    0.3567266733   -1.2671154645    1.6842063005
 H    1.9654182663    1.3463100875    1.8582309042
 H    0.4288742498    1.0259363035    2.6895866125
 H    1.4967027945   -0.9586463657    3.8714197704