19

 C    0.0260004488    1.4644438654   -0.1067800048
 N   -0.0400585900    0.0371127992    0.1250715308
 C   -1.3041249497   -0.5739169186    0.5829386179
 C   -0.4679148362   -1.6080713873    1.3904172813
 C   -0.9237715666   -2.0172957509    2.7728075227
 O   -0.1881488192   -2.7794168781    0.6690359786
 C    0.6802571951   -0.5267585068    1.2813616267
 C    2.0440816866   -0.9761445211    1.0225262451
 N    3.1201508029   -1.3414652769    0.8116804251
 H    1.0531146769    1.7506796581   -0.3530133180
 H   -0.6107248806    1.7255528002   -0.9576024171
 H   -0.3024085598    2.0578643196    0.7663040621
 H   -1.8969665773    0.0863727941    1.2368144986
 H   -1.9428355335   -0.9707103175   -0.2121568681
 H   -1.8202361143   -2.6397429389    2.6978048153
 H   -0.1445370125   -2.6051382041    3.2663824456
 H   -1.1535900824   -1.1446436423    3.3891545953
 H    0.1266671197   -2.5264810843   -0.2075564176
 H    0.6789808721    0.1351344502    2.1634683202