19

 C    0.2599267893    1.2633322907    0.2376142018
 O   -0.3008213422    0.0492368797   -0.2122915919
 C    0.4553653914   -0.5810747897   -1.1960782746
 C    1.7915641014   -1.3031004680   -0.8356871503
 O    1.4077502288   -2.1223088324    0.2701717209
 C    0.4745774202   -2.9552663408   -0.4366055123
 C    1.3960394456   -3.6918269980   -1.4346656036
 C    1.5115305943   -2.2890076990   -2.0496643642
 C    0.0285233356   -1.9807978209   -1.6098064046
 H    1.2341251481    1.1094304188    0.7230923078
 H    0.3919568697    1.9805405003   -0.5881949143
 H   -0.4322707776    1.6899998634    0.9670110420
 H    0.5932071235    0.0596120728   -2.0827044845
 H    2.7406439726   -0.8021380670   -0.6542001286
 H   -0.2127181908   -3.4463177583    0.2486720007
 H    2.2801757333   -4.1835451790   -1.0215755999
 H    0.8476943934   -4.3641808198   -2.0999212888
 H    1.9245975506   -2.0628594444   -3.0300262908
 H   -0.8557231870   -2.2175470884   -2.1969159446