13

 N   -0.0579749436    1.3038056913    0.2697908069
 C   -0.0021073036    0.0800075381   -0.0285175267
 O    1.1731766630   -0.5781141914   -0.2356991393
 C    1.2013871644   -1.7778370794   -1.0028389301
 C    0.0149232693   -2.7053183334   -0.8107777953
 O    0.0523822403   -3.8770277294   -1.0946746844
 N   -1.1281697831   -2.0827645666   -0.3436929212
 C   -1.2891114273   -0.7305662782   -0.0463079529
 O   -2.3676025650   -0.2673178106    0.2108371690
 H    0.8800342138    1.7111615657    0.2681451959
 H    1.2697189312   -1.5385013321   -2.0732261048
 H    2.1067428012   -2.3152079616   -0.7186400327
 H   -1.9655016907   -2.6517523726   -0.2821406244