20

 O   -0.1049555081    1.4298279448    0.0128426201
 C    0.0049707638    0.0120235789    0.0087703339
 C    0.7727171641   -0.5121437960    1.2295185152
 C    0.7721021348   -2.0470587660    1.2743142700
 C   -0.6604658855   -2.5983680098    1.2321508291
 C   -1.4266109350   -2.0718715249    0.0113992385
 O   -2.7894643619   -2.4779023849    0.0177707447
 C   -1.4174301768   -0.5445415784   -0.0218002491
 H    0.7849434809    1.7951435146    0.0473397011
 H    0.5325111593   -0.3212343507   -0.9030508315
 H    1.8025501385   -0.1317881574    1.2138644736
 H    0.2955022453   -0.1072738944    2.1312295992
 H    1.3405127733   -2.4386212799    0.4194798763
 H    1.2877096087   -2.4001334771    2.1734241211
 H   -0.6460601562   -3.6961266087    1.2183637464
 H   -1.2085263536   -2.2966228263    2.1339911935
 H   -0.9273520481   -2.4462983233   -0.9003695084
 H   -2.8111607897   -3.4395606048    0.0539438247
 H   -1.9666811081   -0.1661220361    0.8489044700
 H   -1.9399996059   -0.1866746195   -0.9137194684