14

 O   -0.1492496852    1.2501263726   -0.2745320472
 C   -0.0130404476   -0.0950673263   -0.1141081686
 C    0.3286234194   -1.0323732955   -1.0605324948
 N    0.3439304901   -2.2729508348   -0.4606734273
 C    0.0147811088   -2.1265820696    0.8611632046
 C   -0.2204009893   -0.7928767679    1.1073493869
 O    0.6876915656   -0.8663932603   -2.3775478844
 C   -0.3372418195   -0.8450294925   -3.2916988639
 O   -0.1387072163   -0.6958077965   -4.4537457310
 H    0.2475094946    1.5031347572   -1.1154164616
 H    0.6487360827   -3.1184313004   -0.9101878421
 H   -0.0290642769   -2.9791242727    1.5183724912
 H   -0.5101126255   -0.3509003287    2.0468936310
 H   -1.3197212107   -0.9740509946   -2.8025095329