17

 C   -0.4200492762    1.4039491690   -0.0271360240
 C    0.2107902587    0.0144672345    0.1065326824
 C    0.8305694758   -0.4760015341   -1.1924914473
 C    0.7071487344   -1.8952224166   -1.5937756534
 O   -0.1165255332   -0.9041355246   -2.1954767924
 C    1.9486018658    0.2849656052   -1.6943830127
 C    2.8890379195    0.9439151663   -2.0789463167
 C    3.9475143802    1.6742481067   -2.5209842969
 C    4.8873539559    2.3239772745   -2.9120118339
 H    0.3277329221    2.1516435241   -0.3076431074
 H   -1.1999523391    1.3992643898   -0.7940788948
 H   -0.8720561651    1.7148399319    0.9188790572
 H    0.9853119761    0.0195742655    0.8824552148
 H   -0.5474389310   -0.7155920927    0.4087638478
 H    1.4625730016   -2.3362677238   -2.2413003250
 H    0.2021774047   -2.5849895444   -0.9181144215
 H    5.7136677499    2.8937774888   -3.2583446364