18

 C    0.1937740451    1.5534669117   -0.0358660529
 N    0.0383411590    0.0925344648   -0.0094736288
 C    0.5865304709   -0.5198507816    1.1641951734
 C    2.1277520328   -0.4658694615    1.3191950788
 O    2.2224355728   -1.8873476708    1.5485448426
 C    0.8033304545   -2.0613851101    1.4040393756
 C    0.0650226399   -1.9977146022    2.7625932634
 C   -0.1655919998   -0.4877851409    2.5176848094
 O   -0.8315399588    0.3469121065    3.0620512645
 H    1.2593244387    1.8044220425   -0.0636839133
 H   -0.2591089332    1.9399524995   -0.9527892880
 H   -0.2582110158    2.0634321324    0.8258511501
 H   -0.9497433188   -0.1324120202   -0.0801202253
 H    2.6165148942   -0.1817891657    0.3803141111
 H    2.5359453062    0.1251950012    2.1462416995
 H    0.5307574549   -2.8405240957    0.6906102928
 H   -0.8798474570   -2.5510177964    2.7962045675
 H    0.6697819544   -2.2640029435    3.6321800598