21

 C   -0.1506466694    1.3380459312   -0.3781413858
 C    1.2660113346    0.9255314094   -0.0963027836
 C    2.0604138713    1.3622440237    1.1417335750
 C    2.2396688466    0.3519538135    2.2937151801
 O    1.3181906340    0.4945115811    3.3628987613
 C   -0.0549823924    0.5092943331    2.9871028849
 C   -0.4924286355   -0.7320686010    2.2570221642
 C   -0.3702928398   -0.9689100832    0.9469374736
 C    0.1626520138   -0.1350823991   -0.1624599922
 H   -0.6978649761    1.8456429009    0.4081765085
 H   -0.4219466582    1.6600608778   -1.3780883820
 H    1.8902284942    0.8900637487   -0.9849172098
 H    3.0651319950    1.6155426089    0.7869116813
 H    1.6612895396    2.2931649619    1.5599059632
 H    2.2263106785   -0.6719715671    1.8947639089
 H    3.2143492282    0.5101513130    2.7656563742
 H   -0.6008526342    0.6057345427    3.9299392642
 H   -0.2729747755    1.4112287062    2.4001950710
 H   -0.8862038442   -1.5335662035    2.8768559119
 H   -0.7020680027   -1.9480974003    0.6046000180
 H    0.1998886422   -0.7013780379   -1.0881748569