21

 C   -0.0895911679    1.4386958272   -0.4254968270
 C   -0.0448680645    0.0205042698   -0.0979039124
 C   -0.0018272500   -1.1522039634    0.1715809980
 C    0.0195056569   -2.5754681352    0.5030360199
 C   -1.3361886360   -3.2416466499    0.2910953683
 C   -1.7215681483   -3.8184383840   -1.0456958672
 C   -1.5085915149   -4.7360898528    0.1345352208
 C   -0.3587165831   -5.7082447370    0.1596725385
 O   -0.7640556337   -6.8761857392   -0.5444671890
 H    0.6230835664    1.6884555692   -1.2195450785
 H   -1.0857581952    1.7359806766   -0.7719847593
 H    0.1551976493    2.0585368702    0.4443878519
 H    0.7850531586   -3.0765856458   -0.1015257675
 H    0.3327961502   -2.6999842669    1.5490213027
 H   -2.1322773484   -2.7458075886    0.8391274547
 H   -2.7284756991   -3.6655014599   -1.4171286310
 H   -0.9605973899   -3.8284552063   -1.8204295300
 H   -2.4073378509   -5.1485179707    0.5854650001
 H    0.5350576476   -5.2627856200   -0.3038293658
 H   -0.0969095461   -5.9515423086    1.2026278584
 H   -0.0632360110   -7.5300654448   -0.4633671256