15

 C    0.0057865440    1.4042258454    0.0660615341
 O    1.3040186981    1.9341995693   -0.0699369083
 C    2.0086944814    0.9166086093   -0.7834850445
 C    3.4692114775    0.6122170032   -0.4720677135
 C    3.4338654273   -0.9577649297   -0.4976584358
 N    2.0747391499   -1.3554886802   -0.0486393275
 C    1.3709326899   -0.3200774296   -0.2181140052
 O    0.1220218381   -0.0364897393    0.1914007178
 H   -0.4536772179    1.7983392065    0.9746261178
 H   -0.6181324812    1.6155795183   -0.8153694189
 H    1.8266046010    1.0206511241   -1.8658036249
 H    4.1838958804    1.0464885531   -1.1735851778
 H    3.7042071369    0.9618471070    0.5376782321
 H    3.6332341363   -1.3464169174   -1.5048800095
 H    4.1795137085   -1.3986783699    0.1691966540