23

 C    0.2940390203    1.6249170202    0.0569874224
 C    0.4300601437    0.1004312332    0.0231755147
 C    0.3985158084   -0.5276011968    1.4226790067
 O   -0.8262435679   -0.2666399627    2.1071265824
 C    0.6931095810   -2.0289881367    1.3919214688
 C   -0.3966684508   -2.9067216021    0.8074689186
 O    2.0249015882   -2.3573785000    0.9583319310
 C    1.6638922422   -2.6449428742    2.3188138906
 C    2.4326978123   -1.9496379148    3.4123831175
 H    1.1369473405    2.0819833108    0.5868533641
 H    0.2689126945    2.0425271270   -0.9538609064
 H   -0.6216493433    1.9231913417    0.5752075919
 H   -0.3775994780   -0.3294596129   -0.5862519238
 H    1.3693648947   -0.1925454712   -0.4582894766
 H    1.1638401557   -0.0345833279    2.0283627200
 H   -1.5499336925   -0.4950045800    1.5138622444
 H   -0.6344650903   -2.6180610361   -0.2218231321
 H   -0.0736137732   -3.9501264172    0.7930569056
 H   -1.3111801007   -2.8392234720    1.4054068422
 H    1.5195325486   -3.7127901343    2.5032036781
 H    2.6091262621   -0.8956750505    3.1921201885
 H    1.8929029560   -2.0234530880    4.3624911410
 H    3.4080228184   -2.4305381754    3.5425526004