14

 C   -0.0199482825    1.4891063434    0.0387608346
 C   -0.0331680229   -0.0007099190    0.0536329307
 N   -0.0974442483   -0.7194685041   -1.0356137949
 O   -0.0885150289   -2.0336614774   -0.6312057207
 N   -0.0181298333   -2.1285075050    0.7188853595
 C    0.0170952173   -0.9017107487    1.1659383188
 C    0.0967820802   -0.5588363704    2.6162023961
 N    0.1315586528   -1.6270903251    3.4493197548
 O    0.1263119663    0.6032501192    2.9799605944
 H    0.8857479625    1.8662146150    0.5201813935
 H   -0.0701971249    1.8527727920   -0.9886992383
 H   -0.8633696320    1.8826550794    0.6115152693
 H    0.1032817215   -2.5680211311    3.0937273243
 H    0.1843760723   -1.4624829581    4.4405463279