24

 C    0.0023571835    1.4988823319    0.0747435513
 C   -0.0234318444   -0.0088247983    0.2608446270
 O   -1.2380071937   -0.5038462074   -0.2696863954
 C   -1.3696243723   -1.8980227663   -0.1850370305
 C   -1.8689189816   -2.4425718608    1.1819024224
 N   -3.2371866103   -2.4769521675    0.6387579757
 C   -4.0943853150   -3.5831015963    0.9928007404
 C   -2.7331850407   -2.3794400805   -0.7494293851
 C   -3.5171648576   -1.4743572268   -1.6826748972
 H    0.9336036971    1.9164960444    0.4690354986
 H   -0.0730484384    1.7550662625   -0.9858464520
 H   -0.8371386391    1.9637614782    0.5993141256
 H    0.8310619871   -0.4793385514   -0.2552108858
 H    0.0655034257   -0.2657321910    1.3287254744
 H   -0.4781100428   -2.3912581192   -0.5952875924
 H   -1.4543548870   -3.4406921671    1.4035369937
 H   -1.7370470046   -1.7986182780    2.0588370799
 H   -4.3325213213   -3.5451139746    2.0614462536
 H   -5.0379253508   -3.5172512388    0.4404853244
 H   -3.6419320249   -4.5722930213    0.7795199122
 H   -2.6046589822   -3.3779395490   -1.2055953151
 H   -3.5755798303   -0.4652692953   -1.2718638935
 H   -3.0405126736   -1.4252565842   -2.6673963366
 H   -4.5334881532   -1.8589709930   -1.8202248856