20

 C   -0.3085542452    1.4804777463   -0.0026755652
 C    0.0320547371    0.0087280912   -0.0252522716
 C    1.1857099710   -0.4681105965   -0.9457969193
 C    1.9354332655   -1.0590633531    0.2869432462
 C    0.7219118814   -0.7114600736    1.1967521738
 C    1.0024450654    0.0357206895    2.4883764814
 N   -0.1408324066   -1.8833245481    1.4479162546
 C   -1.1147481209   -1.7887936575    0.6410437528
 O   -1.1900238708   -0.7552263612   -0.2318926037
 H    0.5901240591    2.0798344373    0.1703145268
 H   -0.7404555237    1.7876969633   -0.9606998433
 H   -1.0315014399    1.7044380747    0.7872117051
 H    0.8556767648   -1.2069786013   -1.6786158557
 H    1.7088886947    0.3335024847   -1.4729996963
 H    2.1672250761   -2.1246129187    0.2413430258
 H    2.8438887553   -0.5113377645    0.5521522748
 H    1.6177593926    0.9233808870    2.3101823769
 H    0.0725336729    0.3491624215    2.9732046770
 H    1.5378444116   -0.6179241368    3.1839476498
 H   -1.9441719904   -2.4856447042    0.5782240299