16

 C    0.0291829116    1.3682154739   -0.0703141430
 N   -0.0074716259   -0.0545644175    0.2006626138
 C   -1.2147611708   -0.7202381094    0.0890801421
 C   -2.4874563915   -0.1901630910    0.0634258649
 N   -3.3805128102   -1.2499689511    0.0055657473
 C   -2.7208412778   -2.4294157855   -0.0200896162
 C   -1.3621450819   -2.1519137134    0.0299864412
 C   -0.2987247625   -3.0791466577    0.0117845424
 N    0.6091689117   -3.8012627404   -0.0095782806
 H    1.0601524245    1.7211051940    0.0003516962
 H   -0.3683506579    1.6347039031   -1.0632668472
 H   -0.5580174209    1.9069274980    0.6826481195
 H    0.7759546964   -0.5748342925   -0.1660801955
 H   -2.8325244849    0.8282558541    0.0907905875
 H   -4.3799296322   -1.1519858393   -0.0201466570
 H   -3.2322659578   -3.3758406953   -0.0736613653