19

 C   -0.1592138537    1.4280019580   -0.1375281056
 N    0.0614536729    0.0019825344    0.0345975394
 C    1.4267867122   -0.4896122688   -0.1313020482
 C    0.7782900367   -0.4901690296    1.2084668680
 C    1.2701449734    0.3784122860    2.3737149850
 C    0.6499720420   -0.3330525074    3.5867344265
 O    0.6053891604   -1.7064241992    3.2282898337
 C    0.2052664851   -1.7536886878    1.8676297402
 H    0.6960668714    2.0589746137    0.1557075891
 H   -0.3741160226    1.6248525114   -1.1926721593
 H   -1.0313412054    1.7389642200    0.4474364814
 H    1.5399657589   -1.4126009903   -0.6964810034
 H    2.2138301777    0.2461169090   -0.3027509139
 H    2.3620214989    0.3548739510    2.4376763957
 H    0.9605943766    1.4233671775    2.2955442535
 H    1.2376233956   -0.2420489176    4.5033636521
 H   -0.3649631718    0.0511370292    3.7843225924
 H   -0.8918441215   -1.7427598364    1.7709614071
 H    0.5835644231   -2.6842925231    1.4355236265