21

 C   -0.1412332665    1.6059528869   -0.1509277484
 C   -0.0409606382    0.0911045353   -0.0337545760
 C   -1.4119522105   -0.5979452637    0.1431897186
 C   -1.4851886705   -0.9926191200    1.6692288146
 C   -0.0596753361   -0.8098867341    2.3064835859
 C    0.7779691886   -0.6046933770    1.0807892444
 C    2.1177711187   -0.1417537416    0.4658529458
 C    1.1729374937   -0.6732862090   -0.6647482127
 O    0.8692390040   -1.8200132140    0.2008145261
 H    0.8278654621    2.1095166876   -0.1752264182
 H   -0.6712931860    1.8734027912   -1.0723285717
 H   -0.7171031393    2.0271702634    0.6817154802
 H   -2.2318575969    0.0720129931   -0.1295528323
 H   -1.4942389030   -1.4931790830   -0.4721894419
 H   -2.2171771397   -0.3775170685    2.2004253632
 H   -1.8129160768   -2.0292620696    1.7714346829
 H   -0.0159976496    0.0761850324    2.9482591111
 H    0.2511356858   -1.6727837651    2.9007977576
 H    2.3802198492    0.9163949939    0.5056523310
 H    2.9693327173   -0.7922145052    0.6659445311
 H    1.4199074236   -0.8802551633   -1.7084187711