20

 C    0.1117283222    1.4562879940    0.3339585425
 C    0.1409637528   -0.0052203728    0.0093768861
 C   -0.0368591191   -0.6502172048   -1.3572218574
 C   -0.4099166448   -1.9055393380   -0.5487809439
 C    0.8511379486   -2.3601326609    0.2180399754
 C    2.1419104792   -2.7218218603   -0.4932405843
 O    3.1022977176   -3.0187669393    0.5126472641
 C    0.6845441269   -1.0401556480    0.9489451956
 N   -0.7968625439   -0.9917727432    0.6617985876
 H    1.0321269623    1.9494897440    0.0009025484
 H   -0.7350757424    1.9498796625   -0.1545798204
 H    0.0156529833    1.6117031682    1.4128838469
 H   -0.9183383441   -0.2360994108   -1.8559626478
 H    0.7975874770   -0.6872020251   -2.0655295850
 H   -1.1322967505   -2.6281844344   -0.9240023204
 H    0.5824458569   -3.1753579611    0.8984744779
 H    1.9683870936   -3.5900323226   -1.1512971573
 H    2.4812956062   -1.8900693406   -1.1276032807
 H    3.9406931438   -3.2085225683    0.0818002887
 H    1.0713858342   -0.7716640985    1.9255529341