21

 C   -0.9234988324    1.1571801708   -0.0137902652
 C    0.0319242664   -0.0367111730   -0.0865126315
 C    1.1184298150    0.0689714591   -1.1336152250
 C    2.2561456431   -0.5017613032   -0.7402886666
 C    2.1205293059   -1.0878212239    0.6421709270
 O    3.2773653024   -1.0012855253    1.4629458026
 C    0.8355422653   -0.3832670719    1.2041707825
 C    1.2089510305    0.8507230293    2.0318833077
 O    0.0358040123   -1.2648181876    1.9861660085
 H   -0.3933575177    2.1011827368    0.1453339310
 H   -1.4865642331    1.2483828216   -0.9486401958
 H   -1.6464870685    1.0278656176    0.7973291048
 H   -0.5739223162   -0.9299708157   -0.2990727662
 H    0.9421045588    0.5203070807   -2.1048833017
 H    3.1633041894   -0.6057481708   -1.3257636610
 H    1.9054038733   -2.1634800456    0.5907098549
 H    3.6202003591   -0.1037278548    1.3957133230
 H    1.7525787342    1.5911414523    1.4351494361
 H    0.3097698249    1.3239833346    2.4313517283
 H    1.8489384567    0.5576785894    2.8698771719
 H    0.5349475008   -1.4819456405    2.7814730145