17

 C    0.3655646942    0.9119644208   -0.9096146879
 C   -0.1478658172    0.2665520895    0.3560147067
 O    0.3384581858    0.4590196939    1.4485915427
 C   -1.3196915551   -0.6789194621    0.2206804001
 C   -2.2944914962   -0.8414857473    1.4023918161
 O   -2.2211340922   -2.2909367261    1.3246874730
 C   -1.2603429465   -2.2358234226    0.2699553211
 C   -1.8825128047   -2.1618953857   -1.1332082677
 O   -1.9556210815   -0.7114901917   -1.0684424705
 H    1.2056704761    1.5648956475   -0.6717987923
 H    0.6737459430    0.1462974481   -1.6297851124
 H   -0.4367867761    1.4769129482   -1.3951503884
 H   -1.8889254832   -0.4732990438    2.3491521539
 H   -3.3034771780   -0.4576683303    1.2233336461
 H   -0.3804879420   -2.8564121682    0.4471061805
 H   -1.2300924665   -2.4868791194   -1.9529785881
 H   -2.8668863598   -2.6313821907   -1.2232469229