15

 C   -0.0481441191    1.5575582413    0.0314320030
 C   -0.0127712638    0.0131390804   -0.0383045775
 C    0.8260024341   -0.5426055084   -1.1763217221
 C    1.8413636914   -1.2384734673   -0.6607154100
 N    1.8060128333   -1.2467595064    0.7405545480
 C    0.7352583339   -0.5309318686    1.2301718954
 O    0.4553444954   -0.3300992195    2.3831941400
 C   -1.3759433982   -0.5242666751   -0.0709464044
 N   -2.4529645311   -0.9404632241   -0.1227548473
 H    0.9721699743    1.9487130629    0.0135308086
 H   -0.5979537704    1.9664218720   -0.8191755948
 H   -0.5336033708    1.8699268974    0.9588574418
 H    0.6074823885   -0.3902142653   -2.2212158256
 H    2.6371411119   -1.7608392777   -1.1717157314
 H    2.4789077504   -1.6904559016    1.3436703263