21

 C    0.5530944973    0.1053203098   -1.4398991353
 C    0.0567623420    0.0853335183    0.0077679117
 O    0.1077035808    1.3895826734    0.5882550273
 C   -1.3515707168   -0.4922014732    0.1175298965
 C   -1.5410534838   -2.0525437660    0.0769795203
 C   -1.1794642985   -2.0544072942    1.5977329199
 C   -1.9597985785   -0.7212760619    1.5293397095
 O   -3.3014713023   -1.1455997321    1.2267283966
 C   -3.0699822254   -2.1189977745    0.1788886535
 H    1.5476820158    0.5561692163   -1.4916931473
 H    0.6057283283   -0.9053191198   -1.8577269720
 H   -0.1235555954    0.6928601363   -2.0729363131
 H    0.7611725190   -0.4975572390    0.6092524608
 H   -0.4922679901    1.9550442234    0.0886190481
 H   -2.0183330520    0.0693402267   -0.5513481977
 H   -1.0529750524   -2.6961995024   -0.6546271570
 H   -1.6065958154   -2.8412309959    2.2239920775
 H   -0.1148206806   -1.9439712114    1.7975067967
 H   -1.9736154764    0.0319077536    2.3138981146
 H   -3.5853196301   -1.8136096284   -0.7394985068
 H   -3.4445856255   -3.1021798688    0.4879549263