23

 C    0.0476484084    1.3714666178   -0.0202357964
 O    0.0969818797   -0.0332805328   -0.0399574434
 C    0.6232559348   -0.5844323623    1.1515394597
 C    0.6263906543   -2.0858159340    1.0329055910
 C    1.5420769349   -2.8426612659    0.0221578594
 C    1.2719576835   -4.0390242110    0.9779505283
 C    1.2762207146   -2.9877306268    2.1258596125
 C   -0.2366574276   -4.2787033392    0.7695659946
 C   -0.7291586868   -2.7945274005    0.8116117016
 H    1.0487110684    1.8154222845    0.1041491980
 H   -0.3665536217    1.7000283288   -0.9768178578
 H   -0.5940564055    1.7481056060    0.7928040532
 H    1.6467478873   -0.2081077003    1.3255525797
 H    0.0136361393   -0.2721273403    2.0193523122
 H    1.2066938805   -2.9203377632   -1.0158377834
 H    2.5778876985   -2.4950766753    0.0593713649
 H    1.9212592157   -4.9146240082    1.0029921429
 H    2.2842579217   -2.6610274465    2.3950751193
 H    0.6954992816   -3.2025696082    3.0290694225
 H   -0.4505840141   -4.7664851408   -0.1860660157
 H   -0.6739992056   -4.8917794247    1.5632718611
 H   -1.4273053556   -2.6035679631    1.6331150750
 H   -1.2052104363   -2.4713281541   -0.1164362793