21

 C   -0.1339994386    1.5498252078    0.0769940059
 C    0.0355691889    0.0489617413    0.0251661577
 C    0.7107830168   -0.6754220145   -1.1398070557
 C    1.3694315177    0.0867625018   -2.2883293072
 C    2.9036064235    0.1618678702   -2.1581009710
 C    3.3480903295    0.4734307157   -0.7480698937
 C    2.6421847693    0.1115113104    0.3233674580
 C    1.3690875547   -0.6513734611    0.2086614668
 O    1.3561047000   -1.8793369309    0.9015085828
 H    0.7821026514    2.0727142544   -0.2095581251
 H   -0.9365575151    1.8842054941   -0.5908724950
 H   -0.3924574199    1.8764043639    1.0905053206
 H   -0.7906344784   -0.5136036170    0.4538057025
 H    0.2633681780   -1.6295896624   -1.3975171644
 H    1.1032318224   -0.3845300159   -3.2398282515
 H    0.9738811069    1.1074298392   -2.3371946451
 H    3.3559044328   -0.7922192715   -2.4671165364
 H    3.2979581852    0.9132918835   -2.8515557172
 H    4.2947659814    0.9938153227   -0.6237023034
 H    2.9995642219    0.3366745555    1.3268397365
 H    1.2958681116   -1.6842312473    1.8435297549