19

 O    0.0850348252    1.4206505282    0.0044908498
 C   -0.0196015313    0.0260529035    0.0526863422
 C   -1.4537609243   -0.5915362041    0.0262534406
 C   -1.5783291885   -2.0414673190    0.5958530614
 C   -1.6149576300   -2.6227690841   -0.8551164855
 C   -1.1890772008   -1.2512024280   -1.3694162001
 C   -1.3316644579   -0.4769939456   -2.6698126649
 O   -0.0744881292    0.2181779518   -2.4131359205
 C    0.2539618410   -0.6728647924   -1.3140040869
 H   -0.0697763856    1.6579768023   -0.9224451100
 H    0.5954653383   -0.3313609532    0.8861996017
 H   -2.2900099193    0.0834279839    0.2161075238
 H   -0.7022900381   -2.3531677887    1.1728917900
 H   -2.4679426472   -2.2320362996    1.1985147721
 H   -0.9674739459   -3.4737345778   -1.0863698223
 H   -2.6356227189   -2.8745972536   -1.1604681588
 H   -1.2555892823   -1.0820524666   -3.5834523465
 H   -2.1770644206    0.2145242206   -2.7618011691
 H    1.1838655053   -1.2210869077   -1.4928243370