23

 C   -0.1656841937    1.5913204705   -0.0785467425
 C   -0.0218539766    0.0538269935   -0.0076488133
 C    0.4122052313   -0.5006926571   -1.3443139237
 C    1.6367395555   -0.9617646893   -1.6066969274
 C    2.7253631500   -0.9874384052   -0.6021266033
 C    3.1669130665    0.3287545885    0.0328458048
 C    2.3386682338   -0.6516745123    0.8184841256
 C    0.8610695474   -0.4882231254    1.1563213153
 C    0.6732134510    0.2776257506    2.4734469142
 H    0.7964662581    2.0944009129   -0.2039581268
 H   -0.7915748318    1.8673711527   -0.9336035114
 H   -0.6422671770    1.9916343258    0.8207858687
 H   -1.0370859420   -0.3225940829    0.1853133733
 H   -0.3321847894   -0.4782696582   -2.1373061615
 H    1.8735299250   -1.3274646553   -2.6027841158
 H    3.5015134431   -1.7297564965   -0.7594018246
 H    4.2122670272    0.4338744715    0.3052152775
 H    2.7144859688    1.2325333633   -0.3550691347
 H    2.8859198973   -1.1860638434    1.5917690741
 H    0.5013847152   -1.5128742268    1.3292329565
 H    1.0750947813    1.2934985921    2.4108100291
 H   -0.3841659293    0.3475118171    2.7509132655
 H    1.1960910085   -0.2328503462    3.2892649404