19

 C    0.0284753957    1.5114193970   -0.0728671467
 O    1.4377071646    1.5625558493    0.2321730601
 C    1.4910014932    0.1393011308    0.4366412077
 C    0.0161694246   -0.0326417017   -0.0138005105
 C   -0.9834428765   -0.7367650913    0.9272107159
 C   -1.1058693410   -2.1914362716    0.4106928477
 C   -0.8022144712   -2.0682255101   -1.0699157507
 O   -1.5029843899   -0.9896744183   -1.7074729010
 C   -0.1367182283   -0.7836151216   -1.3194843365
 H   -0.5768059486    2.0020763283    0.7013433490
 H   -0.2029851734    1.9624403899   -1.0451620891
 H    2.2536312268   -0.3396269424   -0.1917281817
 H    1.6821910891   -0.1223187435    1.4864739926
 H   -0.6738397644   -0.6831071863    1.9741293244
 H   -1.9528989895   -0.2380149149    0.8460767070
 H   -0.3576039080   -2.8478459191    0.8717721407
 H   -2.0901367542   -2.6263770068    0.6082701992
 H   -0.6396894270   -2.9469807491   -1.6887847280
 H    0.5629194379   -0.6170243885   -2.1358237100