16

 C   -0.2796461342    1.5382586184    0.0110833570
 C   -0.0225921245    0.0612751476   -0.0227228771
 C    0.0363405930   -0.6734434835   -1.1534825253
 N    0.2730338028   -2.0225017843   -1.1588653882
 C    0.4756084313   -2.7785775228   -0.0133526496
 N    0.6869819143   -4.0323837703   -0.1235567253
 N    0.4127487887   -2.0104731448    1.1413862529
 C    0.1776063796   -0.6297675769    1.2516948974
 O    0.1530793032   -0.1033544256    2.3481069426
 H    0.5482739617    2.0702727213    0.4913395050
 H   -0.4120630473    1.9398252069   -0.9973232488
 H   -1.1756695915    1.7679357877    0.5972166179
 H   -0.1015636208   -0.2331787053   -2.1349449547
 H    0.3094820097   -2.5441762008   -2.0194024929
 H    0.8197680325   -4.4757258559    0.7815831153
 H    0.5495929313   -2.4813944519    2.0243987236