15

 C   -0.0663159125    1.5742493472    0.0547165662
 C    0.0203853582    0.0481391288    0.0113548273
 N    0.7907142540   -0.4502328312   -1.1249001466
 C    1.8174253477   -1.3131883386   -0.8393328516
 O    2.5277861467   -1.8872754687   -1.6331180076
 C    1.8648359457   -1.3977258655    0.6766543517
 O    2.1334577295   -0.1108314447    1.2688311757
 C    0.7815881475   -0.5544490047    1.1918927213
 H    0.9339793856    2.0015126522    0.1559135781
 H   -0.5280303120    1.9651912038   -0.8574102116
 H   -0.6776997193    1.8979094180    0.9028177792
 H   -0.9930908628   -0.3788055064   -0.0028231037
 H    0.6444198595   -0.1272638970   -2.0682837488
 H    2.2927965513   -2.2622803899    1.1709022301
 H    0.2759610010   -0.7272625232    2.1369775104