15

 N   -0.1281750755    1.4591151904    0.0921254897
 C    0.0255003909    0.1131776433   -0.0883606662
 N   -0.9480228158   -0.7486372686    0.0338562754
 H   -1.9016677758   -0.4017652085    0.1198348057
 C   -0.9398420041   -2.1372095089    0.0573883854
 C    0.0970457972   -3.0673379794    0.1473077120
 N   -0.4586153940   -4.2985568298    0.1154054580
 C   -1.7865464830   -4.0335825615    0.0126530905
 O   -2.6913448230   -5.0360863366   -0.0419956136
 N   -2.1565580735   -2.7616585678   -0.0246908019
 H    0.5397974346    2.0510265494   -0.3776021460
 H   -1.0660020492    1.8343800890    0.1013905048
 H    1.0272197392   -0.2629449725   -0.2498650970
 H    1.1627967153   -2.9157759282    0.2531553463
 H   -2.1726108531   -5.8481455902    0.0036626768