15

 N    0.3403329119    1.4149435592    0.2283389902
 C    0.1066189543    0.0830635497    0.0392636806
 N   -1.0506414124   -0.4206201935   -0.2020176194
 C   -0.9486361204   -1.8846329090   -0.1850682048
 C   -1.4899160657   -2.4739642931   -1.4866033762
 O   -2.1787956768   -3.4578304488   -1.5430550247
 C    0.5383850793   -2.2140542888   -0.0043387453
 O    1.3620879132   -1.6776566358   -1.0474241652
 C    1.2173638403   -0.9233086091    0.1690769592
 H    1.2536285185    1.7678167961   -0.0095119314
 H   -0.4280550342    2.0258212937   -0.0090373007
 H   -1.5351229719   -2.3100336534    0.6372630224
 H   -1.1763186583   -1.9154481292   -2.3930325715
 H    0.8775971456   -3.1456325418    0.4376563885
 H    2.1214320566   -0.7564215064    0.7471283882