16

 O    0.4335034275    0.7488391773   -2.1435546187
 C    0.1169766556    1.4101514426   -1.1806132715
 C    1.0987319184    1.7795310007   -0.0806480654
 C    2.4713137079    1.1338031840   -0.3220414893
 C    3.4312287172    1.4806454929    0.7219408018
 N    4.1801887965    1.7607478326    1.5560479418
 C   -1.2901244603    1.9238195082   -1.0513918085
 C   -2.0925715226    1.6655339100    0.1634889754
 O   -1.5369013978    2.9472116115   -0.0868506900
 H    1.1737814548    2.8721858889   -0.0408906673
 H    0.6947851451    1.4882880528    0.8954600980
 H    2.3726105698    0.0448713567   -0.3722170145
 H    2.8647623308    1.4447081853   -1.2945415407
 H   -1.8101938295    2.0241012287   -2.0024648307
 H   -3.1732640492    1.5879402898    0.0609331288
 H   -1.6590710142    1.1147602181    0.9962562406