18

 O    0.2278788992    1.3547845194   -0.0079949962
 C    0.2160929556   -0.0309637420    0.1853931325
 C    0.1632307171   -0.6014988997    1.6570948889
 C   -1.1772945326   -1.2429785038    1.3034155420
 N   -2.0524696205   -0.1167676881    0.8772044157
 C   -1.1213967537   -0.7463809665   -0.0993910244
 C   -1.6067496338   -1.2988132514   -1.4086308337
 C   -2.0095649820   -0.1908125586   -2.3729412189
 O   -3.0112374074   -0.2095110038   -3.0393676876
 H   -0.5862218195    1.6767734060    0.4041395546
 H    1.0515501171   -0.4443887308   -0.3852402993
 H    0.9606328581   -1.3211483697    1.8548017917
 H    0.1314756857    0.1479853838    2.4514598976
 H   -1.6113581664   -2.1575423439    1.6884106715
 H   -2.9831334280   -0.4926535903    0.6973508622
 H   -0.7945032746   -1.8675428588   -1.8853501818
 H   -2.4567578694   -1.9780529170   -1.2837787520
 H   -1.2955339648    0.6605307653   -2.4180105927