17

 O    0.9239126669   -0.0601560637   -1.0663498792
 C   -0.0008432482   -0.0257544691   -0.0112680132
 C   -1.2564325575   -0.7815868482   -0.3859187076
 O   -1.3756992069   -1.3277496942   -1.4571986101
 C    0.6204277289   -0.5985027402    1.2706641477
 C    1.8713993006    0.1645843239    1.8435274763
 C    1.0782184021    0.3938504762    3.1354425693
 O   -0.1140415865    1.1078161776    2.7834112289
 C   -0.0989091028   -0.3131591582    2.6049232981
 H    0.4966069399   -0.5731829617   -1.7705102150
 H   -0.3019114558    1.0127984027    0.2077762443
 H   -2.0627188929   -0.8124209076    0.3748096353
 H    0.8380475189   -1.6623682029    1.1391493352
 H    2.7332493772   -0.4935062783    1.9680451228
 H    2.1738112791    1.0690571783    1.3122533809
 H    1.4327522877    0.5015417824    4.1536548500
 H   -0.8714703307   -0.8842816969    3.1072673664