19

 C   -0.1119057510    1.5330173737    0.0146021586
 C    0.0545267411    0.0374497897    0.1841795007
 C    1.2779147350   -0.7754568290   -0.1897560885
 C    2.5720098643   -0.0301139062    0.1725532090
 C    2.1107503480   -0.0285053898    1.6767506257
 C    2.0660434441    1.2421155624    2.4807487488
 O    1.0880591337    1.6425368860    3.0636613983
 C    0.8013621899   -0.7025972640    1.2618427011
 O    0.2170042442   -1.7094808711    2.0083148037
 H    0.8223931335    2.0829833921    0.1499089336
 H   -0.4812119890    1.7624300477   -0.9910550271
 H   -0.8270938373    1.9329877345    0.7398501789
 H   -0.8486307531   -0.5233072129   -0.0536862763
 H    1.2230502405   -1.6047610612   -0.8839318413
 H    3.4751219427   -0.6210572284    0.0138135493
 H    2.7111165795    0.9497616955   -0.2936277951
 H    2.7371298693   -0.7367804235    2.2345847401
 H    3.0279930478    1.8054639179    2.5278993659
 H   -0.4131257032   -1.2993021235    2.6118669747