14

 O    0.1455083975    1.0977662554   -0.7429035860
 C   -0.0382106393    0.0120886559    0.1820627310
 C   -1.4317040299   -0.5247295628    0.0998227171
 N   -2.1102748944   -0.9815877750    1.1527100899
 N   -3.2821257108   -1.3874818695    0.6449184278
 C   -3.3950500902   -1.1890931906   -0.7003807361
 C   -2.1979648614   -0.6254591957   -1.0886858036
 O   -1.8311855199   -0.2462970125   -2.3384839565
 H   -0.4204405328    1.8213971031   -0.4505029968
 H    0.6988915777   -0.7373258821   -0.1272289863
 H    0.2014662798    0.3077250335    1.2106290478
 H   -3.9731423733   -1.7733332585    1.2642599924
 H   -4.2801703648   -1.4512884432   -1.2551578757
 H   -1.0255715883    0.2835674721   -2.2300172951