16

 N   -0.0990956594   -1.1493978318    0.0575001199
 C   -0.0609944615    0.0076150037    0.0204656790
 C    0.0022088982    1.4259185119   -0.0132454181
 C   -0.7316042097    2.4829422485    0.8044986133
 C    0.5870254204    3.1698657207    1.1380854538
 C    1.2721382425    2.3544744799   -0.0292013075
 C    1.1222838601    3.1738959734   -1.2915497267
 C   -0.1679477783    3.2225192758   -1.6352860696
 C   -0.9659802639    2.3608160749   -0.7138716925
 H   -1.5601888695    2.3280326582    1.4842075108
 H    0.6411889908    4.2604512301    1.0758955725
 H    0.9493613637    2.8317247200    2.1114538441
 H    2.2458551489    1.9174077116    0.1785443390
 H    1.9306094007    3.7460503506   -1.7288386688
 H   -0.6104851413    3.8144074722   -2.4256767673
 H   -1.9392126116    1.9771710605   -0.9952008219