23

 C    0.0987927780    1.3568420354    0.9325829153
 C    1.2287686732    0.8653144538    0.0595473184
 C    2.5760093079    0.4048377640    0.6178052934
 C    2.6603426243   -0.9485370669    1.3285911795
 C    2.0522427270   -2.1241594035    0.5123406524
 C    0.7644823755   -2.0183631351    1.3775685346
 C    1.5957768597   -1.2275083268    2.4288519168
 C   -0.3777433568   -1.2619520339    0.6941111461
 C   -0.0981519981    0.1165403273    0.0938342736
 H    0.1985956593    1.2290832797    2.0047506752
 H   -0.4218147440    2.2664951567    0.6503973242
 H    1.3570870865    1.4491491524   -0.8486988273
 H    3.2836733775    0.3638169136   -0.2208795621
 H    2.9588240510    1.1848928970    1.2901172720
 H    3.6965211225   -1.0938625416    1.6500687438
 H    1.9381219041   -1.9712615872   -0.5653547614
 H    2.5867167548   -3.0637366218    0.6778016398
 H    0.3665475291   -2.9729522971    1.7360939626
 H    1.9922318641   -1.8947760190    3.1998694807
 H    1.1288583429   -0.3771070763    2.9305188747
 H   -0.7407803667   -1.9071637372   -0.1169187606
 H   -1.2164167246   -1.1711792784    1.3979747191
 H   -0.6994864972    0.2886450048   -0.7955571311