15

 N    0.0482504693    1.2772584924   -0.0496692492
 C   -0.0006855797   -0.0900943735   -0.0793445172
 O    1.0377238191   -0.7544152033   -0.1638226871
 C   -1.3047804961   -0.7409695339   -0.0394874271
 C   -2.5968700413   -0.2316806879   -0.0072075345
 N   -3.4507822776   -1.2822611203    0.0311001459
 C   -2.7593502726   -2.4848642396    0.0216179560
 C   -1.4213097075   -2.1737665079   -0.0256324846
 O   -0.3879565227   -3.0315046874   -0.0530699722
 H    0.9625699793    1.6828714611    0.0741518756
 H   -0.7372675902    1.8070853682    0.2872414676
 H   -2.9638746026    0.7821614635   -0.0292755268
 H   -4.4522978863   -1.2052872419    0.0478570436
 H   -3.2680982961   -3.4325293264    0.0463898790
 H    0.4087221351   -2.4606510930   -0.1137424592