19

 C   -0.1698664017    1.5160355050   -0.0649841984
 C    0.0638362191    0.0157137472    0.0321577698
 N    0.9305797868   -0.4774159549   -1.0962764941
 C    1.4786092059   -1.5103696432   -0.5973448213
 N    2.5992413986   -2.3142467898   -0.7733047428
 C    2.7575786255   -2.3824094721    0.7267024320
 C    1.2927099456   -1.8497793548    0.8506260018
 C    0.8224770911   -0.4559075421    1.3378490490
 O    1.8835269480    0.4128134537    1.6854840008
 H    0.7715524391    2.0712137859   -0.0328081679
 H   -0.6702203238    1.7556173709   -1.0066328702
 H   -0.7953777050    1.8648324348    0.7629652771
 H   -0.9097803533   -0.4955932173   -0.0008401845
 H    3.3551450855   -2.0218849773   -1.3825836722
 H    2.9517156287   -3.3903597234    1.0975194352
 H    3.4992733964   -1.6788524870    1.1157183423
 H    0.5650084424   -2.6325827276    1.0732765158
 H    0.1704350355   -0.4982473100    2.2145086677
 H    2.3413709055    0.6544087217    0.8713146598