22

 C    0.0882914498    1.4817387507   -0.2370415068
 C   -0.0311181451   -0.0251044340    0.0105363076
 C   -1.4709401805   -0.5451952860    0.1238035758
 C   -2.2241544866    0.0207399444    1.3358802314
 O   -2.1546660493   -0.1783210071   -1.0938409972
 C   -3.0644181331   -1.1958225277   -1.4931971059
 C   -2.5517124627   -2.4733384076   -0.8652109458
 N   -1.1127833405   -2.6844134098   -1.1295826206
 C   -1.5470863955   -2.0696122078    0.1405209531
 H    1.1354723006    1.7628978363   -0.3862020494
 H   -0.4722949396    1.7673584269   -1.1306296139
 H   -0.2911746646    2.0712439051    0.6039797138
 H    0.4384078462   -0.5722925458   -0.8122210008
 H    0.5060611235   -0.2984937293    0.9282404230
 H   -2.3269809869    1.1046778807    1.2492525477
 H   -3.2284161701   -0.4095212474    1.4045988967
 H   -1.6957794768   -0.2028243593    2.2691916060
 H   -4.0872834100   -0.9909893332   -1.1373375719
 H   -3.0762775612   -1.2198552634   -2.5882391899
 H   -3.2119511165   -3.3237518390   -0.7319125410
 H   -0.8854196001   -3.6621612211   -0.9639021341
 H   -1.4082617110   -2.6009908656    1.0764206021