16

 C   -0.0073115862    1.3812004256    0.0020270959
 O   -0.0145691515   -0.0409358540    0.0283058994
 C    0.5829393042   -0.6400332244   -1.0164935948
 N    0.6263493848   -1.9046210865   -1.0701915381
 C    1.2479883976   -2.4988527433   -2.1594585087
 C    1.3693726038   -3.8552350980   -2.3482586707
 N    2.0445361359   -3.9979553800   -3.5410368804
 C    2.2984673851   -2.7458355229   -4.0146697118
 N    1.8356331940   -1.8182211702   -3.2130193711
 H    1.0152148755    1.7772946969    0.0192604048
 H   -0.5291668076    1.7688161803   -0.8812290828
 H   -0.5327992201    1.7078487196    0.9001433873
 H    1.0043959164    0.0297690394   -1.7734829149
 H    1.0443288717   -4.6931288612   -1.7565781893
 H    2.3007138881   -4.8664502767   -3.9782658962
 H    2.8217789783   -2.5778635446   -4.9445859586