11

 O    0.0100533402   -0.0112198945    0.0030111945
 C   -0.0306902226    1.1964792746    0.0104896007
 C   -1.2601103944    2.1236298819    0.0319806515
 C   -0.6654081711    3.5087155506    0.0314766117
 C    0.6663737517    3.3948191889    0.0128893031
 N    1.0612759997    2.0497117085    0.0003059583
 H   -1.8907538903    1.9105975776   -0.8389902127
 H   -1.8669875567    1.9011412257    0.9173635746
 H   -1.2252763830    4.4306932428    0.0439606289
 H    1.4220385871    4.1675591518    0.0068354168
 H    2.0094728893    1.7136196421   -0.0145344374