20

 C   -0.7900279630    0.9453673476   -0.0264862993
 C    0.3043561229   -0.1215549413    0.0179963313
 C    1.3027504546   -0.0380121465   -1.1691002281
 C    2.6445442286   -0.5046588276   -0.6290098915
 C    2.5749294722   -0.5133978173    0.8740498563
 C    1.1887071882   -0.0523296702    1.2931828958
 C    2.7255608406   -1.8324258702    0.1201898613
 C    1.7028238580   -2.8378186359    0.0669777943
 N    0.8957184150   -3.6667835023    0.0247808197
 H   -0.3594223690    1.9535231000   -0.0006788501
 H   -1.3893335500    0.8604380777   -0.9390118873
 H   -1.4710670760    0.8501743684    0.8256916339
 H   -0.1783988804   -1.1014871859   -0.0100610952
 H    0.9605271067   -0.6161110344   -2.0335211627
 H    1.4130486545    1.0021887699   -1.5006004778
 H    3.5471288456   -0.2113004389   -1.1536109374
 H    3.4250021039   -0.2266292757    1.4832005507
 H    1.2673321938    0.9838949846    1.6455076063
 H    0.7683603094   -0.6402367859    2.1155042257
 H    3.7217873145   -2.2621176461    0.1638307442