16

 O    0.1011696360    1.3207223702   -0.1608902743
 C    0.0045245258   -0.0419511720   -0.0159971026
 C   -0.3782121425   -0.6968252960    1.2532861562
 C   -1.3885922025   -0.7410439461    0.0957083233
 C   -2.5444127710    0.1629807235    0.1643086138
 O   -2.5006951182    1.2544767573    0.7028788141
 C   -3.8203658823   -0.3355448644   -0.5328986354
 C   -4.9338424804    0.6022217420   -0.4671753886
 N   -5.8317740143    1.3263878203   -0.4272639933
 H   -0.6417759145    1.7231219330    0.3195727333
 H    0.7086849320   -0.5505756900   -0.6661803982
 H    0.0794094304   -1.6407538284    1.5271101485
 H   -0.6545415692   -0.0520090108    2.0812864391
 H   -1.5245225073   -1.6825402309   -0.4240906506
 H   -3.5824759407   -0.5540653467   -1.5815710448
 H   -4.1163713113   -1.2926365611   -0.0857079704