12

 N    0.0016783447    1.0567992028    0.7715529992
 C    0.0407887481   -0.0152250766    0.1129946233
 O    1.1947824254   -0.6988504852   -0.1728477244
 C    1.0806751593   -1.6592949174   -1.1992752086
 O    0.1308056201   -2.6668868434   -0.8910034145
 C   -1.1238511603   -2.2308917050   -0.5909055459
 O   -2.0415730541   -2.9814405574   -0.4808487642
 C   -1.2400486658   -0.7045070404   -0.3347622753
 O   -2.2918360702   -0.1426880706   -0.4407096201
 H    0.9432787807    1.3627511948    1.0289101665
 H    0.8165722909   -1.1753938108   -2.1486692290
 H    2.0456319711   -2.1561051609   -1.2775890971