21

 C   -0.2988472068    1.4564477121   -0.6197549950
 O   -0.0756935802    0.1272507214   -0.2143829171
 C    0.7524844381   -0.5898382850   -1.1019064620
 C    0.9080551538   -2.0063228797   -0.5769135567
 C   -0.3866080788   -2.8585676065   -0.6731980238
 C    0.1696253399   -3.5447183577   -1.9634622063
 C    1.5765473954   -2.9713787910   -1.5950045134
 C    0.0557312513   -5.0406037091   -2.0229398642
 O   -0.4162411692   -5.6735622902   -2.9322336244
 H    0.6403270662    2.0291707062   -0.6794696192
 H   -0.7924718348    1.5069276171   -1.6034314669
 H   -0.9486618257    1.9218023925    0.1252830099
 H    0.3122078087   -0.5980156272   -2.1157046411
 H    1.7423015967   -0.1072868371   -1.1869638331
 H    1.3681968630   -1.9638220098    0.4136043674
 H   -0.4792991808   -3.5671533014    0.1555608553
 H   -1.3278385796   -2.3156295301   -0.7735768727
 H   -0.2366362637   -3.1213884043   -2.8836398783
 H    2.1463163387   -2.5266326574   -2.4151509532
 H    2.2063323737   -3.7193427732   -1.1037973438
 H    0.4594652042   -5.5547816295   -1.1155572012