23

 C    0.2464363284    1.5702864244   -0.0588651857
 C    0.0948820857    0.0490795960    0.0481967253
 C   -1.3653976388   -0.4396024077    0.0139231228
 O   -1.9276716590    0.0429741410   -1.2073463540
 C   -1.4724381357   -1.9811591511    0.0996235239
 C   -0.7870360268   -2.7411166711   -1.0396491039
 C   -2.1059574155    0.1344218950    1.2485092880
 C   -3.3380125219    0.9847701985    1.0099782220
 O   -1.7010636471   -0.1124783924    2.3623589611
 H    1.3045453312    1.8480932133   -0.0694759678
 H   -0.2130901065    1.9454333363   -0.9767324193
 H   -0.2164299420    2.0823596612    0.7915471979
 H    0.6305711504   -0.4260859826   -0.7786123825
 H    0.5372763311   -0.3081405694    0.9827923271
 H   -2.7510107542   -0.4275590672   -1.3725786165
 H   -1.0786439166   -2.2914809028    1.0718043623
 H   -2.5421169421   -2.2415824494    0.1135144200
 H   -1.1042384036   -2.3598780116   -2.0147573078
 H    0.3019099128   -2.6586322805   -0.9872428485
 H   -1.0383422985   -3.8048413212   -0.9915733504
 H   -3.1049325594    1.8174737119    0.3406892528
 H   -4.1200629778    0.3980013040    0.5129225891
 H   -3.7159915040    1.3485945254    1.9660342340