16

 C    0.2005839424    1.4275562613   -0.0515044596
 C    0.0475637199   -0.0806375577    0.0197348983
 O    0.9430230442   -0.7928317020   -0.8848646616
 C    1.4802093848   -1.6081715374    0.1774162634
 C    2.7117672126   -0.9771210022    0.8389691286
 O    1.8594718438   -0.2060061839    1.7366904580
 C    0.6781413911   -0.8351127207    1.2374887033
 C   -1.3407425652   -0.5066386418   -0.2181790819
 N   -2.4313978751   -0.8576664823   -0.3701863349
 H    1.2014843416    1.7023901962    0.2845844959
 H    0.0518364075    1.7652301873   -1.0803231128
 H   -0.5386069488    1.9187465531    0.5875834892
 H    1.4487182186   -2.6750898138   -0.0409405630
 H    3.3434732074   -1.6710833817    1.4053052507
 H    3.3232141998   -0.3462039543    0.1872978434
 H    0.0178372952   -1.2213808304    2.0138236228