7

 O   -0.0233042729   -0.0429492991    0.0031966073
 C   -0.0174936907    1.1503658658    0.0096630126
 N   -1.0598177369    2.0604223904    0.0286019038
 N   -0.6069342387    3.3278243252    0.0292856144
 N    0.6429049992    3.3142306992    0.0126586401
 O    1.0851635204    1.9727190143   -0.0007666063
 H   -2.0466916204    1.8645117442    0.0408242880