25

 C   -0.4422272297    1.2701909409    0.0902375020
 C   -0.0917056212   -0.1916726769    0.3936009975
 C   -1.3125884077   -1.0917231834    0.3781274998
 C   -1.9592195938   -1.6751492563   -0.8524036672
 C   -1.3171069836   -2.5862684771    0.2015970857
 C   -0.2722477752   -3.0702202821   -0.8204291084
 C   -0.3102335215   -4.5723928775   -1.0823665242
 C   -0.9292739441   -2.1293490854   -1.9030840982
 C   -1.5421982664   -2.7921435582   -3.1323609255
 H    0.4460107562    1.9091902335    0.1209401953
 H   -0.8942854378    1.3673718017   -0.9025159303
 H   -1.1606696632    1.6634777681    0.8182685539
 H    0.6557526628   -0.5414115450   -0.3256437891
 H    0.3860584818   -0.2574690504    1.3799573942
 H   -2.0639197318   -0.7790986931    1.1040601969
 H   -3.0119879577   -1.5225862620   -1.0673966343
 H   -1.8013489313   -3.2380913010    0.9218645747
 H    0.7585242095   -2.7899448920   -0.5709909919
 H   -1.3260663847   -4.9304913408   -1.2760084344
 H    0.3151804222   -4.8500011918   -1.9372019035
 H    0.0653874247   -5.1151694433   -0.2076441818
 H   -0.2591499792   -1.3298332913   -2.2430428747
 H   -2.2712196937   -3.5634311853   -2.8652420383
 H   -2.0663703302   -2.0449461940   -3.7388147842
 H   -0.7776617342   -3.2543478273   -3.7654461141