19

 C    0.3780463244    1.5071839676   -0.2170908345
 C    0.4275306947   -0.0238262314   -0.2860738115
 C    0.8533542302   -0.6324527343    1.0494859919
 C   -0.1093185252   -0.7020975664    2.3067116126
 C   -0.7684687926   -1.9939829542    1.6781468489
 O   -1.6298820324   -1.9007246582    0.5754158733
 C    0.7466157743   -2.1816364605    1.3590842281
 C    0.9338633817   -1.7063859692    2.8098452242
 O    1.5778367568   -1.9557091820    3.7814843294
 H    1.3389082378    1.9276586504    0.1008824730
 H    0.1356483120    1.9347362889   -1.1947842256
 H   -0.3828075505    1.8487273353    0.4932753689
 H   -0.5317271644   -0.4211926049   -0.6100326096
 H    1.1705913648   -0.3263126215   -1.0358475136
 H    1.8376861830   -0.2237338960    1.3082402306
 H   -0.5912091126    0.1149365149    2.8400224392
 H   -1.1722938056   -2.6992068819    2.4162191876
 H   -2.5035853944   -1.6624834580    0.9015432904
 H    1.2192462980   -3.0086212186    0.8339309367