21

 C   -0.3777101793    1.5709713187    0.1096818069
 C    0.0936336161    0.1170275036   -0.0554914524
 C    0.8540677088   -0.3861033571    1.1335720555
 C    2.1790200027   -0.7498838525    1.2300145787
 C    3.2898958447   -0.7893350266    0.2353742092
 N    2.3600907888   -1.1240869506    2.5543591150
 C    3.5853275592   -1.5931601875    3.1633977040
 C    1.1553048772   -0.9666006236    3.1739047703
 N    0.2297967244   -0.5272020901    2.3575235076
 H    0.4749406554    2.2513003868    0.2061474286
 H   -0.9752018819    1.8923778050   -0.7496601434
 H   -0.9875626472    1.6688422189    1.0117152822
 H   -0.7822728744   -0.5247222222   -0.2130179196
 H    0.7100229491    0.0257408789   -0.9569602524
 H    4.1223247274   -0.1292672308    0.5114323178
 H    3.7049372826   -1.7978211235    0.1109916073
 H    2.9267194535   -0.4635567925   -0.7414111275
 H    4.3750290494   -0.8369892318    3.1021193578
 H    3.3954623020   -1.8096721852    4.2164455766
 H    3.9440463727   -2.5084794494    2.6809950233
 H    1.0252140789   -1.1951302486    4.2224116048