18

 C   -0.1352406691    1.6125210726   -0.0085872735
 C   -0.0380346676    0.0800911935   -0.0027249945
 C    1.1249372259   -0.4676912132   -0.8982834904
 C    2.0209489235   -0.5805747052    0.3763146541
 C    0.7251547165   -0.4848573767    1.2434569081
 C    2.8605481096   -1.7497763445    0.5236649120
 C    3.5413333264   -2.7337622898    0.6428563467
 C   -1.3469315328   -0.5130433755   -0.2518009170
 N   -2.3823990114   -0.9889049280   -0.4488978608
 H    0.8476941796    2.0550064182    0.1784361512
 H   -0.4962258373    1.9758026450   -0.9748687970
 H   -0.8215383510    1.9618341046    0.7679174966
 H    0.8947639693   -1.4502152639   -1.3115491295
 H    1.4706646571    0.1920847732   -1.6963270146
 H    2.6248956498    0.3243580314    0.4963019438
 H    0.7578144979    0.1614759264    2.1225996095
 H    0.3642426036   -1.4729951968    1.5305942626
 H    4.1447829900   -3.6011605112    0.7485510028