18

 O    0.3930261270    1.0203534973   -0.9220314942
 C   -0.0387241156   -0.1576652206   -0.2768484247
 C   -1.4086183476    0.0283422438    0.3751230995
 N   -2.3502321223    0.4439314981   -0.6704531526
 C   -3.2843967372   -0.4306159510   -1.3265743155
 C   -3.8614853621   -1.4984066230   -0.3808340032
 C   -4.3610686726   -0.3204615379    0.5027705960
 O   -5.0891937693   -0.2567150454    1.4490854057
 C   -3.7617947116    0.7168347235   -0.4326237802
 H   -0.3758045867    1.3422207436   -1.4103588462
 H   -0.0836278938   -1.0097137667   -0.9771678888
 H    0.7039537909   -0.4032910681    0.4895733812
 H   -1.7009210409   -0.8860740448    0.9082089723
 H   -1.3569468566    0.8444247465    1.1026466560
 H   -3.3084262145   -0.4617506137   -2.4093770883
 H   -4.7240371346   -2.0262790154   -0.7989285318
 H   -3.1736698184   -2.2298156101    0.0495367759
 H   -4.1550408841    1.7000138939   -0.6670769612