17

 N   -0.0707179129   -1.0838241817    0.3649523384
 C   -0.0614371384    0.0573077603    0.1799612994
 C   -0.0278903992    1.4992440059   -0.0783279356
 C   -0.7251434755    1.8687661661   -1.4178692499
 C    0.2453308682    2.8245106950   -2.0683403719
 C    1.3799195599    2.9668673176   -1.3844250062
 C    1.3888646667    2.1907490995   -0.1010328331
 C    0.9219121752    2.9917541086    1.1506190407
 N   -0.3873600772    2.2923805114    1.1231832989
 H   -0.9077078093    0.9855969837   -2.0418381278
 H   -1.7096283735    2.3161337116   -1.2271382904
 H    0.0198359331    3.3140823571   -3.0092415177
 H    2.2119182807    3.5970447384   -1.6789755503
 H    2.2646925681    1.5550931458    0.0422726744
 H    1.4796775821    2.7879316040    2.0706548931
 H    0.8772183055    4.0748785844    0.9968177545
 H   -1.1963030835    2.8878421820    0.9901250935