21

 C    0.3142479161    1.5662196818    0.1842120529
 C   -0.0537146864    0.0712920435    0.1308620318
 C    0.5066893652   -0.6644214626    1.3564113993
 C   -1.5850019663   -0.0691016942    0.0869006617
 N    0.4242799225   -0.6673722112   -1.0687199475
 C    0.7543695594   -0.0345523207   -2.3214691676
 C    1.8108428517   -0.7444813878   -1.5181601236
 C    2.8955980542    0.0168542946   -0.9416643748
 N    3.7976346048    0.5750300651   -0.4784894375
 H    1.3927846598    1.7364032041    0.1795004827
 H   -0.1325993254    2.1210621342   -0.6468987498
 H   -0.0817689068    1.9987202885    1.1081163829
 H    0.0667355809   -0.2620200231    2.2735519433
 H    0.2723019511   -1.7312730817    1.2999556512
 H    1.5922593408   -0.5513192963    1.4280707354
 H   -1.9930210470    0.4009503885   -0.8139700394
 H   -1.8746415183   -1.1229509654    0.0810818896
 H   -2.0393330460    0.4164327237    0.9561116249
 H    0.3699529649   -0.5071570915   -3.2221069342
 H    0.8390970348    1.0486565444   -2.3695936603
 H    2.1247644801   -1.7421821437   -1.8174263209