15

 C    0.3882732345    1.3624347069   -0.0167917790
 C   -0.2719086462    0.0123297158    0.0369536827
 N   -0.6150890226   -0.5761141094    1.1192837891
 O   -0.2723906140    0.1724764865    2.2542114542
 C   -0.5406560808   -0.7197272506   -1.2318418180
 C    0.1943730632   -1.9935250783   -1.5093283987
 N   -1.2402056999   -2.0049889938   -1.2138690756
 H    1.3400469000    1.3410854987    0.5237014244
 H    0.5722131024    1.6743089934   -1.0466034701
 H   -0.2351357679    2.1121476213    0.4806856352
 H   -0.6157270022   -0.3722466441    2.9702816456
 H   -0.7895586448   -0.0781803035   -2.0747244402
 H    0.4611753705   -2.2507019817   -2.5309835222
 H    0.8878770281   -2.3355667377   -0.7458203868
 H   -1.3843223604   -2.2612354036   -0.2384660105