23

 C   -0.0964328830    1.5538544559    0.0027469226
 C    0.0399716436    0.0255632011   -0.0028763589
 C    0.6779505430   -0.4928345253   -1.3031385794
 C    0.8743765462   -2.0117352872   -1.2576616516
 C    1.8746717933   -2.4241895312   -0.1658093201
 C    1.6479871211   -1.6994504511    1.1602647144
 C    2.2561345993   -0.3246356719    1.3953047911
 C    0.7653699809   -0.4838000677    1.2381235265
 O   -0.0005788764   -0.4104427419    2.4176698011
 H    0.8859602623    2.0379807027   -0.0312065517
 H   -0.6716830220    1.8997907449   -0.8623534589
 H   -0.6162695211    1.9083485011    0.8998139496
 H   -0.9697203569   -0.4048684905    0.0575358906
 H    0.0353092618   -0.2151341943   -2.1465963468
 H    1.6421225358    0.0053793141   -1.4788626736
 H   -0.0969411014   -2.4846343744   -1.0615383876
 H    1.2132753111   -2.3853998075   -2.2302622388
 H    1.8115587038   -3.5051677010   -0.0036256724
 H    2.8961412301   -2.2309867227   -0.5182626749
 H    1.6029936777   -2.3270845992    2.0441429347
 H    2.6252987181   -0.1005801831    2.3902011799
 H    2.8299120643    0.1194146644    0.5870105714
 H   -0.0309277117    0.5122518148    2.6926854729