21

 C    0.1916337266    0.3542455267   -2.4844336352
 C    0.1428254924   -0.1672658213   -1.0414943483
 C    0.2648111859    0.9718372715   -0.0206195566
 C   -1.1418024279   -0.9412451516   -0.8204092662
 N   -1.2064388229   -2.3093073752   -1.3244040355
 C   -1.2788614131   -2.0962823492    0.1305763525
 C   -0.1218526824   -2.6053745124    0.9530383692
 N   -0.4569253277   -2.8930535442    2.2490489169
 O    1.0078608966   -2.7470793170    0.5293759964
 H    1.1316834350    0.8812250616   -2.6769151461
 H    0.1127298374   -0.4718214583   -3.1972446586
 H   -0.6279972593    1.0565392749   -2.6832197026
 H    0.9686048581   -0.8675915955   -0.8930400208
 H   -0.5665355112    1.6821141073   -0.1130029759
 H    0.2671455941    0.5897509931    1.0054736932
 H    1.1935579214    1.5311175062   -0.1710723254
 H   -2.0459986401   -0.3345946067   -0.9128488270
 H   -2.1308571735   -2.5298957134   -1.6844476791
 H   -2.2545584270   -2.2044349799    0.6027009825
 H   -1.3640280571   -2.6917481272    2.6306911453
 H    0.2844583949   -3.1504405293    2.8796365213