14

 O   -0.9203565429   -0.0226005827    0.0129354998
 C    0.3107695094   -0.5394927747   -0.4046282515
 C    1.1528362606    0.5561930159   -1.0476829292
 O    0.6995867247    1.6657374894   -1.1829256065
 C    1.1425327778   -1.1818370450    0.7324249245
 O    2.1889476416   -1.7269452752    0.4917078573
 N    0.5474482187   -1.0250775092    1.9718072729
 C    1.0204083361   -1.4628643303    3.2088932652
 O    2.0519347922   -2.0388676411    3.4087266084
 H   -0.9145906904    0.9105538477   -0.2668076286
 H    0.1833842498   -1.3365119858   -1.1540832236
 H    2.1711842684    0.2712285989   -1.3610048427
 H   -0.3477416214   -0.5506518031    1.9401713209
 H    0.2981556754   -1.1994118848    4.0069193231