14

 C   -0.1526523410    1.4269626971   -0.0443587741
 C    0.1669620867   -0.0335653007    0.0617791786
 N    0.8228487424   -0.6862355789    0.9122230144
 O   -0.3970391034   -0.7008742549   -1.0197344115
 C   -0.2478575209   -2.0300055929   -1.0833707682
 N    0.5471514405   -2.6923606255   -1.8600266124
 C    0.1816641344   -3.9813238996   -1.5604948749
 N   -0.7688275323   -4.1096972094   -0.6748055800
 O   -1.0711502678   -2.7775215211   -0.3484956088
 H    0.2869256970    1.9779041680    0.7875900796
 H    0.2313450042    1.8264750016   -0.9876812221
 H   -1.2367766012    1.5744356063   -0.0445349801
 H    1.1861840471   -0.0837097252    1.6464116030
 H    0.6366371342   -4.8478018949   -2.0180292235