21

 C   -0.2037813658    1.4828667944   -0.0979302052
 C    0.0602627123   -0.0138525828    0.0111205629
 C    1.3231226521   -0.5552080810   -0.6959818912
 O    1.8869355525   -1.0348544032    0.5444539960
 C    0.7132554290   -0.6032173092    1.2986729517
 C    1.0813833095    0.3666402312    2.4213346190
 O    1.9079325817   -0.1941501141    3.4167234164
 C    0.0231834931   -1.8674296464    1.8250830200
 O    0.9461123957   -2.6669902955    2.5578248819
 H    0.6910840074    2.0753892654    0.1140138700
 H   -0.5287247794    1.7312143249   -1.1139161135
 H   -0.9941105453    1.8047456403    0.5874381095
 H   -0.8470663622   -0.5607188048   -0.2635902787
 H    1.1628752499   -1.3655495628   -1.4170422251
 H    1.9613949340    0.2084380157   -1.1575047075
 H    1.6260634183    1.2192604231    2.0033812159
 H    0.1375491820    0.7575600973    2.8453433113
 H    1.6445802049   -1.1187367114    3.5304138144
 H   -0.7970751051   -1.6175317757    2.5065313215
 H   -0.3955837901   -2.4385033033    0.9833078289
 H    1.7137259257   -2.7593952921    1.9749704819