19

 O   -0.0772972606    1.3627652228    0.0652931367
 C    0.0429953258   -0.0267374563    0.0538091955
 C    0.9261772169   -0.7561943052    1.0644293917
 C    0.5649829959   -2.1365039022    0.4966968647
 C   -0.9737015454   -2.1520530934    0.6306238638
 C   -1.3375917435   -0.7859588199   -0.0068311174
 C   -1.1814970319   -0.8660955534   -1.5472829779
 C    0.3402209098   -0.7545409615   -1.3128398360
 O    0.8973686017   -2.0085367774   -0.9004451088
 H    0.7954520999    1.7434641745   -0.0834733475
 H    1.9912213116   -0.5267619477    0.9607547309
 H    0.6095561742   -0.6081464700    2.1001134128
 H    1.0927200486   -3.0043700607    0.8917076318
 H   -1.4309895079   -2.9973944044    0.1096259031
 H   -1.2640677021   -2.2005384873    1.6854207464
 H   -2.2161498229   -0.2965419027    0.4138644809
 H   -1.5394686879   -1.7634182864   -2.0582345340
 H   -1.5707401954    0.0289645116   -2.0400059046
 H    0.9860003833   -0.3055543803   -2.0719527220