13

 C   -0.0274880590    1.4962814155    0.0528161480
 C   -0.0091404496    0.0127941346    0.0025692004
 N   -0.0422116710   -0.7505501474   -1.0685531557
 N   -0.0093440529   -2.1018408135   -0.7214558418
 C    0.0436216855   -2.0859391790    0.5832657960
 N    0.1000618068   -2.8658096546    1.7010498362
 N    0.1348281802   -2.0774549743    2.8100904940
 N    0.1037686292   -0.8456889825    2.4692939568
 N    0.0473406670   -0.8240167257    1.1011197234
 H    0.8745869198    1.8922786604    0.5310535426
 H   -0.0808045148    1.8741743015   -0.9688869913
 H   -0.8912076210    1.8674762264    0.6143946385
 H    0.1188478999   -3.8660039014    1.7998924729