19

 O   -0.1219055358    1.4820164697   -0.0661977272
 C    0.0058829644    0.0774098422    0.0964023045
 C   -1.3861390693   -0.5456718233    0.0113003766
 C   -2.0338091332   -0.2816580532   -1.3797749897
 C   -1.8677195155   -1.5871636542   -2.1040094222
 C   -1.4694845155   -2.5744935859   -1.2880296025
 C   -1.2989168558   -2.0931488500    0.1352591383
 C   -1.2507946876   -3.9580833528   -1.7093389033
 O   -0.9096130452   -4.8526991637   -0.9656630219
 H    0.7587675721    1.8675626835   -0.0733745188
 H    0.6501102677   -0.3587681717   -0.6853542722
 H    0.4552648338   -0.1709503334    1.0704643173
 H   -1.9909967484   -0.1101411582    0.8108812982
 H   -3.0997138314   -0.0281439385   -1.2962060872
 H   -1.5638739206    0.5638617388   -1.8927291719
 H   -2.0722781167   -1.7115499136   -3.1632562733
 H   -0.3525992885   -2.4321332395    0.5714699415
 H   -2.0891174355   -2.5022957604    0.7756580243
 H   -1.4208528492   -4.1449051556   -2.7938668503