19

 C   -0.0223679599    1.5427487105    0.5915017339
 C    0.0196029892    0.0325073165    0.5293807684
 C    1.0285970052   -0.7043300811   -0.3378302480
 O    2.0206663028   -0.0087292387   -1.0270779558
 C    1.1296282245   -0.7661186444    1.1725754805
 O    2.1847258396   -0.0032880671    1.7191061119
 C    0.8373100770   -2.0233597685    1.9340820973
 C   -0.2494365789   -2.1203453672    2.9167056444
 O   -0.3752247740   -2.6986048152    1.6118596520
 H    0.9651490206    1.9818145479    0.4413220024
 H   -0.6824474492    1.9337414325   -0.1891857652
 H   -0.3991528772    1.8911191837    1.5584755723
 H   -0.9453252498   -0.4643745032    0.5872083835
 H    0.6949948431   -1.5808258912   -0.8840048806
 H    2.5609881736    0.4291747128   -0.3555723892
 H    2.9627839443   -0.5721096833    1.7742446609
 H    1.6964117088   -2.6899803467    2.0591113260
 H   -0.1794638827   -2.8350330844    3.7346825254
 H   -0.8764092270   -1.2502440827    3.1005617700