22

 C   -0.1051431496    1.5434419786   -0.0921911892
 C    0.0443290260    0.0174644830   -0.0057726253
 N    0.6867340289   -0.4526102674   -1.2391414736
 C    1.8824381442   -0.8584182751   -1.1956760077
 O    2.7297610219   -0.9339106640   -0.1417356273
 C    2.2606467818   -0.3192907725    1.0661108529
 C    0.7536225015   -0.5175492879    1.2726425526
 C    0.3256347402    0.2248934117    2.5471669613
 C    0.4416744350   -2.0177694960    1.4384328378
 H    0.8603498794    2.0513289190    0.0048641282
 H   -0.5160896181    1.8047562490   -1.0706386070
 H   -0.7779695881    1.9272605480    0.6790361551
 H   -0.9702656948   -0.4031436674   -0.0188684305
 H    2.3757027527   -1.2352798573   -2.0904108358
 H    2.8399437914   -0.7740164688    1.8746396979
 H    2.5097922276    0.7492514014    1.0272673958
 H    0.6134888992    1.2799233281    2.5310070569
 H   -0.7603425459    0.1755365545    2.6800320932
 H    0.7850673185   -0.2323568796    3.4307838724
 H    0.9956300039   -2.4401854427    2.2838804161
 H   -0.6259312557   -2.1650787417    1.6318587789
 H    0.7008133000   -2.5920917728    0.5458866075