18

 O   -0.0506352219    1.4409203809   -0.0961474840
 C    0.0064494131    0.0363874461    0.0006909845
 C    0.0122339295   -0.6268159626    1.3975016552
 C   -1.4916159702   -0.1820798907    1.5853894000
 C   -2.1992021245   -1.2824255064    2.3638604954
 N   -3.0322302819   -2.1657765869    1.5014908156
 C   -1.6056571943   -2.4940728937    1.7670843282
 C   -0.6537202717   -1.8944743509    0.7413194207
 C   -1.3610688849   -0.6567765128    0.0968990601
 H    0.8410791159    1.7854523787    0.0115193911
 H    0.7062169175   -0.3866721506   -0.7335527581
 H    0.8047133399   -0.6167735721    2.1499758600
 H   -1.7173300803    0.8617000836    1.7879617438
 H   -2.4327584394   -1.1816781049    3.4175683374
 H   -3.6112756113   -2.7472862985    2.1064352166
 H   -1.3495394620   -3.3833791324    2.3312955433
 H   -0.0550481138   -2.5558359575    0.1131956838
 H   -2.1524226696   -0.6788971594   -0.6488426537