18

 O   -0.1821329414    1.5171589112   -0.0030751356
 C   -0.0157387124    0.1543839263   -0.0796990447
 C   -0.1625414013   -0.7397584659    1.0899328628
 C   -1.2446193775   -0.8048271008    0.0009821162
 C   -2.5372305966   -0.1634070801    0.2727865994
 O   -2.6302533305    0.8408618988    0.9799944183
 C   -3.7579770096   -0.7385985265   -0.3654674052
 C   -4.9485061061   -0.9216933223    0.5308826356
 N   -4.9403950088    0.1285073784   -0.4744975224
 H   -0.9670589346    1.6797259266    0.5494680557
 H    0.7108909727   -0.1070012008   -0.8420665547
 H    0.4784953869   -1.6093402673    1.1829737941
 H   -0.4744369165   -0.2841422968    2.0240708823
 H   -1.2531931784   -1.6691517929   -0.6524946225
 H   -3.6047618874   -1.4308966323   -1.1873180105
 H   -5.6199952563   -1.7532885300    0.3379868493
 H   -4.8202072355   -0.6472608699    1.5741219388
 H   -4.6970147367    1.0097242644   -0.0199845869