14

 C    0.0433493722   -1.1956346988   -0.0257384235
 C    0.0320137320    0.0089197235   -0.0225569435
 C   -0.0079152696    1.4246834583    0.0184010530
 C    0.2380631801    2.3380106919   -1.1677027281
 C    1.1612283190    2.4354074720    0.0074328473
 C    0.4916087453    3.1732359070    1.2057028746
 O   -0.8289453382    3.5945290328    0.8268401297
 C   -0.6224392081    2.2370469782    1.2203881557
 H    0.0577401189   -2.2569988763   -0.0372406062
 H    0.6498183752    1.8316084775   -2.0334629554
 H   -0.4647628668    3.1347406945   -1.3748204519
 H    2.2146460741    2.1959489505   -0.0373500638
 H    0.9878077453    3.7194684030    1.9974739595
 H   -1.2311332392    1.8277091061    2.0168573626