18

 C   -0.4424822996    1.3755950463    0.2884943494
 C    0.0681561539   -0.0107887039   -0.0606947684
 C    1.0319959657   -0.1602199609   -1.2804061576
 C    2.0425799016   -0.7533650895   -0.3078210562
 N    3.1686568973   -1.2988556836   -0.4750729956
 N    1.1819648038   -0.5007904901    0.7800694890
 C    1.1440513302   -0.8290127717    2.1274784722
 N    2.3687482725   -1.1990468159    2.6529480711
 O    0.1091308255   -0.8094023628    2.7619780655
 H    0.3754376952    2.1036294531    0.2945950931
 H   -1.1858470716    1.6982390763   -0.4475897808
 H   -0.9121947131    1.3682672725    1.2750898377
 H   -0.7545253964   -0.7323429378   -0.0774260364
 H    0.7116476636   -0.8406723092   -2.0702843869
 H    1.3460480021    0.7883378218   -1.7217010828
 H    3.5543921482   -1.6762377097    0.3903612286
 H    3.1920479668   -0.7539289644    2.2753207556
 H    2.3559105641   -1.2789059106    3.6591813327