19

 C    0.1803948033    1.5549426995   -0.1494115843
 C   -0.1073910804    0.0609137918    0.0598582010
 C    0.6399111574   -0.5256151052    1.2248516077
 C    2.0768535628   -1.0010399606    1.1657943078
 C    1.0133040632   -1.9436500704    1.6324547976
 N    0.7717667234   -1.6750102883    3.0714007907
 C    0.2415266700   -0.3168270984    2.7038941231
 C    0.8418049947    0.8003497973    3.4378738238
 N    1.3108360162    1.6983605094    3.9943162814
 H    1.2444600958    1.7250742431   -0.3399497611
 H   -0.3854282938    1.9463014929   -1.0000090408
 H   -0.0935448504    2.1412522047    0.7335822458
 H   -1.1860955380   -0.0914827940    0.2006308145
 H    0.1628830840   -0.4969713613   -0.8451953089
 H    2.4389901986   -1.1623988342    0.1550606765
 H    2.8211264192   -0.6476319118    1.8739055402
 H    0.7911011164   -2.9025946024    1.1802511852
 H    0.0165666391   -2.2456636318    3.4375310802
 H   -0.8478210615   -0.2523624102    2.8007625697