18

 O    0.3051893278   -0.2126838040    0.2380100960
 C    0.1267296624    0.9003820311   -0.1784779236
 C    1.1425214999    2.0284351763   -0.0731495281
 N    1.0992509466    2.9166216882   -1.2073257384
 C    1.6476504409    2.5666943547   -2.5105410616
 C    1.2226486528    3.7554713638   -3.3992189531
 C    1.0843619274    4.9245246709   -2.4117410129
 C    0.8152341902    4.2574678871   -1.0644012023
 O    0.4465122501    4.7838619818   -0.0362782329
 H   -0.8254839815    1.2022904576   -0.6731452096
 H    0.8797619507    2.6371417375    0.8034512934
 H    2.1396915396    1.5995826088    0.0850374213
 H    2.7421506423    2.4627448674   -2.4577599692
 H    1.2457646698    1.6122083291   -2.8664330176
 H    1.9392467887    3.9424803002   -4.2007090987
 H    0.2554069663    3.5378661443   -3.8611891925
 H    2.0135854072    5.4984068968   -2.3163906888
 H    0.2906074390    5.6321876682   -2.6560383113