21

 C   -0.3791808272    1.5028454885   -0.0963396984
 C   -0.6045787913    0.0381358171    0.2653465673
 C   -1.3549255359   -0.7474748587   -0.7945563140
 O   -1.6834821521   -0.2682437684   -1.8570391546
 C   -1.7281595498   -2.1861259251   -0.4265116448
 C   -3.1192328493   -2.2295038273    0.2046577033
 C   -4.2814467852   -1.9210013449   -0.7127581912
 C   -3.3303856620   -3.0438209737    1.4109809945
 O   -3.1864538686   -1.6236339158    1.5090830606
 H    0.1713000455    2.0174953797    0.6960660602
 H    0.1863704015    1.5934681614   -1.0273094025
 H   -1.3318807766    2.0179450601   -0.2449032025
 H    0.3491484101   -0.4803238855    0.4434470346
 H   -1.1665109466   -0.0769274920    1.2022693397
 H   -1.7264663050   -2.7860224561   -1.3414063442
 H   -0.9999694228   -2.6013568987    0.2760164249
 H   -4.3807719064   -2.6986304817   -1.4775394205
 H   -5.2106058369   -1.8704394251   -0.1403869523
 H   -4.1298095205   -0.9690856396   -1.2284270497
 H   -4.3258559548   -3.4252852986    1.6350637953
 H   -2.5084687759   -3.6283738352    1.8226768443