21

 C   -0.2036350138    1.7938024417    0.5238038329
 C   -0.0219220349    0.2950842358    0.2593156748
 C    0.4756026870   -0.4611356694    1.4880699691
 C   -0.4283056907   -0.6616996437    2.7582253827
 C   -0.0906911048   -2.1621622422    2.7306601599
 C   -0.5589822169   -2.8352008402    1.4557532924
 C   -1.8430467940   -2.5598613975    0.7662480493
 O   -2.4287030720   -3.3854078467    0.1050948246
 C    0.7074994474   -1.9784406621    1.4527272776
 H    0.7388279437    2.2583887190    0.8347728423
 H   -0.5528324178    2.3155741077   -0.3721118773
 H   -0.9369501778    1.9714621985    1.3181138803
 H   -0.9661616559   -0.1291336942   -0.0989764401
 H    0.7004886546    0.1497227962   -0.5546801377
 H    1.4118451386    0.0059458232    1.8165862752
 H   -0.0289923862   -0.1575935997    3.6402735178
 H   -1.4847922966   -0.3945811915    2.6676230752
 H    0.1438446753   -2.7635117283    3.6006394156
 H   -0.3146078596   -3.8935317667    1.4105248623
 H   -2.2728328896   -1.5467267860    0.9063265508
 H    1.6345477741   -2.4547325238    1.1540906325