19

 C    0.0077642416    1.4865904564    0.0376207893
 C   -0.0066490178    0.0311924674    0.0085236063
 C   -0.0319578024   -1.1730269761   -0.0174855391
 C   -0.0175972210   -2.6403967170   -0.0579507060
 C   -1.4280856766   -3.2084604363    0.1531037528
 O    0.3964760772   -3.1024618588   -1.3524084349
 C    0.9659962726   -3.1720916020    1.0227616315
 C    1.0899942950   -4.6823452814    1.0229107752
 O    1.0767933377   -5.3612311809    2.0186944445
 H    0.8928334382    1.8675461090    0.5584888928
 H    0.0124358334    1.9016684037   -0.9760855355
 H   -0.8762637016    1.8789565555    0.5517918150
 H   -2.1035054323   -2.8120543382   -0.6072670331
 H   -1.4076236384   -4.2988185316    0.0666465856
 H   -1.8066616349   -2.9404520403    1.1422070512
 H    1.1215698545   -2.5390807177   -1.6437141574
 H    1.9605843404   -2.7589428921    0.8042205973
 H    0.6775435511   -2.8352035068    2.0217577093
 H    1.2142635233   -5.1330024128    0.0158751152