19

 O    0.1852528687    1.3226651005   -0.0938513407
 C    0.0174394466   -0.0599804437   -0.0765651006
 C   -0.4968003981   -0.6858337679    1.2078991492
 O   -0.7470517337    0.2387723705    2.2295436971
 C   -2.1307655812    0.5522830289    2.4096846464
 C   -2.7250791097    1.1543652046    1.1397598207
 C   -2.6459916090    0.1471605203   -0.0226279370
 C   -1.3680643796   -0.6758361223   -0.0258242627
 O   -1.4793833369   -1.9470317485   -0.6159727531
 H    0.2099128310    1.5957865289    0.8346857911
 H    0.7664786452   -0.6098873690   -0.6423720986
 H   -0.0951794779   -1.6363475609    1.5490667958
 H   -2.6809322806   -0.3536644006    2.7055185590
 H   -2.1624034388    1.2596018219    3.2428050546
 H   -3.7679858229    1.4377395191    1.3187821622
 H   -2.1767521060    2.0673938237    0.8907513349
 H   -3.4631722717   -0.5775871020    0.0720415495
 H   -2.7787843332    0.6593219386   -0.9830495174
 H   -1.4574594724   -1.8284643019   -1.5726493603