11

 O   -0.0598725761   -0.0002848538   -0.0077584113
 C   -0.0516145388    1.1852902329    0.0516703338
 C   -1.1458031529    2.2872592571    0.1739112046
 C   -0.0284862722    3.3091097840   -0.0693366884
 O    0.9086797018    3.1386766795    0.9804074955
 C    1.0362230801    2.2640826527   -0.1628869001
 C    2.2707964653    2.2153936237   -0.8746884448
 N    3.2550714955    2.1257938443   -1.4744774722
 H   -1.8684546271    2.1880151279   -0.6412905427
 H   -1.6633605698    2.3799358338    1.1297583147
 H   -0.0556254358    4.2592288380   -0.5874723591