17

 N   -0.0024661885    1.3152299100    0.2246456590
 C    0.0209507811    0.0203522921   -0.2017030704
 O    1.0004954313   -0.4789955939   -0.7207758273
 C   -1.2851193880   -0.7480992096    0.0035357877
 C   -1.0373820679   -2.2499178735    0.1547106503
 C   -2.3214806017   -3.0668214572   -0.0648030222
 O   -2.8942952155   -2.8641253464   -1.3451551961
 C   -2.0706978877   -4.5027734686    0.1815821398
 N   -1.8581208629   -5.6256561108    0.3519826586
 H    0.7989813475    1.8938648555    0.0323592848
 H   -0.8317455312    1.7457003351    0.5937094883
 H   -1.8400945039   -0.3492853189    0.8605612026
 H   -1.9083896313   -0.5782309427   -0.8829984398
 H   -0.2776154243   -2.5556429497   -0.5718309652
 H   -0.6313464521   -2.4803498484    1.1454078635
 H   -3.0927850736   -2.7422622666    0.6437413849
 H   -2.2673918114   -3.1798182965   -2.0072760384