21

 C    0.2761239088    1.7890118764    0.3031515466
 C    0.4927014079    0.2799111849    0.1721880986
 C    0.2509909851   -0.4655160774    1.4943857020
 C    0.4701832531   -1.9549932276    1.3652093544
 O    1.7866574362   -2.4275956261    1.0032816983
 C    1.2980845788   -2.7773333634    2.2907824423
 C    2.0115676281   -2.2299746739    3.4997113530
 C   -0.6037219724   -2.7310981333    0.6559339308
 O   -1.7139248942   -2.3195605269    0.4346692981
 H    0.9527642485    2.2253016846    1.0468011227
 H    0.4558828579    2.2983666270   -0.6484758294
 H   -0.7492491934    2.0165955906    0.6145689886
 H   -0.1786636117   -0.1225649415   -0.5948177202
 H    1.5151499910    0.0747637114   -0.1652040276
 H    0.8972476802   -0.0502013985    2.2726335706
 H   -0.7856592799   -0.3156222081    1.8167163773
 H    1.0256185262   -3.8329241140    2.3765815419
 H    2.3226728022   -1.1946926468    3.3538467145
 H    1.3661976315   -2.2876114394    4.3823462228
 H    2.9069664353   -2.8276560734    3.6993546971
 H   -0.2732619794   -3.7481198145    0.3461918275