14

 C    0.1088733190    1.5564879777    0.0583099282
 C    0.0017801210    0.0752277418    0.0151051323
 C   -1.0762263378   -0.7229076439    0.0393427606
 N   -2.4299525790   -0.4146652738    0.1124435418
 O   -0.6652937097   -2.0626072561   -0.0234962893
 C    0.7107345330   -2.0972544711   -0.0885021283
 O    1.3733685221   -3.0975132102   -0.1522781141
 N    1.1092353059   -0.7786037315   -0.0643812310
 H    0.6846481553    1.8950055573    0.9280853936
 H    0.6027260027    1.9524047718   -0.8372216225
 H   -0.8927512456    1.9853371463    0.1187432745
 H   -2.9444747355   -0.7534630685   -0.6955591270
 H   -2.8681235415   -0.8062909037    0.9413115328
 H    2.0773198500   -0.5122623960   -0.1009185015