18

 C    0.0379583841    1.6716988140    0.1573822319
 C    0.0705181260    0.1642327272    0.1496560372
 N    1.0561838871   -0.4943305840   -0.8952510279
 H    0.5686510323   -1.0330036023   -1.6087699219
 H    1.7179786605    0.1354172345   -1.3541971173
 C    1.6272226177   -1.3390677002    0.2222391426
 C    2.2328801404   -0.4509997531    1.2506090110
 C    0.7433820349   -0.6329084349    1.2541667638
 C   -0.0799212062   -1.2808191589    2.3972372512
 O   -1.2784705422   -0.9430599705    2.3438977063
 O    0.5766875134   -2.0279398139    3.1328956964
 H    1.0232605292    2.1116663411    0.3379407556
 H   -0.3783379088    2.0857334481   -0.7667174302
 H   -0.6175647190    1.9591728361    0.9848208922
 H   -0.9127371249   -0.2671580809   -0.0392381263
 H    1.8358854773   -2.3807597907    0.0203157473
 H    2.6825855573   -1.0049276996    2.0699543515
 H    2.7336838808    0.4737337079    0.9690561267