20

 C   -0.5645890324    1.4976394659    0.0299639475
 C    0.1245283612    0.1448245027   -0.0242917721
 O    1.1943353898    0.2113199208   -0.9958964695
 C    2.2038053615   -0.6490490411   -0.6577530429
 N    3.2452438136   -0.8364780842   -1.3468463766
 C    1.8687659503   -1.3172584764    0.6574906241
 C    0.7930664368   -0.3962849009    1.2582350021
 C    1.4148799315    0.6836838920    2.1443617440
 O    2.0411535234    0.0209446044    3.2327442889
 H    0.1315334209    2.2920845892    0.3108327418
 H   -0.9795266859    1.7445345335   -0.9508602001
 H   -1.3862436151    1.4776412504    0.7527201221
 H   -0.5946332337   -0.6067442548   -0.3805471559
 H    3.2123580851   -0.2745971610   -2.1997814886
 H    1.4685389948   -2.3174184144    0.4569140016
 H    2.7464375611   -1.4316534854    1.2922615145
 H    0.0707189581   -0.9519086676    1.8628015680
 H    2.1419863681    1.2743712368    1.5649752195
 H    0.6358887740    1.3734221500    2.5013896375
 H    2.5210002669    0.6743955302    3.7495395640