20

 C   -1.5191265171   -0.2653404588   -0.0210943506
 C   -0.0004766409   -0.0945042592    0.0345628693
 C    0.7369062647   -0.6273267126   -1.2176625590
 C    2.2428247404   -0.2918504440   -1.1571956460
 C    3.0082474108   -0.6682506179   -2.4189806473
 O    4.3536337453   -0.2477435276   -2.2429740518
 C    0.5145522345   -2.0637620175   -1.3912001782
 C    0.3390412219   -3.2481253526   -1.5087048839
 H   -1.9467776692    0.2687481065   -0.8771663878
 H   -1.7934228871   -1.3200244135   -0.1146384149
 H   -1.9891062314    0.1287175484    0.8850338351
 H    0.2507195250    0.9675564180    0.1412034814
 H    0.4018718573   -0.6028233239    0.9187946604
 H    0.3117617515   -0.1142630038   -2.0938973127
 H    2.3554426800    0.7855040997   -0.9910082734
 H    2.6999606521   -0.7994684228   -0.3006142526
 H    2.9435564922   -1.7533579708   -2.5834518778
 H    2.5485452557   -0.1755480141   -3.2925827925
 H    4.8616915895   -0.5453945691   -3.0029135729
 H    0.1804556250   -4.2918730144   -1.6232107347