18

 C    0.1519337162    1.5559681745    0.0648679724
 C    0.0873714472    0.0448312278   -0.0359361126
 C    0.8126299430   -0.5869706109   -1.2463350679
 C    1.2915043739   -1.9325683101   -0.7072579511
 C    2.5101554970   -1.9562939845    0.1798364510
 C    1.1358355348   -1.8259075620    0.8008409273
 O    0.7396790769   -0.5228005427    1.1220672017
 C    0.5684202347   -2.8750797761    1.6055074493
 N    0.1218792855   -3.7267289921    2.2485015948
 H    1.1917315993    1.8967292471    0.0798701318
 H   -0.3534826670    2.0131782195   -0.7913536442
 H   -0.3388527274    1.9024093524    0.9780691798
 H   -0.9623363061   -0.2861197430   -0.0344512396
 H    0.1397898643   -0.7086806625   -2.0986666264
 H    1.6513945320    0.0403615129   -1.5677073764
 H    1.0105468342   -2.8455673398   -1.2167036869
 H    3.0295349189   -2.9010366303    0.2961844071
 H    3.1302729426   -1.0684294903    0.2416339597