21

 C    0.0700665261    1.5625206537    0.1954327747
 C   -0.0322823635    0.0383617131    0.0050552408
 C    0.6658750741   -0.4625523999   -1.2266278748
 C    0.1090284557   -0.7619435790   -2.4360785588
 C   -1.2819496700   -0.7356429247   -2.9623011955
 O    1.0742046086   -1.1707579464   -3.3114765733
 C    2.2602384274   -1.1300668281   -2.6444716904
 C    2.0861364829   -0.7063268460   -1.3673000665
 C    3.1416233306   -0.5457541659   -0.3175631560
 H    1.1136778984    1.8854053262    0.2629519812
 H   -0.3836155345    2.0911700729   -0.6486341819
 H   -0.4398762365    1.8790316818    1.1112940380
 H    0.3856627141   -0.4605032477    0.8886781511
 H   -1.0897035796   -0.2477783482   -0.0272215188
 H   -1.3954151644   -0.0037843384   -3.7710056503
 H   -1.5747929627   -1.7122232217   -3.3644189372
 H   -1.9833259529   -0.4701236448   -2.1682744993
 H    3.1275847089   -1.4353850615   -3.2074106018
 H    3.2385254345    0.4954066211    0.0118081058
 H    2.9171691945   -1.1419629012    0.5749179233
 H    4.1185912582   -0.8657364254   -0.6908977504