23

 C    0.2111109511    1.5430480533    0.2553185840
 C   -0.0405255126    0.0381181781    0.1092622582
 C   -1.5199648595   -0.4012618955    0.0360101623
 C   -2.3485647190    0.1367164419    1.2159174406
 C   -2.1757847626    0.0791260562   -1.2577545329
 O   -1.5992489214    0.5413666462   -2.2090990075
 C   -1.5592661555   -1.9364900890   -0.0753143471
 C   -1.6140887331   -2.8639176924    1.1140288873
 C   -2.7843665338   -2.7869699648    0.1668572865
 H    1.2865481537    1.7458420291    0.2428364594
 H   -0.2403401211    2.1010032471   -0.5689363376
 H   -0.1816148502    1.9389761255    1.1970533235
 H    0.4557883082   -0.3133400732   -0.8014975242
 H    0.4238676756   -0.4969079565    0.9465157034
 H   -2.3832736827    1.2292306807    1.2013352163
 H   -3.3824498645   -0.2201236778    1.1851589026
 H   -1.9120479020   -0.1654280889    2.1722009446
 H   -3.2812076534   -0.0679961395   -1.2798778228
 H   -0.9276524190   -2.2872385283   -0.8880997775
 H   -0.9840547159   -3.7461964665    1.0945931327
 H   -1.7420663733   -2.4364438747    2.1017846302
 H   -3.6892455326   -2.3148117168    0.5320550606
 H   -2.9654857365   -3.6161816043   -0.5079316026