20

 C   -1.1634796714    0.9363883203    0.4246291965
 C   -0.0674306838   -0.0867148211    0.1751681247
 O    0.0743102708   -0.1656543763   -1.2672979856
 C    0.9613314369   -1.0280159779   -1.8213361501
 N    1.8515042210   -1.7897134046   -1.3517528286
 C    2.2143651538   -1.9052028159    0.0665792452
 C    3.5495224750   -2.6500486648    0.1515864596
 C    2.2786134306   -0.5692553264    0.7848464820
 C    1.2413516570    0.2622162651    0.8367279774
 H   -0.8561741311    1.9202989101    0.0573489499
 H   -2.0849661432    0.6474139408   -0.0860071705
 H   -1.3649180464    1.0127711066    1.4973184093
 H   -0.4065532392   -1.0736896652    0.5191178893
 H    0.8164295720   -1.0002025907   -2.9026449234
 H    1.4565648143   -2.5318123927    0.5636950517
 H    4.3378675332   -2.0733247212   -0.3429927003
 H    3.8389859205   -2.8128298565    1.1951945443
 H    3.4751024864   -3.6174400666   -0.3500178946
 H    3.2258589816   -0.2946395329    1.2438457102
 H    1.3170408920    1.2274736799    1.3301640430