18

 O    0.0156724050    0.0245582241    0.3047804747
 C    0.0041241329    1.2340108206    0.1955257200
 C   -1.2493115443    2.1102431669    0.1210875132
 C   -0.7293318877    3.5416576979   -0.1037504813
 C    0.7688468696    3.3888370560   -0.0906593507
 C    1.1921152002    2.1257564737    0.0909539936
 C    2.5893667448    1.6557028363    0.1535491671
 C    3.0068005471    0.5959190911    1.1214665808
 N    2.9679524967    0.3026119122   -0.3113195884
 H   -1.8981833944    1.7500937437   -0.6820897361
 H   -1.8142671233    2.0030584528    1.0522418317
 H   -1.0719781734    3.9658536045   -1.0556969515
 H   -1.0624697739    4.2404879732    0.6731370367
 H    1.4288089306    4.2413762356   -0.2196769770
 H    3.3251068410    2.4164604060   -0.0989299279
 H    3.9989936942    0.6542377846    1.5607804283
 H    2.2409971109    0.1578876838    1.7536294734
 H    2.1149497139   -0.2230844130   -0.4947543565