17

 C    0.2581502648    1.4034250404    0.1267785552
 N    0.1357316409   -0.0432565832    0.0455416908
 C    0.5070815953   -0.6479773983   -0.9909665218
 C    0.4283467677   -2.1498424545   -1.1914488433
 C    0.9354883550   -2.3351417197   -2.5926216121
 C    1.3256817935   -0.9847950243   -3.1426311898
 O    1.0461089601   -0.0456042394   -2.1051946641
 N    1.0071676917   -3.4553369512   -3.1857336057
 O    1.5232027060   -3.2912198462   -4.4836297047
 H    1.0701844895    1.6602861842    0.8179641133
 H    0.4542096084    1.8943164277   -0.8329010497
 H   -0.6629652096    1.8123848128    0.5546636982
 H    1.0462377271   -2.6677585859   -0.4515825761
 H   -0.5965374798   -2.5066692058   -1.0594675817
 H    2.3895499908   -0.9426564502   -3.4029555612
 H    0.7504406887   -0.7313204280   -4.0407111505
 H    1.5248944900   -4.1930084686   -4.8218214168