17

 C    0.0326266286    1.5016883039    0.0829025231
 C    0.0002106596    0.0135342888    0.0127408753
 C   -0.0166959397   -0.7697164283   -1.0826005374
 C   -0.0451038554   -0.3184564034   -2.4272864589
 N   -0.0735326540    0.0363079406   -3.5303124120
 C    0.0187019408   -2.2175311460   -0.6996211946
 C    1.2358324992   -2.6418441859    0.0468780805
 N    0.0196046995   -2.2669029832    0.7776249531
 C   -0.0117867636   -0.8676973579    1.2461361755
 H    0.9508789988    1.8483567341    0.5730279452
 H   -0.0194509734    1.9552777848   -0.9092398688
 H   -0.8034341714    1.8790068918    0.6847248128
 H   -0.5956467165   -2.9307686755   -1.2407233972
 H    1.4933685753   -3.6944678647    0.1203345705
 H    2.0810411310   -1.9562825007    0.0453438714
 H    0.8349504330   -0.6615078170    1.9136038081
 H   -0.9241249817   -0.6992698912    1.8353166033