15

 O   -0.0497885790    1.4848902832   -0.1401157271
 C    0.0573522186    0.0819494105   -0.0564449880
 C    0.0565504825   -0.5584506916    1.3332531737
 O    1.0858511187   -0.4912568516    2.2324350371
 C   -1.4796127237   -0.3074403364    1.5523280550
 O   -1.7602292510   -1.6951695360    1.9029950820
 C   -0.7718757378   -1.8084607139    0.8386297635
 C   -1.3154789203   -0.6123572618    0.0098161142
 O   -2.2745061904   -0.7004898703   -0.9618744398
 H    0.8055061001    1.8696100053    0.0764538855
 H    0.7761930143   -0.3275156631   -0.7790586926
 H    0.8073264504   -0.9457121889    3.0377686215
 H   -2.0086710943    0.4888315299    2.0711348230
 H   -0.4500106349   -2.7959523394    0.5124046193
 H   -2.4678574232    0.1918863640   -1.2723551572