17

 O   -0.0682395903   -0.1082467091    0.0962777274
 C   -0.0279531134    1.1037582872    0.0559902192
 N   -1.1833144375    1.8504358037   -0.1720783045
 C   -1.4809832720    3.1831879689    0.1225880511
 C   -0.8193781912    3.9946374061    0.9536079651
 C    0.3832767777    3.5570722907    1.7521697945
 C    1.4663794907    3.0109489388    0.8428125274
 C    2.1563148985    1.7068773355    1.1180789352
 N    1.1617753618    1.8245166718    0.0715238555
 H   -1.9602677465    1.2516660562   -0.4112532459
 H   -2.3705661325    3.5339291437   -0.3915930250
 H   -1.1768510259    5.0123942077    1.0545055342
 H    0.7774561561    4.3860163456    2.3471230347
 H    0.0926089055    2.7685793852    2.4622257189
 H    2.0091351073    3.7671018268    0.2776427047
 H    3.1773213392    1.5404337304    0.7864291639
 H    1.8690379127    1.1629294208    2.0147920837