18

 N   -0.1028730536    1.2712160498    0.3231865521
 C    0.0389893264   -0.0152430014   -0.0828704909
 O    1.0873046462   -0.5137803663   -0.4504054443
 C   -1.2336533514   -0.8270856096   -0.0509002943
 C   -1.7794439450   -1.5850687908   -1.2898009377
 C   -2.6279391576   -2.2812694574   -0.1803525142
 C   -1.3553263969   -2.1703194836    0.7161282930
 C   -3.4295803536   -1.0799500884    0.3395586778
 O   -2.3805171004   -0.0820965890    0.4089775354
 H    0.7033825275    1.8732281948    0.3292354199
 H   -1.0034713412    1.6121966897    0.6139472997
 H   -2.2949760815   -0.9862994741   -2.0446746236
 H   -1.0326611565   -2.2380689172   -1.7394475705
 H   -3.1643229837   -3.2154991977   -0.3395250777
 H   -0.5706123622   -2.8755560736    0.4456817591
 H   -1.4821603568   -2.1079230757    1.7997110404
 H   -4.2165407622   -0.7459374332   -0.3461227789
 H   -3.8613172874   -1.2363515464    1.3346310848