17

 C   -0.0055446711    1.2836002900   -0.2637557306
 O   -0.1049291974   -0.1478383891   -0.3042865167
 C   -1.2505418262   -0.6519973557    0.1674035739
 O   -2.1671856120   -0.0031540602    0.6072165421
 C   -1.2828341831   -2.1486090222    0.0943196609
 C   -1.3825576325   -3.1574183795    1.2713169503
 C   -1.1742412699   -3.9236187533   -0.0560960923
 C   -2.2496937293   -3.0408567526   -0.7317753985
 O   -0.1462473210   -2.9232403558   -0.4429313391
 H    0.9733968026    1.5219788427   -0.6782084487
 H   -0.7985113658    1.7399735978   -0.8612958221
 H   -0.0869528036    1.6445437559    0.7644562709
 H   -0.5263312524   -3.1547471094    1.9461242562
 H   -2.3424495949   -3.2484240246    1.7829931567
 H   -0.9332335363   -4.9724116021   -0.2214903335
 H   -3.2833605905   -3.1219464822   -0.3905125618
 H   -2.1534037165   -2.9358897798   -1.8126101677