11

 N    0.0014924157    1.3283240002    0.0079677964
 C   -0.0016411065   -0.0179641437    0.0007769455
 N   -1.1357078569   -0.6591159832    0.0038002699
 C   -1.1144819747   -2.0273341426   -0.0036874421
 O   -2.0579312308   -2.7578802906   -0.0022076265
 O    0.1629811304   -2.6849065059   -0.0144823089
 N    1.3392341801   -2.0008583577   -0.0175058795
 C    1.2712544803   -0.7185110096   -0.0102398552
 H    0.8528846231    1.8602330122    0.0060531869
 H   -0.8825759806    1.8112479445    0.0156454990
 H    2.2221985899   -0.1951556935   -0.0128489955