19

 O    0.0692983354    1.3943773678    0.3376156122
 C    0.0177858198    0.0313342745   -0.0627631879
 C   -1.3906714410   -0.5056559142   -0.1161197892
 C   -1.9794737319   -1.1140895715    1.1374679982
 C   -1.6799629115   -1.9987929370   -0.0497781362
 C   -2.8311145160   -2.2689728147   -0.9928926039
 O   -4.0606124858   -1.6221248671   -0.6313204093
 C   -3.2402935168   -1.0101542236   -1.6373549679
 C   -2.3536547916    0.1222112420   -1.1385213859
 H   -0.3770071970    1.4586609605    1.1889275574
 H    0.4774659724    0.0071959981   -1.0578079517
 H    0.6304001845   -0.6052207912    0.5967407868
 H   -1.3215797787   -1.2076326706    1.9968130503
 H   -3.0221495039   -0.9368133444    1.3698071835
 H   -0.8839036441   -2.7320808730    0.0114311846
 H   -2.9388924768   -3.2460271732   -1.4553307516
 H   -3.6939845188   -0.9554628932   -2.6245963709
 H   -2.9421944652    0.9469819494   -0.7246047625
 H   -1.7800029230    0.5285225615   -1.9796981859