17

 C   -0.7304908379    0.9589739927    1.5571924831
 C   -0.0906777351    0.5293837869    0.2130983368
 C    0.8686304376   -0.5551803712    0.3865151669
 C    1.6484522822   -1.4590406664    0.5288073391
 C   -1.2082745817    0.1517417743   -0.7784117762
 O   -1.5485904593    0.9098319348   -1.6532789952
 C   -1.9257930695   -1.1798050921   -0.5680257372
 C   -3.4237105677   -0.9551725108   -0.4068719274
 O   -4.0850132634   -1.4605735340    0.4598868917
 H    0.0507630081    1.2599883547    2.2587160085
 H   -1.4051970879    1.8043444443    1.3973951834
 H   -1.2935868113    0.1377793090    2.0089104954
 H    0.4090687259    1.3964668085   -0.2316856670
 H    2.3470540756   -2.2497703239    0.6516249850
 H   -1.7840288769   -1.7583198255   -1.4906156224
 H   -1.5388108901   -1.7576291292    0.2713133834
 H   -3.8600131184   -0.2722194622   -1.1647446879