20

 C   -0.0697670237    1.5511545573    0.0155669525
 C    0.1304756743    0.0677877408    0.0110128822
 N   -0.8368730408   -0.8570720756    0.6631993791
 C    0.5978996695   -0.8856303656    1.0557944824
 C    1.2918261477   -1.7649919060    0.0144956038
 C    0.7715478525   -0.7950725601   -1.0933687320
 C   -0.0487698848   -1.2255789958   -2.3197062856
 O    0.8307431596   -0.5036202067   -3.2134098150
 C    1.7272589430   -0.1815404129   -2.1341150958
 H    0.8486761189    2.0804654160   -0.2581425790
 H   -0.8504670364    1.8505158225   -0.6937726023
 H   -0.3694023937    1.8991526394    1.0102057569
 H   -1.3292062799   -0.3139053294    1.3734121256
 H    0.8907239969   -0.7072700864    2.0836884475
 H    2.3828530235   -1.7427655542    0.0893337537
 H    0.9464733850   -2.8011588618   -0.0384241995
 H   -0.0447408061   -2.3039712266   -2.5259002462
 H   -1.0805390039   -0.8579771410   -2.3595293778
 H    1.9177008864    0.8972201755   -2.0627636667
 H    2.6904326919   -0.7036232594   -2.2275301838