13

 O   -0.0477887392   -0.0334650018   -0.0002622831
 C    0.0079517540    1.1573196005    0.0092404699
 N    1.2059491703    1.9087928896    0.0017031652
 C    1.2760753080    3.2851820192    0.0125846614
 C    2.6021009938    3.6037546482   -0.0001807136
 C    3.2748105310    2.3438149505   -0.0185440588
 C    4.7415257990    2.1415051064   -0.0372184613
 O    5.2968530785    1.0733972325   -0.0529681869
 N    2.4209496138    1.3261566218   -0.0172762753
 H   -0.8654944289    1.8340095441    0.0249718506
 H    0.3837865335    3.8906338349    0.0280555506
 H    3.0425424082    4.5878958645    0.0029899722
 H    5.3131433980    3.0965841095   -0.0356687809