15

 N   -0.1008040916    1.3152448163    0.0850358162
 C    0.1070923253   -0.0033665779   -0.2019991239
 O    1.1657865629   -0.4687926801   -0.5665343168
 C   -1.1637173515   -0.8292663470   -0.0327794609
 N   -1.0603639752   -2.3274329276   -0.0152768299
 C   -0.2393875855   -2.6535305181    1.1386850184
 C   -1.6811947055   -2.3409396110    1.3948609120
 C   -1.8699762111   -0.8603585357    1.3406413258
 O   -2.4669656105   -0.0362456718    1.9742756094
 H    0.7060910154    1.9191025572    0.1057538450
 H   -0.9191669256    1.5967033369    0.6043376789
 H   -1.8940494149   -0.5252037744   -0.7906755365
 H    0.0260833125   -3.7045858716    1.1978058099
 H    0.5423596529   -1.9700583475    1.4527263121
 H   -2.3953815576   -3.0838409078    1.7287846302