20

 C   -0.0922604503    1.5530953347   -0.0045894681
 C    0.1062888097    0.0354181208   -0.0038999850
 C    0.7804667001   -0.4879731212   -1.2786094809
 O    2.0094896469    0.2189009021   -1.4310319791
 C    1.0223601926   -1.9967107925   -1.1626376544
 C    1.9590054381   -2.2856838045    0.0081876224
 N    1.4914322884   -1.6180622251    1.2150594727
 C    0.8149314508   -0.4277805132    1.2792443788
 O    0.7108728279    0.1817631386    2.3280933947
 H    0.8646073740    2.0658851488   -0.1200836334
 H   -0.7439008760    1.8517495079   -0.8320693417
 H   -0.5420288338    1.8686722328    0.9372933294
 H   -0.8827144702   -0.4435709114    0.0374618117
 H    0.1188893133   -0.2804569602   -2.1338347045
 H    2.4019077535   -0.0347687348   -2.2722315837
 H    0.0626415620   -2.5070462887   -1.0205678427
 H    1.4640038853   -2.3898920736   -2.0858897729
 H    2.0094191979   -3.3632058391    0.1977720259
 H    2.9717765334   -1.9476991922   -0.2505087328
 H    1.9585730462   -1.8446568493    2.0822267836