13

 C   -0.0141555687    1.4647171627   -0.0561096133
 N   -0.0072369834    0.0246969374    0.0689419360
 N   -0.0452581072   -0.7765844431   -1.0787313593
 N   -0.0304555476   -2.0228385827   -0.7449216204
 C    0.0166764892   -2.0812661170    0.6166760259
 C    0.0315925980   -0.7959909448    1.1308391220
 N    0.0781160488   -0.9539959523    2.4648942135
 N    0.0910196912   -2.3227741848    2.7465522857
 N    0.0538957838   -2.9838466607    1.6399070192
 H    0.8950274670    1.8990037595    0.3706221489
 H   -0.0545674390    1.6893332020   -1.1223093865
 H   -0.8902027254    1.8959960053    0.4376701041
 H    0.1032156035   -0.3014726116    3.2292354244