18

 N    0.4210806701    0.9914611345   -0.9170742423
 C    0.0980701899    0.2846417908    0.2065272052
 O    0.8360027019    0.2030452546    1.1679149008
 C   -1.2749339396   -0.3460258580    0.1466343551
 O   -1.4694613065   -1.5228519143    0.9221129999
 C   -2.1822179162   -0.3547240470    1.3207941851
 C   -1.8605255382    0.2529408782    2.6396716281
 C   -2.7399419914    1.3696240034    3.1546650408
 C   -2.7999501488    0.0114689972    3.7985611385
 H    1.3373096621    1.4065740249   -0.9640985810
 H   -0.1290797807    0.9494909064   -1.7567778212
 H   -1.7331436639   -0.3794069858   -0.8445017019
 H   -3.2501158159   -0.3921946496    1.0860050774
 H   -0.8012467817    0.3058345997    2.8540598764
 H   -2.2603610683    2.1816772341    3.6888909629
 H   -3.5836353376    1.6779566454    2.5450391815
 H   -3.6819875763   -0.5953306096    3.6204345400
 H   -2.3616435490   -0.1198572649    4.7811386246