21

 C    0.0451314621    1.5861096248   -0.1335339771
 C    1.5770149571    1.5390285038   -0.1157092130
 C    2.0910038493    0.9282351303    1.1659736991
 C    1.4713794099    1.1146360314    2.5508388033
 O    0.7106228998    0.0174076972    3.0254713127
 C   -0.6219453668   -0.0286904394    2.5535589722
 C   -0.7745367315   -0.6477271895    1.1613816859
 C    0.0150776872    0.0232467679    0.0361853024
 C    1.5515049584    0.0219349964    0.0945107840
 H   -0.4274779899    2.1876065759    0.6494761495
 H   -0.3652997072    1.9020532944   -1.0946668234
 H    2.2230424392    2.1268018207   -0.7571046330
 H    3.1783667876    0.9028995859    1.1865454587
 H    2.2778302040    1.2461073357    3.2795488376
 H    0.8592739314    2.0299221473    2.5828333238
 H   -1.1792281630   -0.6343616947    3.2772109718
 H   -1.0616494187    0.9820876292    2.5735642235
 H   -0.4699159543   -1.7011306409    1.2131222932
 H   -1.8460749095   -0.6446064751    0.9147498116
 H   -0.3014157354   -0.4200829352   -0.9132642908
 H    2.1772531604   -0.7416157061   -0.3536758021