19

 C    0.0536865311    1.5206647340   -0.1406555809
 N   -0.0077233367    0.0621475444   -0.0852798893
 C   -1.1689677426   -0.5149085761    0.7275005113
 C   -0.3467452619   -1.7685107539    1.0710304731
 N   -0.4296807767   -1.6929267313    2.5744500874
 C    1.0260097973   -1.8061792211    2.9699905868
 C    1.8633179639   -0.9861440794    1.8843252797
 C    0.6336553605   -0.5765150778    1.1123005875
 C   -0.5169486064   -0.2565863420    2.1157232607
 H    1.0427094508    1.8253267842   -0.4978236751
 H   -0.6861979746    1.8822764133   -0.8619421719
 H   -0.1329154011    2.0221473477    0.8241341552
 H   -2.2017228370   -0.4149428617    0.3938210654
 H   -0.2375520685   -2.6954175581    0.5086166007
 H    1.1562468110   -1.3995105909    3.9761781668
 H    1.3101885011   -2.8613812446    2.9867767700
 H    2.4195325981   -0.1557590599    2.3260952500
 H    2.5543354548   -1.6208071139    1.3241610197
 H   -0.6254931333    0.5714964973    2.8161444531