17

 C   -0.3457162797    1.4312882824    0.1009945084
 C    0.0055380495   -0.0374216657    0.0442769541
 C    0.5790157221   -0.7513354225   -1.1129755329
 C    1.5995273078    0.0932510851   -1.8790161292
 C    2.3689923073    0.1743117630   -0.5256258508
 C    2.8155944955    1.4981644238    0.0359611545
 O    2.5038722544    1.9568943955    1.1040107359
 N    1.3502925477   -0.6438651911    0.2066691805
 H    0.2240641804    2.0438366591   -0.6004014881
 H   -1.4065496808    1.5511322347   -0.1449575445
 H   -0.1732586413    1.8303267538    1.1031530657
 H   -0.6922558070   -0.6492985885    0.6137860207
 H    0.1991787231   -1.7049958660   -1.4657126916
 H    2.1440862555   -0.4599282031   -2.6445627694
 H    1.2298176232    1.0253582145   -2.3164022828
 H    3.2864857629   -0.4266863351   -0.5966130292
 H    3.5247727795    2.0359475503   -0.6397135914