17

 C    0.0621510105    1.5565857813    0.0653925346
 C   -0.0375971021    0.0336666791   -0.0393745386
 N    0.6567747953   -0.5032290867   -1.2045654930
 C    0.0867395210   -0.8781963595   -2.3986908318
 N    0.9679894237   -1.2764544945   -3.2757288653
 C    2.1870323366   -1.1585113729   -2.6370191001
 C    3.4772122924   -1.4994087311   -3.2361037263
 O    3.6538652740   -1.9194888868   -4.3548742651
 C    2.0031290281   -0.6786072814   -1.3542461369
 H    1.1039431801    1.8770435901    0.1546094294
 H   -0.3679539250    2.0370205589   -0.8177761671
 H   -0.4799459350    1.9068812785    0.9486020494
 H    0.3749034281   -0.4432982691    0.8552092578
 H   -1.0830157399   -0.2782520684   -0.1158903502
 H   -0.9837225659   -0.8371282162   -2.5445929395
 H    4.3342102940   -1.3312385816   -2.5413438291
 H    2.6998303341   -0.4614212598   -0.5600890681