21

 C    0.0496808260    1.6124183609    0.3081881631
 O    0.5930231633    0.3614186074   -0.0484782992
 C    0.7718605178   -0.5014455530    1.0474225725
 C   -0.5020582971   -1.1903161000    1.6264862474
 C    0.1092907769   -2.5835085058    1.2875084519
 O   -0.5480407379   -3.3245274326    0.2796669301
 C   -0.2066113451   -2.7465896490   -0.9793101526
 C    1.2497744932   -2.2733876615   -0.8403830135
 C    1.3503430677   -1.8862271141    0.6416172570
 H    0.6973847606    2.1444487509    1.0227428014
 H   -0.0310244835    2.2053651376   -0.6060182720
 H   -0.9500560158    1.5161965096    0.7570979459
 H    1.3715976849    0.0001619391    1.8218724526
 H   -0.6972335238   -1.0112892057    2.6865521608
 H   -1.4111756037   -0.9789826073    1.0574187995
 H    0.2673558975   -3.2473073981    2.1396612033
 H   -0.3535468614   -3.5129655539   -1.7447130940
 H   -0.8632982685   -1.8949092232   -1.2093131380
 H    1.9377327009   -3.0979662120   -1.0485971300
 H    1.4832348901   -1.4435714388   -1.5092862685
 H    2.3297758180   -2.1055494104    1.0682449923