17

 C    0.0042277368    1.5694811705    0.0154954851
 C   -0.0366095356    0.0583799338    0.0878138818
 C   -1.3754939542   -0.6435764870   -0.0507829114
 C   -1.3024890480   -1.8695101034    0.4699964677
 C    0.0585829196   -2.0708788688    1.0671973328
 C    1.2859977321   -1.7315644815    0.1914657132
 C    0.6973370854   -0.7348231290    1.2274669417
 C    0.9602126355   -0.7145404198   -0.8457318942
 O    1.4727121860   -0.4032651804   -1.8858479881
 H    1.0244330436    1.9445040300    0.1401269942
 H   -0.3521899710    1.9108515082   -0.9609993799
 H   -0.6273424337    2.0213930334    0.7871063677
 H   -2.1975606636   -0.2236187583   -0.6167795975
 H   -2.0647327662   -2.6370399178    0.4477514494
 H    0.2464041037   -2.8540394606    1.7935219360
 H    2.1875051038   -2.3283827881    0.2390120584
 H    1.1949543960   -0.3266100211    2.0974059932