14

 N    1.1076253800    0.2164483898   -0.3042895629
 C   -0.0780195103    0.5739872253   -0.0264982497
 N   -1.0840174301   -0.3780168228    0.0646786681
 C   -2.3995307221   -0.0772297713    0.3578508375
 O   -2.7981500768    1.0509981410    0.5486114005
 C   -3.2993883864   -1.2863612396    0.4403265558
 C   -4.4763556767   -1.2209018748    1.3254398599
 O   -4.6102519720   -1.0973692688   -0.0822011163
 H    1.7240252884    1.0264282317   -0.3344431591
 H   -0.4488558821    1.5827229605    0.1632701949
 H   -0.8044869772   -1.3331320118   -0.1107658396
 H   -2.8542334935   -2.2570230405    0.2196617156
 H   -4.8588909462   -2.1427794516    1.7602649794
 H   -4.6420457050   -0.3039544970    1.8857716558