21

 C   -0.0165786186    1.5622019015   -0.0044960867
 C    1.4960350171    1.8278246503   -0.0015188819
 C    1.9187564664    0.9839581495   -1.2130302779
 C    1.3161811728   -0.3770085478   -0.7940336620
 C    2.2776750278   -0.9358058924    0.2802815100
 C    1.8505136383   -0.0681659867    1.4733037812
 C    0.3423455933   -0.3575540363    1.4888228387
 C   -0.0004668328    0.0163856163    0.0281595345
 O    2.0978209808    1.3230700131    1.2036676655
 H   -0.5351047568    1.9976431911    0.8529440172
 H   -0.4661575444    1.9650845852   -0.9178811386
 H    1.7807913783    2.8809911231   -0.0494145390
 H    1.4686236334    1.3870023783   -2.1260696678
 H    3.0011639098    0.9410659965   -1.3552901386
 H    1.1290020240   -1.0583070034   -1.6249083101
 H    2.1005411148   -1.9930059515    0.5031226367
 H    3.3293939195   -0.8145660659    0.0103354537
 H    2.3717516359   -0.2798360939    2.4092773313
 H    0.1657674403   -1.4149185247    1.7113224104
 H   -0.2068593847    0.2420262609    2.2185904620
 H   -0.9113085353   -0.4487009029   -0.3508099386