19

 O   -0.1457155541    1.3928886061   -0.4404136521
 C   -0.0315790336    0.0077855062   -0.1736667078
 C   -1.3799087194   -0.5592824745    0.2337310085
 C   -1.9337214881   -0.0849092805    1.5897657394
 C   -2.5951670263   -1.3256027391    2.1424192775
 C   -2.4219888646   -2.4003705642    1.3711349799
 C   -1.6306271700   -2.0910845720    0.1315135173
 C   -2.4576549517   -1.7269110841   -1.1251979263
 O   -2.3341016740   -0.3139355215   -0.8472116262
 H   -0.8784509554    1.4736331467   -1.0645306533
 H    0.3479755872   -0.5410483096   -1.0512472140
 H    0.6983536909   -0.1080004742    0.6349621067
 H   -1.1461050583    0.2939290771    2.2537602964
 H   -2.6400272290    0.7385698880    1.4365422401
 H   -3.1457018024   -1.3188026035    3.0772204506
 H   -2.8122526348   -3.3902774839    1.5813710902
 H   -0.7753238511   -2.7510742207   -0.0380044377
 H   -1.9855785047   -1.9977307094   -2.0784800114
 H   -3.5040940908   -2.0504512669   -1.1326583978