23

 C   -0.0226675633    1.5699971771    0.0838348509
 C   -0.0218133857    0.0407254280    0.1979152110
 C   -1.4189617313   -0.5584189330    0.0595187716
 C   -2.0540429572   -0.6360625762   -1.3697051891
 C   -1.2585212274   -1.9598566908   -1.5676924631
 C   -1.5325241814   -2.1146183851   -0.0441938578
 C   -3.0548583304   -2.3133729014   -0.0334544946
 O   -3.5537600621   -2.1246264785    1.2814164177
 C   -3.4580746218   -1.1857927195   -1.0510353120
 H    0.9829925348    1.9793273654    0.2221195814
 H   -0.3827007783    1.8963662150   -0.8976341455
 H   -0.6736551043    2.0216013386    0.8406733122
 H    0.6670508936   -0.3764414340   -0.5451434243
 H    0.3816881379   -0.2471744250    1.1776450131
 H   -2.0687960004   -0.1175449539    0.8229398508
 H   -1.9895562508    0.1903165364   -2.0794089706
 H   -1.6830403315   -2.7106393964   -2.2426013859
 H   -0.2050537231   -1.8145656313   -1.8048589835
 H   -0.9513695441   -2.7833537733    0.5920508099
 H   -3.3296183003   -3.3121251657   -0.4019358240
 H   -4.5142668295   -2.1635429416    1.2439754885
 H   -4.1052897302   -0.4460787042   -0.5690701993
 H   -3.9713093131   -1.5745328806   -1.9360295775