22

 C   -0.2633732876    1.0017287025   -1.7629454972
 C   -0.0611707082   -0.1756669387   -0.8330918521
 C    1.3017789772   -0.6301804257   -0.3441518684
 C    2.5954974465    0.0599121613   -0.7240554072
 C    0.3025705656   -0.0363223740    0.6345863326
 C    0.5326480290    1.3248233653    1.2659066978
 C   -0.3647436573   -1.0143214546    1.5765842457
 O   -1.6642182785   -0.5251251692    1.8948554442
 H    0.4540921953    1.8081329182   -1.5948039480
 H   -0.1615342202    0.6900724536   -2.8087195279
 H   -1.2662599093    1.4251563010   -1.6399493731
 H   -0.7578882866   -0.9861380173   -1.0369510791
 H    1.4164953565   -1.7105506755   -0.2717108919
 H    2.4881621287    1.1424340852   -0.8206559507
 H    3.3729018699   -0.1251898148    0.0258751046
 H    2.9676609986   -0.3178485662   -1.6830545813
 H    0.9296192003    2.0614415161    0.5657744379
 H   -0.4092906511    1.7113188627    1.6649854027
 H    1.2413713011    1.2491005329    2.0998999428
 H   -0.4262816607   -2.0056910688    1.0998969254
 H    0.2437952283   -1.1258154239    2.4899465680
 H   -2.0266039072   -1.0727248800    2.5972490350