16

 C   -0.0288817173    1.5132085350    0.0532243169
 C   -0.0172273300    0.0224860178   -0.0558450683
 C   -0.0460433738   -0.7704874646   -1.1657522015
 C   -0.0225480219   -2.1151405268   -0.6702584954
 N   -0.1092953957   -3.2690896004   -1.4243234933
 N    0.0247437444   -2.1588798837    0.6455587861
 N    0.0195565389   -0.8377402424    1.0308916202
 C    0.0607877152   -0.4783326971    2.3743640521
 O    0.0950441537   -1.2453037135    3.2973416175
 H    0.8663555746    1.8988882459    0.5526019358
 H   -0.0638749888    1.9456720586   -0.9487945213
 H   -0.9004329493    1.8799254279    0.6058097015
 H   -0.0915499081   -0.4442618589   -2.1930245249
 H    0.3539387693   -3.2285750205   -2.3199154895
 H    0.1321003644   -4.1011747234   -0.9033150999
 H    0.0590338944    0.6199364463    2.4873903038