17

 O    0.0139475704    0.0070989820    0.0827350070
 C   -0.0127165655    1.2047856618   -0.0166446908
 C   -1.2761088646    2.0665702830   -0.1690619066
 C   -0.8143935125    3.3658827923   -0.8574705070
 C    0.6766345952    3.4844143467   -0.5500730111
 C    1.0934663722    3.3296690580    0.8682097050
 C    1.1931474101    2.1164095135   -0.0768193216
 C    2.4756423268    1.5866148005   -0.4137604553
 C    3.5534281960    1.1381625079   -0.7015679546
 H   -2.0288194551    1.5114270963   -0.7312475629
 H   -1.6980021033    2.2489936831    0.8261804079
 H   -0.9545561401    3.2874875692   -1.9402260204
 H   -1.3702514457    4.2464434915   -0.5200418060
 H    1.3022314432    4.0731197834   -1.2102326137
 H    2.0497170485    3.7418643586    1.1663078796
 H    0.3461417001    3.3051169622    1.6546605740
 H    4.5017288142    0.7333960901   -0.9545757934