18

 O    0.0265142008    0.0496451464   -0.3729491018
 C    0.0172292479    1.2165285320   -0.0167969500
 C   -1.2409567374    1.9265569617    0.2795009529
 C   -1.3012024924    3.2633492322    0.3536347079
 C   -0.0898406284    4.1467838447    0.2469558704
 C    1.1837837362    3.4062744111    0.6747976441
 C    1.2869086237    2.0302810296    0.0469760966
 C    2.5560173327    1.2558613338    0.1189830285
 N    2.1729095157    1.8948279288   -1.1404125364
 H   -2.1299521521    1.3057516387    0.3245622681
 H   -2.2681563920    3.7490276990    0.4671930248
 H    0.0006323052    4.4982211281   -0.7914251383
 H   -0.2296286394    5.0479846704    0.8538710932
 H    2.0755647021    3.9845763210    0.4185552097
 H    1.1677270590    3.2911472225    1.7662093450
 H    3.4074169229    1.7059166789    0.6229655818
 H    2.4678345010    0.1768644836    0.1960832508
 H    1.7732800847    1.1792865577   -1.7473490573