19

 C   -0.0245614671    1.5198718785   -0.0376797454
 C    0.0407075349    0.0105487574   -0.0217047246
 C   -0.6071449529   -0.7736951154    1.1082895120
 C    0.8915508347   -0.7810865936    0.9390533806
 O    1.4939700381   -1.8706704252    0.2762329937
 C    1.1966026210   -1.8159682379   -1.0951143389
 C   -0.2155053792   -2.1227672100   -1.5638178204
 C    0.2453949437   -0.6916570421   -1.3701717386
 O    0.4361305880    0.1213483463   -2.4875698830
 H    0.8023879155    1.9470610828   -0.6106229553
 H   -0.9600844301    1.8742939304   -0.4867380687
 H    0.0186515825    1.9164675283    0.9810456627
 H   -0.9974184883   -0.1877768970    1.9352289395
 H   -1.1675137098   -1.6787393874    0.9084259135
 H    1.5368964543   -0.3402367424    1.6919578430
 H    2.0374735470   -2.0585754837   -1.7354062756
 H   -0.2911487717   -2.4453209064   -2.5977174028
 H   -0.9274731764   -2.5819114738   -0.8896118413
 H   -0.4303570143    0.3393663610   -2.8485236503