16

 C    0.0227347260    1.5862027559   -0.0434047675
 C   -0.1151904118    0.1023487482    0.1621447626
 O    1.0416841652   -0.7151160181   -0.1487496854
 C    0.6321015694   -0.6225047724    1.1857245383
 C    1.4906848331   -0.1678976203    2.3609681485
 O    0.9945491711   -1.2737185424    3.1604180065
 C    0.2451772996   -1.8295560417    2.0621420592
 C   -1.1765182819   -2.0039032264    2.3605637047
 N   -2.3071142446   -2.1275082242    2.5653912134
 H    0.9804711457    1.9496549337    0.3383921571
 H   -0.0378926218    1.8321283776   -1.1079079760
 H   -0.7857720775    2.1151775384    0.4717038946
 H   -1.0540766837   -0.3415542439   -0.1704414068
 H    2.5701321630   -0.2390709392    2.1866504832
 H    1.2457168833    0.8014951869    2.8078080501
 H    0.6681726152   -2.7784741420    1.7087416274