15

 N   -0.0907760065    1.2936281401    0.0209384378
 C   -0.0251063967    0.0291323741    0.0004934860
 C   -1.2372614123   -0.8899368541    0.0371642460
 C   -0.6516454502   -2.2911347989    0.0738407098
 C   -1.2321961213   -3.4767483359    0.7195348688
 O   -1.2370279505   -3.3326919555   -0.6986169072
 C    0.8574177016   -2.1550708902   -0.0262925708
 O    1.6817712366   -3.0321093084   -0.0631516014
 N    1.1063004670   -0.7911934223   -0.0553076822
 H    0.8331858407    1.7281088036   -0.0108759074
 H   -1.8637076772   -0.6500795285    0.8989475522
 H   -1.8409976510   -0.7466079571   -0.8632091077
 H   -0.5646979938   -4.2450776246    1.1043350523
 H   -2.2018618276   -3.3843252590    1.2066944092
 H    2.0499677312   -0.4340660032   -0.1018325954