18

 C   -0.1132382065    0.3226135994   -1.0526029150
 O    0.3695145808    1.0181411214    0.0819807989
 C    0.8006235050    0.2205557678    1.0866175423
 C    0.8819392879   -1.1333837885    1.2680507394
 C    1.4436074544   -1.3464285521    2.5811114935
 C    1.6704806661   -0.1094548583    3.1206565452
 N    1.2797398263    0.8493293012    2.2135266669
 O    2.1715798216    0.3343400174    4.2967669322
 C    2.5585285383   -0.6907654530    5.1931586959
 H   -0.9709947336   -0.3109029431   -0.7915665161
 H   -0.4228206149    1.0798204498   -1.7743554930
 H    0.6710372731   -0.3073039187   -1.4923540429
 H    0.5856427115   -1.8970386186    0.5687097929
 H    1.6434215116   -2.2985062056    3.0433452443
 H    1.3360475813    1.8431632007    2.3506914319
 H    1.7035520972   -1.3263137472    5.4584117273
 H    3.3453137751   -1.3200287455    4.7570091847
 H    2.9387635048   -0.1957396071    6.0878658915