15

 O   -0.0543906679   -0.0515777172   -0.0091074411
 C    0.0033136362    1.1628696490   -0.0052474068
 C   -1.2301885088    2.1206515458    0.0179943695
 N   -0.7098430328    3.4955875797   -0.1317514787
 C    0.6741450697    3.3949591041   -0.0360102411
 C    1.1096512368    2.0781367779   -0.0261375735
 N    2.4879126949    2.0872549292   -0.0106564478
 C    2.9029950866    3.3866289614    0.0063900406
 C    1.8063464477    4.2404072409   -0.0091823695
 H   -1.9158531245    1.8610980653   -0.7945193801
 H   -1.7637324965    1.9867943345    0.9662252225
 H   -1.1559574452    4.2003309364    0.4385369317
 H    3.0819425647    1.2768610125   -0.0174912416
 H    3.9551231771    3.6279270962    0.0237383607
 H    1.8473215922    5.3179153043   -0.0046991647