17

 C    0.0026546217    1.5029548354   -0.0094269226
 C    0.0197226820    0.0487763795    0.0497544326
 C    0.0406760797   -1.1539484498    0.0989818757
 C    0.0153240844   -2.6096027299    0.1460742342
 C   -1.4271851875   -3.1858460971    0.0017622917
 C   -2.0176438053   -2.7804288110   -1.3560884122
 O   -3.0264705125   -2.1475793290   -1.4933875927
 C   -1.4182111945   -4.6408657530    0.0871758603
 C   -1.3951287358   -5.8427403896    0.1086291412
 H    0.7037041242    1.8786584800   -0.7626553272
 H   -0.9946127178    1.8738508441   -0.2695017096
 H    0.2810514813    1.9439015135    0.9539186479
 H    0.6400272842   -3.0332376432   -0.6504664637
 H    0.4336886612   -2.9784553297    1.0889734150
 H   -2.0711581142   -2.7541931921    0.7741933121
 H   -1.4192711052   -3.1382123165   -2.2238072840
 H   -1.3889415759   -6.9041795417    0.1483359213