20

 C    0.0064826492    1.4911701956   -0.0956610165
 N    0.0105523494    0.0298244326   -0.0467485470
 C   -1.1524423347   -0.6732963210    0.6337582305
 C   -0.7528992333   -2.1197142696    0.3674320748
 C    0.5578242389   -2.1201334057    0.6520830875
 C    1.5892813118   -3.1921164876    0.6178013647
 C    0.7856021805   -0.6573919340    1.0609955769
 C   -0.4300067657   -0.4925093602    2.0373600964
 O   -0.4816962841    0.7549534741    2.6802547059
 H    0.9943679247    1.8198433962   -0.4387827221
 H   -0.7163398503    1.7985549477   -0.8606981814
 H   -0.2274721947    2.0096314517    0.8399601236
 H   -2.1668511944   -0.3309916820    0.4257078511
 H   -1.3938199118   -2.9280901214    0.0448667653
 H    1.1572462623   -4.1495023254    0.3122301837
 H    2.3961392489   -2.9446615300   -0.0837741884
 H    2.0603331494   -3.3309047444    1.5993672867
 H    1.7896930318   -0.3054165884    1.3008335469
 H   -0.5886257584   -1.3102506017    2.7543430698
 H   -1.2827760693    0.7844149437    3.2128433717