25

 C   -0.7259168716    1.2164352011   -0.0664593414
 C    0.1052720614   -0.0578104051   -0.1160945975
 C    1.5603607028    0.0076268098   -0.6567965241
 C    1.9713070475   -1.0392041757    0.4114787716
 C    0.6594208697   -0.7215182453    1.1945600560
 C    0.8703462540    0.1939783510    2.3883256598
 C   -0.3429277671    0.5850412259    3.2846159073
 C    0.5682155079    0.4239991426    4.5299470175
 C    1.5490543505   -0.4042793400    3.6574708692
 H   -0.2107468782    2.0173531338    0.4739092630
 H   -0.9282297709    1.5830298896   -1.0795395493
 H   -1.6917856562    1.0504888045    0.4233748308
 H   -0.4477397864   -0.8209856584   -0.6764228549
 H    1.7209699689   -0.2461513353   -1.7078804156
 H    2.0166910508    0.9850761863   -0.4689117871
 H    1.9764492948   -2.0565942468    0.0108594437
 H    2.9132018392   -0.8737453535    0.9417876742
 H    0.0953437668   -1.6006160203    1.5281539967
 H    1.4096903124    1.0996755266    2.0844547370
 H   -0.8142163186    1.5562767862    3.1158920408
 H   -1.1201727194   -0.1861124669    3.2511538493
 H    1.0064529158    1.3780661476    4.8373898791
 H    0.1424354655   -0.0589704844    5.4127839690
 H    1.3513842855   -1.4786450309    3.7387649573
 H    2.6209638350   -0.2396150225    3.7932234975