18

 C    0.2842190461    1.5452553741    0.0047951913
 C   -0.0333278143    0.0454095679    0.0214202293
 N    0.4697671330   -0.5803080081   -1.1934578405
 C    1.0793129105   -1.7920865037   -1.3601233192
 O    1.4817174817   -2.1598363825   -2.4474864040
 C    1.1995162787   -2.6779752392   -0.1251462990
 C    1.1411666203   -1.9476432478    1.1900847158
 O    1.9571762188   -0.7719819897    1.3051611061
 C    0.5386503433   -0.6156067374    1.2582410779
 H    1.3664148285    1.6990507897    0.0196072212
 H   -0.1273793962    2.0207456464   -0.8915215613
 H   -0.1550996141    2.0401488443    0.8760661460
 H   -1.1274808783   -0.0782053473    0.0820318337
 H    0.4227279013   -0.0387854487   -2.0451526678
 H    0.3858353058   -3.4142618961   -0.1627043142
 H    2.1318685597   -3.2405336199   -0.2268311236
 H    1.1347681092   -2.5712588366    2.0840748532
 H    0.0841577560   -0.2787032056    2.1902575352