20

 C   -0.1164968297    1.5850154496    0.0505045210
 C    0.0051621681    0.0676268825   -0.0352471233
 N   -1.3037101718   -0.5619762946    0.0157860821
 C   -1.4930606101   -1.8981705037    0.0080520659
 C   -0.5531706597   -2.8828033197    0.0209142835
 C   -1.1816460961   -4.1949090688    0.0258100715
 O   -0.6469985438   -5.2855044318    0.0356355594
 C   -2.7120236589   -3.9762783651    0.0132818017
 C   -2.9054124829   -2.4504690167   -0.0016822809
 H    0.8727630459    2.0475763057    0.0141334207
 H   -0.7018129984    1.9823517898   -0.7860697189
 H   -0.5997390929    1.8892318639    0.9844835618
 H    0.5250114544   -0.2206260338   -0.9603274800
 H    0.6124203499   -0.3101672538    0.7974165921
 H   -2.1102672534    0.0328708267   -0.0817280400
 H    0.5195176064   -2.7507735319    0.0244657099
 H   -3.1417348938   -4.4690216771   -0.8632443091
 H   -3.1532563439   -4.4518026120    0.8936397917
 H   -3.4634627959   -2.0834198659    0.8680423455
 H   -3.4454574532   -2.0999221432   -0.8898568047