15

 O    0.5679567715    1.0013911538   -1.4993183679
 C    0.2423101749    1.5405656462   -0.4564313817
 N    1.0903006799    1.6816771799    0.6044461221
 C    2.4391528858    1.1518374072    0.5630438597
 C    3.3714879885    2.0082952028   -0.3274064793
 C    4.7414581395    1.5060084837   -0.3118423035
 N    5.8197014895    1.0922717210   -0.2742171712
 C   -1.0846905492    2.0935469958   -0.2273294962
 C   -2.1881522589    2.5428027716   -0.0674409590
 H    0.7592692439    2.1503618284    1.4316229329
 H    2.8240834443    1.1116997635    1.5840049861
 H    2.4107167971    0.1333966813    0.1665190420
 H    2.9872473053    1.9930633249   -1.3514027898
 H    3.3680278424    3.0484295007    0.0156239370
 H   -3.1679472244    2.9351708191    0.0598369185