19

 C    0.2380862995    1.5551079179   -0.0977433811
 C    0.0510698262    0.0526666547    0.0417964541
 O    0.6170621967   -0.5845865183   -1.1140641277
 C    1.1688969039   -1.8289418435   -0.7511853790
 C    0.6270316651   -3.0924541842   -1.3741520695
 C    1.9824570900   -2.5389412637   -1.7805222224
 C    1.4753018557   -1.7592129569    0.7095864003
 O    2.1923462274   -0.5709083769    1.0825660987
 C    0.7676599966   -0.5861668884    1.2208934303
 H    1.3037943915    1.7960030682   -0.0936484913
 H   -0.1991029935    1.9049585165   -1.0364972893
 H   -0.2511018032    2.0815588472    0.7280139296
 H   -1.0208410214   -0.1956300704    0.1207249259
 H    0.5901637579   -4.0009689905   -0.7811229507
 H   -0.1896377364   -2.9700628128   -2.0763329992
 H    2.0545156488   -2.0601341419   -2.7503928180
 H    2.8783095970   -3.0610079464   -1.4628736727
 H    1.6842394510   -2.6544926941    1.2876347027
 H    0.3734087672   -0.4982460867    2.2297753193