21

 C    0.7665372671    1.3733449265    0.1239361498
 C   -0.0361146053    0.0840871161   -0.0232892948
 C    0.5599602391   -0.9444149649   -1.0344395875
 C    1.1118089118   -1.7552113608    0.1553652801
 C    0.1931729739   -0.9626709711    1.1108172513
 O    0.9746046395   -3.2019581711    0.1428698964
 C    2.3394689494   -3.3495528668    0.5415028400
 C    3.2594605905   -2.8115399236   -0.5077777099
 C    2.6002673250   -1.8673681439    0.4804198681
 H    1.8298493831    1.1680351179    0.2931376855
 H    0.6900026006    1.9906293202   -0.7779211189
 H    0.4056675587    1.9687841991    0.9698482540
 H   -1.0872915065    0.3266237824   -0.1998632738
 H   -0.2141225644   -1.5127659788   -1.5568167324
 H    1.2864653494   -0.5763445934   -1.7649283999
 H    0.6349404109   -0.6066954182    2.0464118053
 H   -0.7054006898   -1.5416709524    1.3387091640
 H    2.5792145617   -4.1121210777    1.2729440140
 H    4.3194159914   -2.9749971902   -0.3370357803
 H    2.9490802929   -2.8299537559   -1.5489367991
 H    3.1521290711   -1.2163743734    1.1452648880