14

 N   -0.0841379952    1.1745328722    0.7708661451
 C   -0.0332363856    0.0746172627    0.1207730345
 C   -1.2670270507   -0.5030538727   -0.3715627344
 C   -1.4280367154   -1.6382575375   -1.0681964028
 N   -0.4670545607   -2.4832726151   -1.5923371732
 N    0.8770866380   -2.3803012322   -1.7419235004
 N    1.6066498400   -1.5775746829   -1.1166408417
 C    1.2852469424   -0.6466071796   -0.0842625340
 N    2.2372217206   -0.3178359644    0.6960064408
 H    0.8565883942    1.4034680081    1.1061902801
 H   -2.1612492345    0.0363866344   -0.0833226903
 H   -2.4282645199   -1.9804065279   -1.3128088751
 H   -0.8016511457   -3.2328397381   -2.1777445169
 H    3.0841544225   -0.8230895971    0.4240771584