17

 C    0.0205277697    1.5120934600    0.0094769587
 N    1.2773754781    0.7509167792    0.0275043295
 C   -0.0156415816    0.0247762800   -0.0031867376
 C   -0.3864671819   -0.7371790567    1.2551151768
 O   -0.1150323309   -2.1221618256    1.1174611423
 C   -0.8729323998   -2.7236943926    0.0879651086
 C   -0.8399990835   -1.9457756050   -1.2000583252
 C   -0.4167635626   -0.6824780857   -1.2402966778
 H   -0.2013328341    2.0473977951    0.9298033240
 H   -0.2721039129    2.0365540054   -0.8972427007
 H    1.6976069454    0.7447634217   -0.8998129924
 H    0.2095234808   -0.3826877066    2.0989700374
 H   -1.4551028266   -0.5770680118    1.4800717694
 H   -0.4443629014   -3.7217801270   -0.0592790807
 H   -1.9217711818   -2.8726401469    0.4097808887
 H   -1.1748055871   -2.4586423272   -2.0973281661
 H   -0.3619142098   -0.1335761262   -2.1782163249