20

 C    0.0195512628    1.5490292559    0.1563806319
 C    0.0413817412    0.0348482328    0.0271309974
 O   -1.2613457870   -0.4797861907   -0.2246499940
 C    1.1004135104   -0.6116673515   -0.9228181661
 C    1.3091202311   -1.7269471977    0.1374950725
 C    2.7445777676   -2.2016376329    0.3851149482
 C    2.8426905734   -3.1390399741    1.5036047247
 N    2.8993429606   -3.8768503946    2.3913061279
 C    0.6341108131   -0.8057512691    1.1890291130
 H    1.0105589307    1.9444500962    0.3993047571
 H   -0.3025725628    2.0154559935   -0.7834679789
 H   -0.6797056073    1.8522680943    0.9418205356
 H   -1.5800290994   -0.0877199237   -1.0453165844
 H    0.7484416815   -0.9115134608   -1.9133750070
 H    1.9888678790    0.0191132671   -1.0342970616
 H    0.6716157373   -2.5868563499   -0.0782167469
 H    3.1455451330   -2.6887632550   -0.5121169330
 H    3.3956016333   -1.3438226315    0.5949739571
 H    1.3682891032   -0.2367822797    1.7674574747
 H   -0.0943495016   -1.2534048586    1.8662106419