20

 C    0.1682967050    1.5063860613    0.1075860410
 C    0.0541776781   -0.0109287163    0.2264947352
 O    0.3027607529   -0.4327559509    1.5788542822
 C   -1.3009473538   -0.5431790957   -0.2727135441
 C   -1.3893187326   -2.0362701088   -0.3446499086
 C   -1.9431109100   -2.8653822763   -1.2980982616
 C   -1.7738873315   -4.2075395874   -0.8564108217
 C   -1.1186413080   -4.1592605910    0.3522793679
 N   -0.8998014374   -2.8410848446    0.6570725972
 H    1.1207883210    1.8496943614    0.5200782074
 H    0.1065781531    1.8249681969   -0.9375538898
 H   -0.6433369977    2.0029215043    0.6546552369
 H    0.8551385395   -0.4851981005   -0.3510333898
 H   -0.3122387978    0.0468125894    2.1464477382
 H   -2.0818338588   -0.1266226460    0.3857036706
 H   -1.5022090734   -0.1372378342   -1.2698599705
 H   -2.4211743476   -2.5393807146   -2.2100601522
 H   -2.0958450894   -5.1023447215   -1.3668260361
 H   -0.7880312007   -4.9448196928    1.0128341158
 H   -0.3754659109   -2.4691515026    1.4336611722