15

 O   -0.0859878301    0.0416631212    0.1914848979
 C   -0.0442440841    1.2332136628    0.0450971066
 N   -1.0232015528    2.1881560600   -0.1358986158
 C   -0.1033339187    3.3421298096   -0.0060183140
 C   -0.0385650196    3.9928015517    1.3523086153
 C    0.9834609016    3.5362928691    2.0770671262
 C    1.8318536429    2.5197079111    1.3455465002
 C    1.0728424357    2.3102998967    0.0209604352
 H   -2.0129091214    2.1212331638    0.0599930036
 H   -0.1775765468    4.0392517793   -0.8454529696
 H   -0.7605955141    4.7313833043    1.6825682331
 H    1.2086690761    3.8440667038    3.0930415213
 H    2.8480038228    2.8970156631    1.1769417481
 H    1.9391787539    1.5845140776    1.9076799245
 H    1.7065964247    2.2633385160   -0.8643774426