16

 C   -0.0340639598    1.5633774079   -0.0112103699
 C    0.0241133810    0.0237252780    0.0353961285
 N    0.8377326210   -0.3725225900    1.1944564582
 C   -1.4160793440   -0.5798276685    0.0751386336
 N   -2.0805358694   -0.1898640192    1.3184729825
 C    0.6774502035   -0.4730020124   -1.1886084109
 N    1.1541647897   -0.8811484248   -2.1588376342
 H    0.9753120623    1.9733690365   -0.0677670282
 H   -0.6136034330    1.9135622922   -0.8700529975
 H   -0.5004377268    1.9312345551    0.9072063300
 H    0.2409797027   -0.2445989677    2.0110946166
 H    1.0407835395   -1.3678371167    1.1443279022
 H   -1.9593192953   -0.2879957367   -0.8360912679
 H   -1.3222759605   -1.6701247019    0.0588689765
 H   -2.5716910009    0.6901401786    1.2081083003
 H   -2.7749522000   -0.8789591804    1.5811555802