17

 C   -0.4183408746    1.3142466121    0.3409248555
 C   -0.0747944943   -0.1042302062    0.0004849585
 C    0.2421935512   -0.5920827366   -1.2441754207
 N    0.4958403252   -1.9441593917   -1.1284790469
 C    0.3491374303   -2.3081517880    0.1779958431
 O    0.5949483616   -3.6087110739    0.5079130953
 C   -0.2680562712   -4.2083841850    1.3749968447
 N    0.0214115801   -5.3402547558    1.8423591613
 C   -0.0009453780   -1.2049234201    0.9160510398
 H    0.2760819172    1.7347172952    1.0777058696
 H   -0.3818082690    1.9508804809   -0.5478956104
 H   -1.4252482820    1.3983349443    0.7666334579
 H    0.3156845887   -0.0936458398   -2.1970965511
 H    0.7520400289   -2.5768191797   -1.8661492751
 H   -1.1609765683   -3.6022808031    1.5640210068
 H   -0.7281874634   -5.6667130937    2.4487522440
 H   -0.1554212625   -1.1746130388    1.9832718776