18

 C   -0.2586146918    1.5411720001   -0.0779944546
 C    0.0438239902    0.0502364251   -0.0246379958
 O    0.9655604238   -0.2694436733   -1.1062901254
 C    2.1202671580   -0.6650914653   -0.5035877446
 N    2.1480846670   -0.7996441902    0.7622897017
 C    0.7880817110   -0.4911682729    1.2411778046
 C    0.8252029910    0.4207023399    2.4661555148
 C    3.2179471192   -0.9023688969   -1.3812868322
 C    4.1366266667   -1.1022797193   -2.1289546418
 H    0.6459443690    2.1364055576    0.0745264373
 H   -0.6760612578    1.7991463002   -1.0548414386
 H   -0.9878878552    1.8156306257    0.6898638712
 H   -0.8688696635   -0.5202357163   -0.2179445996
 H    0.3310253337   -1.4427386450    1.5449360643
 H    1.3112543264    1.3741792586    2.2440136080
 H   -0.1835303653    0.6217573236    2.8404030735
 H    1.3944975677   -0.0673362019    3.2609647403
 H    4.9545018098   -1.2818834899   -2.7828350730