21

 C   -0.0145311109    1.5827165612   -0.0957923008
 C    0.0054960150    0.0524055511   -0.1083329956
 C   -1.3900748186   -0.5625810883    0.1171009192
 C   -1.3951483348   -2.0614306766    0.0954178958
 C   -1.6623665304   -2.8967869601    1.1070601068
 C   -1.5552196676   -4.3570442612    0.7173019013
 C   -1.2419549028   -4.2873218570   -0.7727717265
 O   -2.2590935711   -3.6631603607   -1.5582588803
 C   -1.1225285136   -2.8675778791   -1.1423113115
 H    0.9871486222    1.9953515585   -0.2508251494
 H   -0.6639295724    1.9771604215   -0.8851700226
 H   -0.3884516788    1.9652856267    0.8604546944
 H    0.4120529097   -0.2996983239   -1.0648110849
 H    0.6858345411   -0.3193894661    0.6674152209
 H   -1.7848521912   -0.2122025577    1.0782922535
 H   -2.0711887755   -0.1817475409   -0.6574768130
 H   -1.9699229989   -2.5837272099    2.0995337196
 H   -0.7551563191   -4.8724113763    1.2651261208
 H   -2.4815226280   -4.9118872434    0.9105526657
 H   -0.6931938294   -5.0842552951   -1.2676600366
 H   -0.5026076051   -2.5002275526   -1.9551376070