17

 C   -0.0529666783    1.5679110408   -0.0236223311
 O    1.2798042523    2.0865378403    0.0643142765
 C    2.1708276324    1.4320909097    0.9735144076
 C    1.8379180748   -0.0245245763    0.8747345359
 O    2.5501783753   -1.2317523714    1.2359372655
 C    1.2669214703   -1.6877406776    0.6328717836
 C    0.4341554792   -0.5556201969    1.2834102477
 C   -0.1056677144    0.0284496803   -0.0405282386
 C    1.2538176673   -0.5825479189   -0.4582325938
 H   -0.6701639738    1.9507434833    0.8064336639
 H   -0.4483033804    1.9878057929   -0.9534482767
 H    3.1844468915    1.6604277254    0.6298515049
 H    2.0518819626    1.8123880258    1.9995345806
 H    1.0990433322   -2.7619470581    0.5706634370
 H    0.0080362333   -0.5365471589    2.2865841404
 H   -1.0350745803   -0.3651280791   -0.4604986539
 H    1.7572001660   -0.5967801414   -1.4236244794