17

 C   -0.3023359222    1.5232469484   -0.0391186243
 C    0.0868455925    0.0644860517   -0.0089362266
 C   -0.9822265376   -1.0211299821    0.2746782373
 O   -0.0842611037   -1.7566179460    1.1430707435
 C    0.9141992115   -0.7134592514    1.0709375477
 C    1.9921969549   -1.1175655891    0.0327200907
 O    2.3772869050   -2.4526275887   -0.0206573171
 C    1.0729368885   -0.4888446774   -1.0660943193
 O    1.0957987718   -0.4401075375   -2.2601881934
 H    0.5777320384    2.1737466668   -0.0251175257
 H   -0.8585616315    1.7447218710   -0.9562529648
 H   -0.9341274174    1.7857103474    0.8155547993
 H   -1.8427619131   -0.6361702880    0.8365406424
 H   -1.3373149767   -1.6177193055   -0.5721680759
 H    1.2102861441   -0.3328767488    2.0497185247
 H    2.8928948257   -0.4951728563    0.1283017038
 H    1.5767247699   -2.9624966245    0.1687764679