23

 C    0.1465856535    1.5270610779    0.0083406754
 C    0.0278385224    0.0005926141    0.0015588403
 C   -1.4255750295   -0.4838962380    0.0127469636
 C   -1.5479288718   -2.0071187982    0.0060169451
 C   -2.9840223539   -2.5147144320    0.0171085449
 O   -3.9326051380   -1.7605972961    0.0304333761
 C   -3.1652322356   -4.0244708596    0.0106107069
 C   -4.6237100459   -4.4567994130    0.0221345475
 O   -4.6399722690   -5.8774347143    0.0146132863
 H    1.1931536874    1.8471508691    0.0001467331
 H   -0.3435451712    1.9650344965   -0.8681518790
 H   -0.3269199035    1.9558915394    0.8983880587
 H    0.5406341101   -0.4029895817   -0.8820567927
 H    0.5571478074   -0.4120659249    0.8711335174
 H   -1.9453144691   -0.0864378876    0.8923082626
 H   -1.9617463832   -0.0773940968   -0.8527103063
 H   -1.0449631649   -2.4382960153   -0.8718011674
 H   -1.0284302763   -2.4472776049    0.8696444525
 H   -2.6584322704   -4.4429751122   -0.8689053195
 H   -2.6418760778   -4.4524160332    0.8757774706
 H   -5.1223270338   -4.0479468779    0.9122816597
 H   -5.1391111685   -4.0384165922   -0.8539187290
 H   -5.5577275184   -6.1639910491    0.0220377531