19

 C   -0.0036203918    1.5376396626   -0.0384875290
 C    1.5770988516    1.5852670281    0.0140218615
 C    1.5884968341    0.1506079760    0.6196284657
 C    1.6018615666   -0.3669156264    2.0530718175
 C    0.7885529012   -1.5175286858    1.4044312255
 O   -0.4729496056   -0.8696853645    1.0824983639
 C    0.1146748598    0.0181843418    0.1313304795
 C    0.5742473270   -0.9381997954   -1.0049945569
 C    1.6257434050   -1.3150574837    0.0441066668
 H   -0.4470207327    2.0070042079    0.8434483927
 H   -0.4996414583    1.9167304955   -0.9354608713
 H    2.0388957947    1.6573727563   -0.9737921577
 H    2.0081067285    2.3603626144    0.6506935528
 H    2.5982350624   -0.6864833339    2.3744897649
 H    1.0995232828    0.1945699624    2.8461644877
 H    0.6246523824   -2.4882082468    1.8701661073
 H   -0.1499668647   -1.6838351953   -1.3409865795
 H    1.0154735366   -0.4178469227   -1.8583333842
 H    2.5064235703   -1.9399707405   -0.1167647772