15

 O   -0.9090558310    1.2234323198    0.3949509187
 C    0.2104181151    0.8568243572    0.1211720690
 C    1.3770876117    1.7831750400    0.0591633727
 C    1.2207548451    3.1033842240    0.2430576585
 C    2.3938891837    4.0266052556    0.1824402019
 C    3.6611047974    3.2475945040    0.5198099580
 O    3.7746878080    2.0339813228   -0.2386380845
 C    2.6970020577    1.2139519850   -0.3262899887
 O    2.8308155059    0.0977888742   -0.7580498162
 H    0.4469420434   -0.1990790978   -0.1018373750
 H    0.2200051553    3.4895086380    0.4217828489
 H    2.4610624223    4.4695514064   -0.8218314068
 H    2.2748891931    4.8627590359    0.8801098377
 H    4.5641905037    3.8163395775    0.2915426679
 H    3.6707104288    2.9972294275    1.5882608479