19

 C   -0.1520500413   -1.1134533238    0.5005258303
 C   -0.0688928839    0.0370696900    0.1630862944
 C    0.0512505148    1.4391272194   -0.2379919625
 C    1.4705337736    1.9486111130   -0.2018095483
 C    2.1259916144    2.5424643373   -1.2043128984
 C    3.4744503531    3.0215620939   -0.7885675619
 C    3.4747450662    4.0812197440    0.2974381955
 C    3.5953633293    2.6285390120    0.6770894165
 C    2.3253595450    1.8676338927    1.0519569514
 H   -0.2328326630   -2.1307232164    0.7934959001
 H   -0.3599902567    1.5707703630   -1.2459182433
 H   -0.5789364733    2.0465490063    0.4291052378
 H    1.7241459125    2.7008469174   -2.1996464891
 H    4.3095918291    2.9736836365   -1.4786653205
 H    4.3663901740    4.6907598283    0.4040339819
 H    2.5429890218    4.6032231484    0.4931880578
 H    4.5420163399    2.2910436732    1.0817137792
 H    1.8151098486    2.3007705676    1.9230856593
 H    2.5361455160    0.8220354873    1.3101843300