19

 C   -0.0053122521    1.5081808128    0.0017701805
 C    1.4073689258    2.0611976752    0.0059640649
 N    1.6908502479    3.1563041521    0.9516430834
 C    2.2906726262    1.8171643565    1.1758096398
 C    1.8363910279    1.0720245552    2.3835398919
 C    1.0900281349   -0.0338262407    2.3844964292
 C    0.5679490106   -0.7353009466    1.1780201363
 N   -0.8985269538   -0.6802225330    0.9549757215
 C    0.0102665064   -0.0088013768    0.0077609013
 H   -0.5202806794    1.8565262623    0.8988394583
 H   -0.5669852019    1.8865219935   -0.8603773896
 H    1.9011750651    2.1037443972   -0.9640776173
 H    2.3902930671    3.7842946022    0.5631643169
 H    3.3587594705    1.7347470790    0.9715485372
 H    2.1618454273    1.4866475496    3.3363477507
 H    0.8280206223   -0.4896217460    3.3380573739
 H    1.0437565482   -1.6952580801    0.9745172806
 H   -1.2196010820   -1.5642592946    0.5678083137
 H    0.1547405691   -0.4838294178   -0.9618325732