13

 N    0.0283233600    1.0406716262    0.1524248481
 H   -0.0421896568    0.0303819697    0.1620020014
 H    0.6789286227    1.3277608878   -0.5700081090
 C   -1.2246584513    1.6341536526    0.0532028073
 N   -1.3788297205    2.9867443392    0.0470950089
 C   -2.7278874584    3.3152097460    0.0251611352
 C   -3.4418157769    2.1542293482    0.0202918353
 C   -2.4969057685    1.0707260085    0.0300661038
 C   -2.7422483914   -0.3177372690   -0.0001808995
 N   -2.9038769480   -1.4669155262   -0.0264706058
 H   -0.6217404157    3.6406254876    0.1495837351
 H   -3.0433574112    4.3447332053    0.0080550366
 H   -4.5148118540    2.0557228641   -0.0042676374