13

 O    0.0520900718    1.3214915528    0.1752243749
 C    0.0616169042   -0.0122396164    0.0188154696
 N    0.0636349010   -0.6786456037   -1.0903407463
 C    0.0748202517   -2.0310226783   -0.6978102408
 C    0.0808517719   -3.1409269898   -1.5641768779
 C    0.0862815353   -4.1332591157   -2.2510352672
 C    0.0788398356   -2.1009390879    0.6734148371
 O    0.0886591609   -3.1205774287    1.5491098417
 N    0.0704610921   -0.8064599022    1.1373256501
 H    0.0469798276    1.6973878953   -0.7145292594
 H    0.0906948907   -4.9918709294   -2.8750739968
 H    0.0934543026   -3.9390822744    1.0357292043
 H    0.0707359048   -0.5104430116    2.0989033109