12

 O    0.1149619282   -0.1303084817    0.1956934960
 C    0.0309669051    1.0308737344   -0.0529195533
 O   -1.1845401458    1.5372938940   -0.4550211650
 C   -1.4854859147    2.8083047500   -0.8169608666
 C   -0.6897008720    3.7768822518   -1.3034423302
 N    0.6610769909    3.7546023454   -1.5894632724
 C    1.5017739161    2.9630450580   -1.0414111253
 C    1.2587921495    1.9619505528    0.0399955840
 O    2.0638637422    1.7705950911    0.9170575839
 H   -2.5537273330    2.9713548027   -0.7358912465
 H   -1.1898162050    4.6977044280   -1.5855285590
 H    2.5498815086    3.0410602936   -1.3339635155