18

 C   -0.8462074525    1.2375528386    0.2570729132
 C   -0.1646118864   -0.1077314678    0.1021005929
 O    0.8532305142   -0.0875322999   -0.9173716466
 C    1.8710125841   -0.5285961752    0.0045689030
 C    0.8793909819   -0.5844852692    1.1793456010
 C    1.1328099280    0.3693178795    2.3322865715
 C    0.3763996132    0.0858431241    3.6162064914
 O    1.8818365622    1.3146974633    2.2243100136
 H   -0.1257311116    2.0179283256    0.5140069572
 H   -1.3249739104    1.5077689886   -0.6892309395
 H   -1.6224959960    1.1984586908    1.0295748836
 H   -0.9102782963   -0.8865628679   -0.1095969293
 H    2.3024813516   -1.4922138776   -0.2899151635
 H    2.6623776957    0.2170355975    0.1288870503
 H    0.6594911669   -1.5856587393    1.5556621167
 H    0.7323924596   -0.8544864108    4.0541475216
 H    0.5263730841    0.8980030905    4.3282451018
 H   -0.6928292982   -0.0461859308    3.4157624612