20

 C   -0.5259851179    0.9400609615   -0.2100316813
 O    0.3711053162   -0.1416160609    0.0090089075
 C    0.5925181176   -0.9321595932   -1.0587108675
 N    1.3476910219   -1.9365250659   -0.9444144844
 C    1.5855193008   -2.7369944036   -2.1073501287
 C    1.0787967766   -4.1622699449   -2.1427020905
 C    0.5378703975   -3.1377292350   -3.1195259744
 O   -0.7612978416   -2.6636955206   -2.9517383720
 C   -1.7424098477   -3.5493303926   -3.4547819893
 H   -0.1584960498    1.6161201336   -0.9918014307
 H   -1.5259842434    0.5827998757   -0.4836777076
 H   -0.5864385070    1.4854317755    0.7325906865
 H    0.0716126808   -0.6288007044   -1.9730602308
 H    2.5839425351   -2.5889800679   -2.5139518093
 H    1.7249705033   -4.9591358841   -2.4944715161
 H    0.4114431677   -4.4289752767   -1.3297637440
 H    0.8472847222   -3.2186537467   -4.1641814103
 H   -1.6216982472   -3.7137272808   -4.5362599839
 H   -1.7024801668   -4.5242540005   -2.9495406131
 H   -2.7164313784   -3.0887521186   -3.2733034900