17

 O   -0.5902039139    0.5986507708    0.6118532778
 C    0.1559835796    0.9047329944   -0.2823650819
 C    1.3373588583    1.8457287660   -0.1232458913
 C    1.3243384732    2.9461176658   -1.1589787705
 C    2.5138598954    3.9185729863   -1.4491527434
 C    1.7393419053    3.9049457087   -2.8009298719
 O    1.4560430066    2.4880541634   -2.5536226062
 C    0.4059256682    4.5660073490   -2.4001518489
 C    0.1187964329    3.9116035545   -1.2747920826
 H    0.0247188277    0.5051324792   -1.3103929513
 H    1.3247144273    2.2613418259    0.8885058425
 H    2.2564273415    1.2583114544   -0.2489992202
 H    2.5787131945    4.8521656053   -0.8872521407
 H    3.4739720797    3.3991927705   -1.5057648468
 H    2.1930856446    4.1152660259   -3.7676523028
 H   -0.1166792157    5.3573113110   -2.9165721513
 H   -0.7109071253    3.9958463288   -0.5881838903