18

 C   -0.0574703757    1.4677667801    0.0703612090
 C   -0.0070608029   -0.0182165989    0.0003201729
 C   -0.0284455707   -0.8577467365   -1.0388545290
 C    0.0545926224   -2.2493564801   -0.3757325344
 C   -0.9641939485   -2.0557599947    0.8097359623
 C    0.0879310226   -0.9688167548    1.2119166299
 C    1.1699437868   -1.9789952258    0.7029429417
 C    0.0551956399   -3.4280980350   -1.2113491306
 N    0.0564710372   -4.3787833135   -1.8697259346
 H    0.8327282509    1.8736553811    0.5674437261
 H   -0.1221866726    1.9114190678   -0.9267772934
 H   -0.9221366345    1.8101001831    0.6530077326
 H   -0.0880810173   -0.6715807827   -2.1008942071
 H   -1.9671464456   -1.7213224652    0.5398312892
 H   -0.9977234509   -2.9115485138    1.4896483258
 H    0.1224013759   -0.5373229137    2.2111199840
 H    1.3323335085   -2.8277738631    1.3730050311
 H    2.1144288245   -1.5745010044    0.3355975843