17

 N   -0.1073144363    1.3377274196   -0.0769356638
 C    0.0200909339   -0.0458930545    0.0036058590
 N   -1.0394439875   -0.8577980868   -0.0571281582
 N   -0.5118342461   -2.0739496661    0.1331940224
 N    0.7955756335   -2.1100649242    0.3006882515
 C    1.1675271000   -0.8276236585    0.2264666031
 C   -1.3409234032   -3.2452970807    0.1484137065
 C   -0.8204312656   -4.5369226552   -0.4178619408
 C   -1.0100869668   -4.3834106153    1.0732251750
 H    0.6532830975    1.7836971053   -0.5709951966
 H   -0.9971148882    1.6121602637   -0.4723149720
 H    2.1998366312   -0.5363664890    0.3342382015
 H   -2.3721693122   -2.9634603237   -0.0114135240
 H   -1.5101011933   -5.1578963219   -0.9783719113
 H    0.1982591869   -4.5229906546   -0.7864528319
 H   -0.1146588643   -4.2696166746    1.6723801044
 H   -1.8328494192   -4.8965377635    1.5581380651