19

 C    0.0904099586    1.3682282327   -0.8473780152
 N    0.1685522452   -0.0590014131   -1.0808797203
 C    0.9243550284   -0.8783128114   -0.3130061605
 O    1.5699023761   -0.5283988543    0.6600817735
 C    0.8726901153   -2.3658991042   -0.7172369455
 C    0.8970189752   -2.6379523760   -2.2155110985
 O    0.0992346836   -2.1132291328   -2.9856790852
 N    1.8528928539   -3.5078067963   -2.6297640296
 C    2.0195099036   -3.8929174213   -4.0188679893
 H    0.6206618341    1.5835904820    0.0810194861
 H    0.5557465726    1.9353579352   -1.6622807973
 H   -0.9512478593    1.6930705967   -0.7511101182
 H   -0.2421741899   -0.4703049652   -1.9116350575
 H    1.6860070654   -2.8595504026   -0.1832506354
 H   -0.0717084381   -2.7739018799   -0.3373261060
 H    2.4855301456   -3.8853151638   -1.9444274413
 H    2.9972337725   -3.5814479062   -4.4022062777
 H    1.9225040719   -4.9767524947   -4.1415886782
 H    1.2368265851   -3.3952895748   -4.5916287739