18

 C   -0.5535137044    1.3384111522    0.5240127714
 C    0.0093640010   -0.0013937392    0.1127257343
 C    1.4182285392   -0.1325032045   -0.3826545100
 C    1.0457824939   -0.7236849023    0.9730189678
 C    1.5430425422   -0.1366137732    2.1812544081
 C    1.9571029791    0.3433254614    3.2053681903
 C    2.4635748621    0.9217388030    4.4467894718
 C    1.4374725107    1.6464955426    5.2107788809
 N    0.6404089468    2.2204820431    5.8177719503
 H    0.2060018140    1.9537547013    1.0137528597
 H   -0.9231696419    1.8860838385   -0.3493997972
 H   -1.3856392817    1.2201344605    1.2255928069
 H   -0.7117820910   -0.6728857476   -0.3455868520
 H    1.6387623461   -0.8283563282   -1.1843287676
 H    2.0404992013    0.7555598005   -0.3695697314
 H    0.9542046605   -1.8054481892    1.0061169700
 H    2.8782895079    0.1378725762    5.0940754672
 H    3.2899595441    1.6161520948    4.2454672395