18

 C   -0.1506788957    1.5089633428   -0.0322917156
 C   -0.0401259902   -0.0116450027    0.0073921022
 C    1.1373835889   -0.5863963808   -0.8136176085
 C    1.2459663434   -2.0884341663   -0.5399477615
 C    2.3766363405   -1.8686840033    0.4357089932
 N    2.0977599715   -0.3738980602    0.3833858455
 C    0.7893057159   -0.5667471901    1.1857156890
 C    0.9898196554   -2.0763163497    0.9761236905
 O    0.3915915885   -3.1522558012    1.5891795306
 H    0.8256108078    1.9761087713    0.1279892093
 H   -0.5353325318    1.8489552731   -0.9998572349
 H   -0.8329226349    1.8737262720    0.7429679655
 H   -1.0124216109   -0.4891519604   -0.1532523901
 H    1.4251500432   -0.1806184889   -1.7850950476
 H    1.0075286424   -2.9529674150   -1.1458107106
 H    3.3422600541   -2.3351695159    0.5838526201
 H    0.7373918576   -0.1545396502    2.1957751003
 H    0.7451340845   -3.2278321647    2.4824537526