17

 N   -0.2017809513   -1.1357459857    0.0097819754
 C   -0.1166441055    0.0167448208    0.0473858010
 C    0.0074234717    1.4540752975    0.0427004042
 N    0.6437404287    2.0760932735    1.2257791192
 C    1.3436617845    2.1220864137   -0.0531618985
 C    2.6773557345    1.3859471189   -0.1784260883
 C    3.4186509641    2.2305864718   -1.2271833141
 O    2.9000576108    3.5506770314   -1.0763272082
 C    1.5094786741    3.4115968482   -0.8706511092
 H   -0.8356702411    1.9635897464   -0.4188541962
 H    0.1798436141    2.9593042353    1.4291693190
 H    3.1889475100    1.4154537397    0.7868364433
 H    2.5597787787    0.3402709941   -0.4714437953
 H    4.4985056826    2.2776274047   -1.0748868286
 H    3.2241693782    1.8563532921   -2.2449162339
 H    0.9747784383    3.3282908430   -1.8317982834
 H    1.1450508175    4.3021151644   -0.3478451463