19

 O   -0.0701048346    1.4800031044   -0.0397546685
 C    0.0434323892    0.0561881700    0.0067231137
 C    0.6698280389   -0.4478991054    1.3156080537
 C   -0.1283202492   -1.2761080189    2.0022263216
 C   -1.4298732549   -1.4493995341    1.3045404801
 C   -2.2923882471   -0.2251545158    1.1201317881
 C   -1.3260986367   -0.5971817203    0.0337111873
 C   -1.8478598166   -1.7733598851   -0.8120564613
 C   -1.9664148358   -2.6441895921    0.4865393644
 H    0.8174029898    1.8491356557    0.0169245761
 H    0.6198127119   -0.2942595612   -0.8656628322
 H    1.6429484073   -0.0984677549    1.6520294764
 H    0.1225555083   -1.7275217671    2.9574074916
 H   -3.3580974171   -0.3442493462    0.9386798067
 H   -2.0249566700    0.6415337621    1.7118720221
 H   -2.7694732758   -1.5901524107   -1.3744328174
 H   -1.0952245844   -2.1612899676   -1.5030021922
 H   -1.2871658547   -3.4988763133    0.4823561259
 H   -2.9666978185   -2.9964304394    0.7569877438