14

 N   -0.0734192934    1.3029497166    0.2350379232
 C   -0.0516298470    0.0713542210   -0.0290242226
 C   -1.2806274960   -0.7910239837   -0.0431472111
 C   -1.2251992478   -1.7485164121   -1.2309550775
 N    0.0575238999   -2.4298740088   -1.1965769543
 C    1.2334294750   -1.8614870104   -0.8112715177
 O    2.3124883023   -2.3806695282   -0.8913912084
 O    1.1410838734   -0.5779267050   -0.2948879733
 H    0.8715600160    1.6916730896    0.2085487082
 H   -1.3125171189   -1.3737491549    0.8854233111
 H   -2.1578060341   -0.1455221316   -0.0761080620
 H   -2.0208793379   -2.4947605313   -1.1616933010
 H   -1.3657133048   -1.1987679961   -2.1725799504
 H    0.1698586933   -3.3176480551   -1.6585811040