18

 C   -0.0636341704    1.4848728102   -0.0050656765
 N    0.0208348185    0.0279195245    0.0209059851
 C    1.3631843843   -0.5222031735   -0.2009456158
 C    0.7673908945   -0.5326159951    1.1532542016
 C    0.6022604855   -2.0693830840    1.4260488219
 O    1.7962973960   -2.5615334371    0.7821393234
 C    1.4614304909   -2.0543716260   -0.5267561215
 C    0.0537153034   -2.6112440032   -0.7122208135
 C   -0.4824474506   -2.6206014248    0.5064100840
 H    0.8311931038    1.9928219246    0.3926442539
 H   -0.2143344149    1.8149680919   -1.0376120561
 H   -0.9286375952    1.8024952468    0.5854514289
 H    2.1772078489    0.1399959721   -0.4765790536
 H    1.1104501205    0.1213535100    1.9480811200
 H    0.5872940144   -2.3549146790    2.4765117309
 H    2.2273294366   -2.3262601350   -1.2511178288
 H   -0.4163491057   -2.8271801134   -1.6609070606
 H   -1.4981932604   -2.8460643390    0.7979945067