17

 C   -0.0136927426    1.5016432832   -0.0277875271
 O    1.1595426769    0.6656031393   -0.0205930220
 C   -0.1182294446    0.0477165848    0.0127769329
 C   -0.4790046615   -0.9396492401    1.1283153291
 C   -2.0190477730   -1.0997288209    1.2797276575
 C   -2.0517175663   -1.9066438702   -0.0398464407
 O   -1.9451051390   -1.0490907108   -1.2016076415
 C   -0.5077791118   -0.9698524403   -1.0646257011
 C   -0.5078475936   -2.0804928280    0.0289247737
 H   -0.1727020912    2.0815350765    0.8804769822
 H   -0.2011055512    2.0338342571   -0.9592675843
 H    0.1503839899   -0.9366985574    2.0172468888
 H   -2.2534308040   -1.7504317746    2.1287883423
 H   -2.6357728557   -0.1984050238    1.3292716547
 H   -2.8013045951   -2.6871000512   -0.1797835354
 H    0.0195885565   -0.9659927983   -2.0203618595
 H    0.0642195062   -3.0031280053    0.0256248406