20

 C   -0.3176337483    1.2281478128   -0.0879023351
 O    0.3445243668   -0.0051440539    0.1435091097
 C    0.8753339235   -0.5561009909   -1.0255288162
 C    1.3148982963   -1.9947206515   -0.9634834930
 C    1.2617296198   -2.7874192347    0.3230606731
 C    0.0525951514   -1.6125905895   -1.7294846314
 N   -1.2356042347   -1.8972917237   -1.1771953652
 C   -2.1460463859   -2.6939553313   -1.7956817890
 O   -1.9744364681   -3.2615698477   -2.8538697787
 H    0.3749032625    1.9797644316   -0.4930411815
 H   -1.1572216424    1.1163001564   -0.7877655556
 H   -0.6933898735    1.5755994186    0.8770666089
 H    1.4513773303    0.1489053258   -1.6254182650
 H    2.1648586914   -2.2284143311   -1.5995457208
 H    0.4308666610   -2.4767779781    0.9585168415
 H    1.1488958347   -3.8556018069    0.1123992054
 H    2.1832738162   -2.6503234308    0.8975632894
 H    0.0600907808   -1.6842589317   -2.8100960941
 H   -1.4737917316   -1.4558193193   -0.3025798694
 H   -3.0886841902   -2.7598428841   -1.2160735031