14

 O    0.3152184304    0.8284150627   -0.8882801755
 C   -0.0878910790    0.1904784122    0.2915800544
 C   -1.4472417619   -0.4559804190    0.1922853292
 N   -1.9229240746   -1.0923008936    1.2669953018
 C   -3.1270956833   -1.6323763783    1.0902195764
 N   -3.8642019664   -1.5930125544   -0.0188021532
 C   -3.2850578462   -0.9332012453   -1.0164556214
 O   -3.9706466193   -0.8575244806   -2.1532829833
 N   -2.0834802754   -0.3452573695   -0.9730858012
 H   -0.4034278855    0.7026864261   -1.5234246132
 H    0.6296724852   -0.5923824097    0.5818486619
 H   -0.1205542346    0.9000311091    1.1327390089
 H   -3.5577459499   -2.1618623423    1.9371178476
 H   -3.4310158494   -0.3548428575   -2.7796139125