21

 C   -0.1283005977    1.6035303082    0.0664112295
 C    0.0293522216    0.0759008901    0.0277222469
 C    0.7657650374   -0.4455520637   -1.1947896874
 C    1.7531664312   -1.2849095873   -0.8788988470
 C    1.8970547995   -1.4438369309    0.6023685643
 C    2.2431042680   -2.7860453229    1.1820537553
 O    3.5689443613   -3.1158690065    0.7790070279
 C    2.3052090468   -0.1683322824    1.3141689666
 C    0.8420381989   -0.5178278166    1.1863213497
 H    0.8457736428    2.1019451971    0.0680842037
 H   -0.6875384480    1.9617165901   -0.8045470775
 H   -0.6704422272    1.9183464048    0.9639507072
 H   -0.9825774616   -0.3572584983    0.0483200732
 H    0.5054229700   -0.1307474199   -2.2001226609
 H    2.4138238960   -1.7888645595   -1.5745774044
 H    2.1590200960   -2.7462382782    2.2802009374
 H    1.5272611543   -3.5430987087    0.8236075453
 H    3.7399013608   -4.0272716276    1.0345413759
 H    2.7424737317   -0.2692011976    2.3029161472
 H    2.7221103427    0.6342257044    0.7157769116
 H    0.3161110455   -0.7885042846    2.0956350355