20

 O   -0.6114625293    0.7860873555    0.8651280324
 C    0.0340671313    1.0332550811   -0.1206333119
 C    1.3312811127    1.8058466523   -0.1429381774
 C    1.2513756589    3.0363267082   -1.0661839504
 C    2.5846111185    3.7598179345   -1.2040051353
 C    3.7530955974    3.0670811329   -1.9655937202
 C    4.1168402871    4.4461388069   -2.5795237036
 C    2.6952224940    4.9445839762   -2.2054439667
 H   -0.3112166317    0.6966871480   -1.1279544897
 H    1.5897763906    2.0872850224    0.8822061489
 H    2.1127403805    1.1294616966   -0.5195212346
 H    0.9065465799    2.7233955557   -2.0616976954
 H    0.4933141441    3.7304581874   -0.6805122636
 H    2.9313003297    4.0805860557   -0.2140815036
 H    4.5163643710    2.5496713359   -1.3792508642
 H    3.3731475107    2.3769183809   -2.7273298521
 H    4.8903281452    4.9558106942   -1.9980326738
 H    4.4036508271    4.4720195166   -3.6331008543
 H    1.9942831368    4.8239774934   -3.0384585931
 H    2.5916045256    5.9581358754   -1.8103263513