18

 C   -0.0313335431    1.5694111661   -0.0697899985
 C   -0.0590768987    0.0698456929    0.0917260093
 N    1.2118084812   -0.6426324998   -0.1284934439
 C    0.6331337519   -0.6195127228    1.2091107293
 C    1.3256656491   -0.1298872857    2.4749684952
 C    0.3038900592    0.0005830185    3.5480742489
 C    0.8264829298   -1.3960225378    3.2390643165
 C    0.2436487791   -1.8949572469    1.9463998936
 O   -0.1510123407   -2.9594670549    1.5534887152
 H    0.8978813745    1.9836052857    0.3301472786
 H   -0.0966282843    1.8450364877   -1.1275091126
 H   -0.8738099435    2.0334290395    0.4536918627
 H   -0.9615814246   -0.4252508342   -0.2658789085
 H    1.0456019539   -1.5595353224   -0.5423575032
 H    2.3187278243    0.2947410943    2.5176423994
 H    0.6447909792    0.3912498451    4.5014785815
 H   -0.7187121897    0.2670018315    3.2962846789
 H    1.3220977825   -1.9946987368    3.9919064878