13

 C    0.0639834685    1.3558962913   -0.1411897470
 C    1.5389084530    1.8579430830    0.1401987833
 C    2.0979054012    0.5490118257    0.5665875211
 C    1.1470132354   -0.3865586080    0.7012204340
 O   -0.1098140519   -0.0025145252    0.3836965967
 N    1.6547368986   -1.5611164869    1.1881551456
 C    2.9175062846   -1.2664857889    1.3336520065
 O    3.2778236056    0.0019318215    0.9873466339
 H   -0.6910460079    1.9852854911    0.3320083836
 H   -0.1268706886    1.3136876522   -1.2171284087
 H    1.9802723168    2.2891130828   -0.7641117573
 H    1.5699404845    2.6265431717    0.9228170871
 H    3.7092785401   -1.9090675604    1.6837094710