19

 C   -0.0831374371    1.5977036961    0.0559156676
 C   -0.0255058976    0.0893149036    0.0150458009
 C    1.0397525699   -0.7083798731   -0.9333965141
 C    0.6560156527   -1.8736335945    0.0737186183
 C    1.0380131353   -2.7935502474    1.2621392828
 O    0.4123412446   -1.8019937088    2.1694162545
 C    0.6920131109   -0.8093299577    1.1247018264
 C   -0.8528466722   -1.9845985704   -0.2175935159
 C   -1.2824822654   -0.7262433768   -0.2703037908
 H    0.8882431090    2.0263987678    0.3223143513
 H   -0.3738501574    2.0081545989   -0.9176379609
 H   -0.8169836897    1.9398873886    0.7938591201
 H    0.7352664226   -0.8244906857   -1.9757554630
 H    2.0658000568   -0.3378458222   -0.8567401815
 H    0.5407660056   -3.7653529921    1.3333503855
 H    2.1099142370   -2.8860814445    1.4722737892
 H    1.6828433858   -0.3858552242    1.3400422148
 H   -1.3840047797   -2.9168627121   -0.3536974499
 H   -2.2683743611   -0.3239396557   -0.4569804053