12

 O   -0.0173818506   -0.0044713849    0.0040152984
 C    0.0236120666    1.1885599378    0.0095119168
 O   -1.1000724194    1.9754698842    0.0272885553
 C   -0.7389965288    3.3526918223    0.0298593007
 C    0.7563716314    3.3686979439    0.0116548657
 C    1.2116786548    2.1080857492   -0.0003102295
 C    2.5386608693    1.6282511761   -0.0189612474
 C    3.6626529759    1.1993121709   -0.0348654449
 H   -1.1777507716    3.8429123887   -0.8490558581
 H   -1.1560793508    3.8339180192    0.9241589918
 H    1.3448035395    4.2760707694    0.0090733073
 H    4.6522806635    0.8135482632   -0.0488928761