21

 O   -0.0623754757    1.3002802411   -0.5065269071
 C   -0.0020033027   -0.0217490886    0.0100283198
 C   -1.3752726044   -0.6575109195   -0.1564569316
 C   -1.4315643170   -2.0920421814    0.3830747162
 C   -2.8072934811   -2.7136714173    0.2588158910
 C   -3.3206820079   -3.2537687868   -1.0558188642
 O   -2.4003836316   -3.2468868390   -2.1238442316
 C   -2.9914376608   -4.2109753930    0.0669180713
 O   -1.8791920415   -5.0353020163   -0.1061098532
 H    0.8063880208    1.7002899135   -0.4082758684
 H    0.7523951506   -0.6237056283   -0.5232653197
 H    0.2810854271   -0.0192743285    1.0760743415
 H   -2.1125215918   -0.0282587184    0.3575917872
 H   -1.6405447515   -0.6527071870   -1.2190581268
 H   -0.6974005214   -2.7128165719   -0.1385814570
 H   -1.1398159911   -2.1052609659    1.4415981995
 H   -3.5731137450   -2.2305620366    0.8620143147
 H   -4.3518331847   -3.0597098101   -1.3431193094
 H   -2.7414727031   -3.8323324345   -2.8088904867
 H   -3.7891273013   -4.7162698862    0.6032375900
 H   -1.4988039160   -4.7901909351   -0.9612519954