19

 C    0.4508232097    1.4532322651   -0.3506205252
 C    0.0928415594    0.0409756868    0.0639421665
 O    0.5968953270   -0.9673067814   -0.8558680603
 C    1.3159096202   -1.6430407366    0.1903799031
 C    2.8284349759   -1.4841329221    0.1399264013
 O    3.2456676825   -0.1538522245   -0.1865409250
 C    3.2483933991   -0.5347774415    1.1897597684
 C    2.0420821270   -0.0202807859    1.9598314633
 C    0.8119881645   -0.6444960179    1.2641502870
 H    1.5309073313    1.5652250361   -0.4554820291
 H   -0.0168831976    1.6821200262   -1.3135604375
 H    0.0759562087    2.1743830904    0.3849287271
 H   -0.9988085479   -0.0554513138    0.1427369574
 H    1.0259832914   -2.6968239273    0.2775837734
 H    3.4694165718   -2.2761244089   -0.2387763540
 H    4.2289937247   -0.5728140361    1.6595566288
 H    2.1034745573   -0.3523175761    3.0020780780
 H    2.0180969441    1.0742418764    1.9721024661
 H    0.1080197609   -1.0524913788    1.9902123607