18

 C   -0.2076522374    1.4994759841    0.0472339008
 C    0.0272043831    0.0033154820    0.0068997862
 O   -1.1968851673   -0.7275766227    0.3302652129
 C   -0.4972623889   -1.5409403908    1.2940343256
 C    0.8059047637   -0.7283134413    1.1415362638
 C    2.0109072380   -1.4360230203    0.4986487742
 C    1.7394249995   -1.2889058025   -0.9835133072
 C    0.6868636533   -0.5152923894   -1.2480332980
 H    0.7277361346    2.0441932356   -0.1181325579
 H   -0.9163130656    1.7929429443   -0.7348693708
 H   -0.6264700324    1.7976585224    1.0126043653
 H   -0.9815873035   -1.5068002338    2.2768135310
 H   -0.4183853407   -2.5885193977    0.9723272147
 H    1.0600379432   -0.1239810184    2.0131985677
 H    2.9640198986   -0.9679085144    0.7785224249
 H    2.0883659607   -2.4879734148    0.8031223889
 H    2.3584117465   -1.7721585469   -1.7326904806
 H    0.3135434345   -0.2721643655   -2.2370187515