16

 C   -0.0966311955    1.5464255221   -0.0287192805
 C    0.0482636142    0.0459921758    0.0629797742
 O    0.2138309659   -0.5417223654    1.1014582330
 C    0.0395129856   -0.7408430836   -1.2707986732
 C    1.4994057062   -0.9805387921   -1.8057974019
 O    1.4226549942   -2.3773938470   -1.5233345975
 C    0.0487485284   -2.2853873777   -1.1033876886
 C   -0.8944760128   -0.1992368697   -2.2400158355
 N   -1.6424106243    0.2369040495   -3.0068451221
 H    0.5856956927    1.9600533122   -0.7793483078
 H   -1.1104489573    1.8002671011   -0.3566360585
 H    0.0987443247    1.9925603648    0.9463203473
 H    1.6185957846   -0.7645718557   -2.8733249128
 H    2.2869355207   -0.4766768557   -1.2333847979
 H   -0.0909371134   -2.6041482218   -0.0678619045
 H   -0.6293769238   -2.8185627369   -1.7768968635