19

 C    0.0313897660   -1.2176804128    0.0469184784
 C    0.0042954060   -0.0159932653    0.0128285105
 C   -0.0151677921    1.4397868296    0.0079083652
 C   -0.7598183838    1.9878753907    1.2425733455
 O   -0.9458316728    3.3872632840    1.1537627921
 C    0.1990818421    4.1453491200    0.8841976623
 C    1.4691235435    4.0228131252    1.6769598286
 C    1.4150735395    3.5351641176    0.2334212208
 C    1.4149445106    2.0355781740   -0.0515734578
 H    0.0489557662   -2.2792165917    0.0626043562
 H   -0.5744434599    1.7894983709   -0.8701700650
 H   -1.7617978571    1.5580988121    1.3075548414
 H   -0.2150241290    1.7080698227    2.1575534236
 H   -0.1091430663    5.1379745578    0.5743189000
 H    2.0186719399    4.9296091379    1.9047007342
 H    1.5276019932    3.2622023663    2.4488434587
 H    1.9258759137    4.1474615925   -0.5025479316
 H    2.0468154973    1.5017984701    0.6666162575
 H    1.8388197730    1.8402366282   -1.0402814007