18

 C   -0.1485889857    1.5859822051    0.0080760782
 C    0.0228991780    0.0627677166   -0.0070221523
 O   -1.2723038397   -0.5607168062    0.0331290758
 C    0.8431653612   -0.4466545175   -1.1841524642
 C    1.8094639572   -1.2853676238   -0.8034445376
 C    1.8723227203   -1.4177317290    0.6797251405
 C    2.2190860199   -0.1318147734    1.4114491902
 C    0.7784143929   -0.5060946709    1.1969417505
 H    0.8144914679    2.1021347580    0.0467859548
 H   -0.6701158277    1.9223239427   -0.8964986103
 H   -0.7452356754    1.8857128136    0.8742830191
 H   -1.7422105577   -0.3113085107   -0.7699251483
 H    0.6426717383   -0.1292667563   -2.2027604480
 H    2.5064520817   -1.7848163971   -1.4677742316
 H    2.1111609382   -2.3695252676    1.1401659294
 H    2.5991663160   -0.2158340869    2.4247787092
 H    2.6568915995    0.6735052433    0.8307068820
 H    0.1731678951   -0.7792414998    2.0525208127