17

 C   -0.0312624588    1.5318127576    0.0363232722
 C   -0.0512304250    0.0112554703   -0.0767477789
 N    0.8437420498   -0.4356127607   -1.1366427004
 C    0.8958935116   -1.8063337707   -1.4092453751
 C    1.4224261150   -2.4257224068   -2.5310866843
 N    1.2988392690   -3.7651052441   -2.3161061511
 N    0.7344100905   -4.0663940179   -1.1425536214
 C    0.4817826431   -2.8817253307   -0.5828430071
 H    0.9836473952    1.8934108824    0.2255408752
 H   -0.3927389461    2.0011255456   -0.8864417361
 H   -0.6784005454    1.8663164590    0.8517811455
 H    0.2934566691   -0.4298608108    0.8664528584
 H   -1.0863426828   -0.3422426496   -0.2278834336
 H    0.7387048390    0.1207836405   -1.9749353381
 H    1.8632554096   -2.0269910126   -3.4304363115
 H    1.5764750817   -4.5101846033   -2.9308688106
 H    0.0161035044   -2.8395443683    0.3895580570