22

 C   -0.1303933240    1.5590903431   -0.0108101571
 C    0.0403211937    0.0568320256    0.0317373296
 C    1.3171481613   -0.6700498091   -0.3324103390
 C    2.6379492585    0.0996037675   -0.3545783937
 C    3.1177084189    0.1448621234    1.1210664177
 C    4.0324247605    1.3209038004    1.4585202788
 C    1.8173804454    0.0720237581    1.9658064572
 C    0.8098554974   -0.6870885898    1.1020879773
 H    0.7618167061    2.1012198796    0.3112775511
 H   -0.3647641869    1.8942611049   -1.0276059304
 H   -0.9544666173    1.8744541105    0.6392593416
 H   -0.8558235669   -0.4697306738   -0.2914231633
 H    1.2312291911   -1.5506831878   -0.9599929862
 H    3.3727388604   -0.3939202948   -0.9978881303
 H    2.5149860674    1.1152655129   -0.7515870074
 H    3.6689994490   -0.7870678391    1.3049440941
 H    3.5217287969    2.2767366940    1.2892699806
 H    4.3477099834    1.2955626440    2.5073549746
 H    4.9370957965    1.3153614632    0.8407494554
 H    1.9881556193   -0.4404704351    2.9173919632
 H    1.4646222919    1.0799609061    2.2186482944
 H    0.3551169274   -1.5801082438    1.5174024317