19

 C   -0.3596474186    1.3883786798   -0.2087978262
 C    0.2208444919    0.0039867898    0.1128142814
 C    0.8766938375   -0.6334415732   -1.0930884434
 C    0.9337348197   -2.0931032515   -1.3679362455
 C    0.0146897761   -3.0640763746   -0.6235479819
 N   -1.2901379920   -2.6210148809   -1.0718510448
 C   -1.2695223385   -1.5133569590   -1.8849985910
 O   -2.2254613552   -0.8917048693   -2.2768443034
 N    0.1013946000   -1.2216974500   -2.2235003707
 H    0.4152961222    2.0597932037   -0.5939677883
 H   -1.1458997593    1.3094250434   -0.9640746294
 H   -0.7862587856    1.8485511413    0.6872553804
 H    0.9851237324    0.0898897353    0.8960131253
 H   -0.5650258703   -0.6404770765    0.5185448423
 H    1.7176766817   -0.0541994364   -1.4727169270
 H    1.8192008980   -2.5132790052   -1.8346297664
 H    0.2233171214   -4.0960701294   -0.9295332083
 H    0.1223622201   -3.0099255132    0.4682477702
 H   -2.1609792614   -2.9424056839   -0.6823074631