19

 C    0.0918429608    1.5020217168   -0.2112506693
 C   -0.0369718674    0.0139252049    0.1410594409
 C   -1.4595586550   -0.4678854925    0.0850627545
 C   -2.5458264159   -0.1750236980    1.1249051877
 C   -2.9670622802   -1.6571682443    0.9572172313
 N   -1.8497684974   -1.9272871913   -0.0226765225
 C   -2.0625005221   -1.0012610449   -1.1718495667
 C   -3.3764656741   -0.6304357905   -1.6289384949
 N   -4.4333062033   -0.3314613706   -1.9933986966
 H    1.1336690170    1.8276091346   -0.1459593224
 H   -0.2613017815    1.7002283827   -1.2282767175
 H   -0.4955713851    2.1244083375    0.4716645529
 H    0.5704384283   -0.5932835404   -0.5398226842
 H    0.3546808294   -0.1665100635    1.1500507869
 H   -2.1293241932    0.0411984616    2.1105726221
 H   -3.2765197205    0.5956336068    0.8691496864
 H   -2.8077064185   -2.2673375593    1.8469066579
 H   -3.9640331535   -1.8542053947    0.5560629634
 H   -1.3673845577   -1.2115366050   -1.9795009300