14

 N    0.0885368923    1.2960966138    0.2363537237
 C    0.0636185832    0.0592681617   -0.0087424255
 O    1.1217637995   -0.7000360883   -0.4232954925
 C    0.6921718401   -1.9966739088   -0.8804127319
 C   -0.7539988310   -2.1253027071   -0.4522718801
 O   -0.9258886061   -1.9491478248    0.9374382732
 C   -1.1502759343   -0.8050897449    0.0861750249
 C   -2.5449600005   -0.2563755988    0.0325937177
 O   -3.5185425828   -0.9501947467    0.1678399375
 H    1.0146945860    1.6890260507    0.0596476877
 H    0.7908571777   -2.0471974222   -1.9706136524
 H    1.3360203365   -2.7517052901   -0.4208158344
 H   -1.4546373293   -2.7840648220   -0.9562403530
 H   -2.6003265412    0.8336909475   -0.1489037050