19

 O   -0.6384444946    0.6216210731    0.5385331374
 C    0.1614455544    0.9139844177   -0.3129205707
 C    1.3303787273    1.8497252462   -0.1270480446
 C    1.3000917882    3.0115652606   -1.1341500357
 C    2.5776762026    3.8617866123   -1.0752832079
 O    3.7233267151    3.0456639164   -1.3445811542
 C    4.4677906990    3.5706152773   -2.4418108481
 C    3.6991178674    4.7803659019   -2.8919358964
 C    2.6381706157    4.9515330211   -2.1128686601
 H    0.0772332458    0.4916512300   -1.3432231085
 H    1.3330971868    2.2100565426    0.9060270869
 H    2.2532634685    1.2797622171   -0.2990403881
 H    1.1897314443    2.6233047022   -2.1542152664
 H    0.4351037904    3.6570837883   -0.9372224012
 H    2.6726529233    4.2747815604   -0.0561165731
 H    5.4890752229    3.8218545919   -2.1141948044
 H    4.5609092471    2.8087508166   -3.2311284015
 H    4.0026116178    5.3983685793   -3.7273409385
 H    1.8980604177    5.7387107647   -2.1799489948