17

 C   -0.1038743778    1.4237282058   -0.0237198455
 N    0.1893822948    0.0017014493   -0.0453341041
 C    0.0541338163   -0.7187109988    1.2076054618
 C    0.0219885239   -0.6998840996   -1.2025811777
 N   -0.1171642463   -2.0134850804   -1.2226515530
 O   -0.1730355840   -2.2874527731   -2.6308606485
 C   -0.0894744523   -1.1052990782   -3.2346242452
 N   -0.1852581534   -1.0824776004   -4.5907253326
 N    0.0323361360   -0.0823265368   -2.4367634524
 H    0.5315930523    1.9121443253    0.7223117376
 H    0.1027452107    1.8502532156   -1.0041773730
 H   -1.1546485578    1.6290540318    0.2345803179
 H   -0.9976276925   -0.8735445723    1.4924083582
 H    0.5293321851   -1.6968779506    1.1187348003
 H    0.5483718409   -0.1488592734    1.9998384723
 H    0.0316605039   -1.9437082165   -5.0667110975
 H    0.1585327102   -0.2432645277   -5.0290349389