20

 C   -0.6202193181    1.4606134422    0.1286044751
 C   -0.0726400813    0.0481276565    0.0321024821
 C    0.9719825763   -0.3936466697   -1.0312731371
 C    1.7796816307   -0.9631644988    0.1462150558
 C    2.3834702431   -2.3369960566    0.1774725023
 C    2.1648435674    0.1018891523    1.1177570783
 C    2.5902534937    1.4772361002    0.7398269667
 O    3.3777499891    2.1108040486    1.4027771611
 N    0.7794536133   -0.4752923702    1.1654047227
 H    0.1534854375    2.2311456350    0.1102694734
 H   -1.3025931455    1.6536820665   -0.7063824814
 H   -1.1859657564    1.5759093643    1.0587731177
 H   -0.9240628401   -0.6392641518   -0.0011971377
 H    0.5996300234   -1.1665659234   -1.7067641726
 H    1.4528495708    0.3807891234   -1.6335541610
 H    3.2835699125   -2.3795625754   -0.4463009730
 H    2.6605777232   -2.6165921083    1.1974408989
 H    1.6756887088   -3.0825036912   -0.2011882318
 H    2.7207199641   -0.2415142704    1.9864717369
 H    2.1965732675    1.8890191167   -0.2096643462