16

 O   -0.0270933703    0.0434141416    0.0491733036
 C   -0.0418930816    1.2444133464   -0.0026297433
 C   -1.2733192681    2.1758363474   -0.0486685947
 N   -0.6782695444    3.4687671075   -0.3181162906
 C   -1.0976956615    4.7913853978    0.1412455262
 C    0.2715562655    5.5405621960    0.0752524087
 N    1.3187043747    4.4953035247    0.1830889879
 C    0.6843501683    3.4164590804   -0.0423668402
 N    1.0622053034    2.0878995124   -0.0072251479
 H   -1.9736888182    1.8445006809   -0.8206678753
 H   -1.7880680142    2.1262327679    0.9245669629
 H   -1.8617286652    5.2287649065   -0.5057839315
 H   -1.4911212938    4.7487460366    1.1697006411
 H    0.3759233255    6.0731304532   -0.8787711342
 H    0.3811310541    6.2750026534    0.8768190903
 H    2.0103161057    1.7675509673    0.1049088568