18

 C   -0.0472868344    1.4305954893    0.2415633899
 C    0.0102538398   -0.0166877338    0.0905835304
 C    0.0784667403   -1.2122007845   -0.0387890028
 C    0.1085070925   -2.6636281229   -0.1856356071
 C   -1.3000372076   -3.2729864835   -0.2063941929
 C   -1.4006175762   -4.8167127766   -0.0251104576
 C   -2.1684579219   -4.4989654472    1.2846837790
 O   -2.6837644947   -5.1331325426    2.1644789292
 N   -2.0427184355   -3.1504658125    1.0511371793
 H    0.6448511228    1.9288431363   -0.4460941610
 H   -1.0523124397    1.8137524120    0.0331050487
 H    0.2193100247    1.7364975373    1.2591764367
 H    0.6244778458   -2.9410793281   -1.1143553691
 H    0.6764724236   -3.1146737260    0.6384943353
 H   -1.8562010429   -2.8872102133   -1.0676248447
 H   -1.9906612050   -5.3452698427   -0.7752711101
 H   -0.4491348443   -5.3310729093    0.1254200656
 H   -2.3371538973   -2.3397925317    1.5752783013