24

 C   -0.0727369456    1.3761669339   -0.3505303430
 C   -0.2893686176    0.0459132061    0.3748638928
 C   -1.3703632674   -0.7984753582   -0.2821605408
 O   -1.4987255979   -2.0109102862    0.4607179419
 C   -2.4257762552   -2.8844478606    0.0087259527
 N   -2.6022511952   -3.9762587831    0.6051339235
 C   -3.5924063578   -4.9301751914    0.1379403581
 C   -4.4346251637   -4.5991653717   -1.1018497553
 C   -5.4176546444   -5.7260528603   -1.4330925728
 H    0.7077401104    1.9647626024    0.1393685510
 H    0.2334613036    1.2200729452   -1.3908455440
 H   -0.9865700262    1.9804710583   -0.3607562608
 H    0.6400007646   -0.5339725257    0.3958457368
 H   -0.5716959602    0.2212179108    1.4188922970
 H   -2.3289401447   -0.2590222086   -0.2909918546
 H   -1.1036870854   -1.0226290098   -1.3255185871
 H   -2.9630921875   -2.5365739021   -0.8830308754
 H   -3.0663873170   -5.8802191741   -0.0339933146
 H   -4.2676382482   -5.1309758558    0.9820860932
 H   -4.9900673534   -3.6667812497   -0.9370355160
 H   -3.7770415611   -4.4233550699   -1.9630668557
 H   -6.0160434142   -5.4864554683   -2.3172078545
 H   -4.8905348735   -6.6655139461   -1.6326613889
 H   -6.1087734923   -5.9056888250   -0.6022160734