21

 C    0.1465195178    1.6438480705    0.0423755804
 C   -0.2558682358    0.1775302342   -0.1506420506
 C    0.6075179982   -0.5072195110   -1.1952716135
 O    2.0037365422   -0.5672976837   -0.8093854237
 C    2.0812930858   -1.9716330328   -1.1116041190
 C    0.5625006415   -2.0516204974   -1.3928926555
 C   -0.2792699030   -2.8780918456   -0.4134440628
 C   -0.0979473064   -4.3623771131   -0.6436498133
 O   -0.9918025595   -5.1396736804   -0.8582171041
 H    1.1972949105    1.7151452531    0.3365022549
 H    0.0169028353    2.2148768126   -0.8835381094
 H   -0.4599122381    2.1200378984    0.8180663641
 H   -0.1703402734   -0.3560582580    0.8024666549
 H   -1.3057114532    0.1099266157   -0.4648078185
 H    0.5054774136    0.0251692169   -2.1535251158
 H    2.7253235577   -2.1730181080   -1.9772059718
 H    2.4497758911   -2.5529687699   -0.2563994956
 H    0.3163333113   -2.3412440395   -2.4177000238
 H    0.0353691788   -2.6612088312    0.6168278996
 H   -1.3445908471   -2.6465285100   -0.5014066873
 H    0.9613314626   -4.7103947009   -0.6075672395