17

 C   -0.0099576149    1.5638464154    0.0304086150
 C   -0.0117235880    0.0554412180    0.0591214468
 C    1.2387533864   -0.7492815864   -0.3071186756
 C    0.6792519273   -0.7661003889    1.1094150956
 O    1.4178996787   -0.2404915149    2.1542174703
 C   -0.2549070663   -1.9014434405    1.4557648490
 O   -0.0819101947   -2.6413604029    2.4007746304
 C   -1.3883607537   -1.8299081262    0.5019824160
 C   -1.2630561078   -0.7202444423   -0.2438865290
 H    0.9501174559    1.9512401109    0.3804536637
 H   -0.1832821205    1.9424347708   -0.9830019079
 H   -0.7895851643    1.9705801459    0.6825652964
 H    1.1431658838   -1.6163949788   -0.9520670953
 H    2.1638237326   -0.1886416059   -0.4061352395
 H    1.4247780980   -0.9338892414    2.8309474556
 H   -2.1761792610   -2.5693623051    0.4551841740
 H   -1.9471216615   -0.4113098675   -1.0283104655