20

 C   -0.6304849698    1.2595034520    0.0041815160
 C    0.1459807030   -0.0412815908   -0.1188331127
 C    1.5598602796   -0.0503079372   -0.7670621675
 C    1.9849416589   -1.1378560079    0.2556150172
 C    0.7816039122   -0.7136995365    1.1327511111
 C    1.0378064305    0.0959788441    2.4414565779
 C    0.2493599724   -1.0281996494    3.1571416378
 O   -0.0716618930   -1.2827685317    4.2861260753
 N    0.0411857034   -1.6663298508    1.9571058010
 H   -0.0139761402    2.0540541431    0.4379013106
 H   -0.9697956068    1.6057104191   -0.9779816204
 H   -1.5172892615    1.1366590671    0.6360390066
 H   -0.4770062603   -0.7956591076   -0.6168007523
 H    1.6277535738   -0.2983333595   -1.8279013951
 H    2.0830887151    0.8952364814   -0.5944391764
 H    1.8455088027   -2.1465046601   -0.1459644756
 H    2.9808868456   -1.0743305674    0.7008240647
 H    2.0829175332    0.1743996561    2.7468837485
 H    0.5618395146    1.0757644753    2.5010534499
 H   -0.4044156833   -2.5455469991    1.7363294034