17

 C    0.0627415343    1.4695886646    0.6722546523
 C    0.0135757976    0.0736643421    0.1803448394
 C   -0.9459613023   -0.7296384125   -0.3422895760
 O   -2.2417781260   -0.4267814804   -0.5715306813
 N   -0.4306700140   -1.9774831982   -0.6383162288
 C    0.8186745695   -1.8961222406   -0.2891044115
 C    1.8720068161   -2.9639841561   -0.3848481145
 N    1.4151732708   -4.2315522834   -0.9369271450
 O    1.1687600908   -0.6959654644    0.2130737869
 H    0.3536791265    1.5240323384    1.7280569823
 H    0.7714057816    2.0822118923    0.1023308159
 H   -0.9295583259    1.9155090521    0.5703888629
 H   -2.6476365257   -1.2168272593   -0.9467128532
 H    2.7043135117   -2.5859577309   -0.9920497735
 H    2.2918016189   -3.1367876016    0.6142822086
 H    0.6369769210   -4.5718501964   -0.3784112277
 H    1.0187759751   -4.0650019056   -1.8580431269