18

 C   -0.2050081886    1.5736179730   -0.0364402224
 C    0.0649972209    0.0805280714    0.0208392294
 N    0.9916950066   -0.5015019244   -1.0298293523
 C    2.3570236877   -0.0190708352   -0.7394663840
 C    1.8212247199   -1.1154039571    0.0898881188
 C    0.9068770120   -0.5464282401    1.1467133489
 C    1.1860746848   -0.0799995248    2.5228079403
 N    0.4050046758   -1.3127060932    2.2755290629
 H    0.7051315047    2.1682358525    0.0798473081
 H   -0.6666572828    1.8375570078   -0.9934707172
 H   -0.8970700063    1.8669022631    0.7607429087
 H   -0.8808396217   -0.4652835158   -0.0767068294
 H    3.0586711072   -0.2716920986   -1.5285195005
 H    2.5099333389    0.9626934449   -0.2986522736
 H    2.1747252345   -2.1400348517    0.0515902609
 H    2.1627686601   -0.2409030573    2.9716050644
 H    0.6649682370    0.8067796882    2.8762970582
 H   -0.5881550708   -1.1358719926    2.4122133987