16

 C   -0.0292571624    1.4310570655    0.0407967196
 C   -0.0091766507   -0.0629785412    0.0208970874
 N   -1.1960074425   -0.8981762798   -0.3115932332
 C   -0.3858223748   -2.0520818211    0.2294977125
 C    0.6203757204   -1.0694036559    0.9339874679
 C    1.2118597125   -0.8472019697   -0.5008567388
 O    2.4117511256   -0.2509708964   -0.7820167199
 C    0.6964274284   -2.2070684488   -0.8682453903
 O    1.0975977779   -3.1172403818   -1.5337878867
 H    0.9738826544    1.8219822598    0.2321032868
 H   -0.3791145456    1.8206594662   -0.9213704085
 H   -0.6973409502    1.8077274938    0.8222908968
 H   -1.9110002059   -0.6792115333    0.3847634343
 H   -0.8986287229   -2.9078867090    0.6571399377
 H    1.1671229270   -1.0625554697    1.8670652350
 H    2.3242011787    0.2601144215   -1.5949377805