22

 C   -0.0688785285    1.5054772864   -0.0500993984
 C    0.0784569257   -0.0210500695    0.0000356451
 C    0.7592887326   -0.5875844703   -1.2551793500
 N    0.7418622584   -0.4695997582    1.2402965542
 C    0.0382501555   -1.3533656698    2.1675221315
 C    0.1480486084   -2.8392135717    1.8020170861
 O    1.4746205851   -3.2453761457    1.5500091972
 C    2.0550438749   -0.2327143740    1.4708643257
 O    2.7064313446   -0.7211699763    2.3840358637
 H    0.9051245821    2.0003697708   -0.1168056744
 H   -0.6513566208    1.8003329350   -0.9285544944
 H   -0.5783841502    1.8781280531    0.8429202611
 H   -0.9271509523   -0.4504377565    0.0516283991
 H    1.7431204124   -0.1350131196   -1.4145907409
 H    0.8967487481   -1.6681511022   -1.1643900188
 H    0.1520146753   -0.3811511525   -2.1419499345
 H    0.4794001396   -1.1923219671    3.1548140181
 H   -1.0148591266   -1.0555066491    2.2138696217
 H   -0.3151633395   -3.4194943230    2.6183572808
 H   -0.4286954168   -3.0540503008    0.8925090502
 H    2.0619048993   -2.7122753858    2.1055121729
 H    2.5026476928    0.4738752270    0.7509936642