18

 C   -0.1282382344    1.5348788825    0.0445660610
 C   -0.0420768882    0.0319866420    0.0451893630
 C    0.5130123041   -0.8283493021   -1.1501713735
 C   -0.3334183541   -1.9164377602   -0.4077320515
 C    0.4278188752   -1.9971362427    0.9255202392
 C    0.6189890118   -0.7118253976    1.2276359429
 N   -1.3000300384   -0.8145584550   -0.0814257446
 C   -2.4487249461   -0.5456908509   -0.7556850776
 O   -3.1138417301   -1.3636127938   -1.3611190658
 H    0.8778850888    1.9606760212    0.1130696265
 H   -0.5925320516    1.9131758972   -0.8704185524
 H   -0.7063711021    1.8972145888    0.9005210971
 H    0.0841175786   -0.5403814132   -2.1148226595
 H    1.5937416674   -0.9755603834   -1.2084141278
 H   -0.7328285842   -2.8040911215   -0.8886003772
 H    0.7064015612   -2.8956784133    1.4554279186
 H    1.0976925483   -0.2470964082    2.0776229213
 H   -2.7598582264    0.5118208602   -0.6316219997