18

 C    0.0622513335    1.5489768009    0.1386668451
 C   -0.0173177135    0.0255491234    0.0435221431
 C    0.8696793560   -0.6241949173   -1.0518933711
 O    1.7227066929   -1.2279418758   -0.0268042609
 C    0.9829358084   -0.6781778203    0.9874018415
 O    1.1590846736   -0.7768371970    2.1580895669
 C   -1.4080922450   -0.5774384577    0.1356480318
 C   -2.5244198840    0.0597311487    0.8737700353
 N   -2.5593604915   -0.0266287409   -0.5983073639
 H    1.0901206694    1.8892557625   -0.0150817474
 H   -0.5607973899    2.0386855445   -0.6171104858
 H   -0.2538947374    1.8924702513    1.1266047884
 H    0.3938471695   -1.3944647693   -1.6619532122
 H    1.4450968091    0.0631282453   -1.6756204778
 H   -1.3913042748   -1.6662619464    0.1136599086
 H   -3.2502128893   -0.5634476347    1.3874831133
 H   -2.3588395928    1.0288262199    1.3337670767
 H   -2.3276928839    0.8794599629   -0.9982922314