23

 C    0.1287007864    1.6370813289    0.0595808560
 C    0.0813622317    0.1071947904    0.0010544121
 C    0.8003383731   -0.5474388860    1.1859064220
 C    0.6924574793   -2.0916529864    1.2300917975
 C    1.3865152290   -2.7776967908    0.0346860609
 C    1.2304832143   -2.6070134194    2.4895668743
 C    1.7006159183   -3.0221595051    3.5176923032
 C    2.2412019317   -3.5198416811    4.7758914694
 O    3.4542084252   -4.2254952366    4.5333208788
 H    1.1620738861    2.0011013754    0.0517730523
 H   -0.3883042178    2.0851836510   -0.7946757510
 H   -0.3461158286    2.0136287517    0.9723769444
 H   -0.9651610623   -0.2263528962   -0.0167841906
 H    0.5251299772   -0.2299638979   -0.9430124972
 H    1.8622994932   -0.2695340914    1.1791678812
 H    0.3868871537   -0.1485365191    2.1199976821
 H   -0.3764006724   -2.3496471414    1.1900710235
 H    2.4501276827   -2.5207261395    0.0100298484
 H    1.3052150370   -3.8646439837    0.1143553403
 H    0.9332683860   -2.4694593234   -0.9112284291
 H    2.4075341738   -2.6705188313    5.4590792961
 H    1.4938585786   -4.1716475850    5.2580104463
 H    3.7776285437   -4.5371200032    5.3848316191