18

 C   -0.1304341020    1.4755498695    0.0018767579
 C    0.0186196175   -0.0366836784   -0.0581141226
 C    0.8733342304   -0.5023414467   -1.2556462324
 N    1.4338622644   -1.8496114975   -1.0855128450
 C    0.4931358981   -2.7991293410   -0.5720882565
 C    0.0342561567   -2.7663607452    0.6817710993
 C    0.4446911335   -1.7184914433    1.6594016992
 O    0.6469707957   -1.9512105210    2.8217943111
 O    0.6167681263   -0.4477056565    1.1918429017
 H    0.8440537488    1.9513150158    0.1465802879
 H   -0.5626669004    1.8485537388   -0.9320775343
 H   -0.7828155056    1.7687691735    0.8277255263
 H   -0.9706862512   -0.5008333226   -0.1269784395
 H    0.2527177057   -0.4675072289   -2.1594152537
 H    1.7145972605    0.1807735815   -1.4114406539
 H    2.1961035844   -1.7704735216   -0.4194227730
 H    0.1793727073   -3.5787424619   -1.2636607277
 H   -0.5947940700   -3.5559611544    1.0783636053