18

 C   -0.0990070676    1.5140610492    0.0474219655
 C    0.0137346467    0.0197508559   -0.0119577312
 C   -0.3075393044   -0.7828042220   -1.2848588625
 C    0.6370818756   -1.9056452127   -1.3850298735
 C    0.7060295813   -2.4746205776   -0.1595415861
 C    1.8303691785   -1.9340445282    0.7376930778
 C    0.7030326381   -0.8701504933    1.0877273687
 C   -0.4046256056   -1.8742049183    0.7189217919
 N   -1.1889242803   -0.8787251832   -0.0922062596
 H    0.8684614751    1.9857104403   -0.1602543265
 H   -0.8193887481    1.8736735393   -0.6931018023
 H   -0.4378204939    1.8542125412    1.0321884798
 H   -0.7239560531   -0.2379543396   -2.1269818054
 H    1.4761483042   -1.8567093927   -2.0723010999
 H    2.0735303696   -2.5060382954    1.6401461853
 H    2.7458717338   -1.6086457242    0.2400065802
 H    0.7417345521   -0.3888514676    2.0673113269
 H   -0.9617901220   -2.4868964112    1.4244681910