20

 C   -0.0034811095    1.5954485847    0.0235127469
 C    0.0962268344    0.0761069073   -0.0221071940
 C    0.8909996182   -0.4775586880   -1.2550882348
 C    1.4389984011   -1.8260831903   -0.7379728137
 C    1.5464294376   -1.6309753697    0.7676787188
 C    2.1760437141   -0.3760701399    1.2524800228
 N    0.7095306515   -0.4981166184    1.1922448642
 C   -0.0131293873   -0.6197483864   -2.4527904428
 O    0.0294982776    0.0632724432   -3.4432740307
 H    0.9882357327    2.0547652867    0.0894447911
 H   -0.4897759444    1.9752836335   -0.8800380464
 H   -0.5855178607    1.9143326898    0.8921899929
 H   -0.9191441136   -0.3428871009   -0.0553475111
 H    1.6927937081    0.2114731926   -1.5313333540
 H    0.7257763672   -2.6328079702   -0.9501303161
 H    2.3877017243   -2.0997816035   -1.2087660350
 H    1.5336577068   -2.5133902665    1.4011475305
 H    2.5774945885   -0.3250979194    2.2599021413
 H    2.6901849195    0.2572456938    0.5340071568
 H   -0.7818942863   -1.4231999681   -2.3420745668