23

 C   -0.0749630966    1.5056131612    0.0479691403
 C    0.0012320437    0.0060047835   -0.0106969996
 C    0.8321322817   -0.7892453099   -1.0204965367
 C   -0.1447383876   -1.9941044269   -0.8284165571
 C    0.3918727038   -2.9772725588    0.2207671870
 C    0.5729417282   -2.0942783126    1.4867281860
 C   -0.3017536536   -0.8722814955    1.2023780288
 C   -1.1099158299   -1.0401889997   -0.0592451235
 C   -2.5972875760   -0.9246508462   -0.2084862029
 H    0.8588016661    1.9376770391    0.4291674111
 H   -0.2547635771    1.9354037960   -0.9448659295
 H   -0.8830627121    1.8414912526    0.7068622966
 H    0.7513995619   -0.3555442245   -2.0221134504
 H    1.8931691813   -0.9646467003   -0.8006073868
 H   -0.5128213383   -2.4582381397   -1.7447381364
 H   -0.3443813495   -3.7679860359    0.4073961124
 H    1.3210560080   -3.4627485441   -0.0959161058
 H    0.2466077154   -2.6126643851    2.3936863435
 H    1.6218609811   -1.8180909551    1.6422197933
 H   -0.7609479613   -0.3462915530    2.0341682798
 H   -2.9930378478   -0.1034155283    0.3989669931
 H   -2.8884424348   -0.7351594884   -1.2486458156
 H   -3.1063149764   -1.8420543884    0.1128364923