25

 C   -0.4795629228    1.3300961701   -0.4625036272
 C   -0.2109134462   -0.1743633220   -0.3588100793
 C    0.9455699365   -0.6739363958   -1.2475772852
 C    2.3125173924   -0.0110951502   -0.9490129902
 C    2.8143123117   -0.0826915963    0.4988472491
 C    1.0105550089   -2.1956651476   -1.2377868699
 O    1.1912015445   -2.6843580203    0.0719447467
 C    0.1482900820   -2.9807069771   -2.1905844150
 C    1.6581586385   -2.9221120795   -2.3857019762
 H    0.3651749563    1.9243266848   -0.1002319426
 H   -0.6735281268    1.6300731069   -1.4991394744
 H   -1.3552089416    1.6108180970    0.1314674256
 H   -0.0137403984   -0.4498900711    0.6817479405
 H   -1.1177833320   -0.7212230006   -0.6454287706
 H    0.6993904806   -0.4023798077   -2.2840287330
 H    3.0579207243   -0.4707824119   -1.6097032229
 H    2.2552891817    1.0408472480   -1.2539680472
 H    2.9014369409   -1.1160253661    0.8392350702
 H    3.7960320742    0.3954569892    0.5819923082
 H    2.1403024302    0.4372379972    1.1872981061
 H    1.1542139980   -3.6452995598    0.0524996056
 H   -0.2769112520   -3.9161813064   -1.8379122973
 H   -0.4858875873   -2.4473141364   -2.8910968967
 H    2.0499167429   -2.3482345943   -3.2193251987
 H    2.2296561735   -3.8173668401   -2.1596475156