11

 N    0.0853007382   -3.7084912453   -0.0188422269
 C    0.0589034953   -2.5464245386   -0.0120791873
 C    0.0209156806   -1.1841103612   -0.0040557457
 C   -0.0242933372    0.0252210540    0.0032197872
 C   -0.0747212644    1.4305086605    0.0116708435
 C   -1.1841953069    2.2558991282    0.0311692663
 N   -0.6612166847    3.4953528445    0.0309897200
 N    0.6913542260    3.4670230017    0.0126071497
 N    1.0517614490    2.2268002335    0.0009050085
 H   -2.2412518993    2.0535920205    0.0442799772
 H   -1.1361503466    4.3849559120    0.0423038028