19

 C   -0.0295934710    1.5031478716    0.0263088696
 C    0.0478410085    0.0068190792   -0.2041799177
 O    1.0878207275   -0.5425767503   -0.5071560946
 C   -1.2343824022   -0.7648525432   -0.0389695464
 O   -2.3914140116    0.0077735728    0.1459584274
 C   -1.3674944884   -2.1045948254   -0.7427395365
 C   -1.2408157622   -2.0687788887    0.7495152495
 C   -0.0327002789   -2.6252910505    1.4581553057
 O   -0.2635838970   -4.0207459356    1.6271396422
 H    0.9757609501    1.9234648854   -0.0117305301
 H   -0.6503009066    1.9754611862   -0.7436068650
 H   -0.5094383159    1.7238629586    0.9840922325
 H   -2.7045769435    0.2938458878   -0.7190690389
 H   -2.3375402834   -2.3286523774   -1.1722361055
 H   -0.5028591213   -2.4260554637   -1.3128047019
 H   -2.1712590167   -2.1919150015    1.2960630468
 H    0.8704624835   -2.4317137696    0.8693087181
 H    0.0854056607   -2.1257935757    2.4337080117
 H    0.5312418985   -4.4048746802    2.0085621131