19

 C   -0.4476730554    1.2303448742    0.0538795818
 C    1.0634642391    1.1124532071    0.1179060185
 C    0.2279720918   -0.1070313004   -0.0840740892
 O    0.1950633093   -1.0131603878    0.9906919260
 C   -0.8608152123   -1.8966777439    0.9513239510
 C   -2.2882257458   -1.5530518817    1.3250501905
 C   -1.5428013844   -2.6288172602    2.0721246527
 O   -1.5757924119   -3.8606573217    1.3446242587
 C   -0.8257075839   -3.2586481846    0.2534013935
 H   -0.9624338900    1.4291952880    0.9862579161
 H   -0.9050934335    1.6746629243   -0.8232883176
 H    1.6583892554    1.4769042160   -0.7115793752
 H    1.5246885986    1.2217717371    1.0928177715
 H    0.2319878289   -0.5830196167   -1.0632429297
 H   -2.3813812766   -0.6162258799    1.8649184836
 H   -3.1282532247   -1.8156106015    0.6871908798
 H   -1.3866517429   -2.6656809176    3.1433476106
 H   -1.3324810207   -3.3679034338   -0.7123247050
 H    0.1863998489   -3.6757442869    0.2025990124