17

 C    0.3880511022   -1.1729295544    0.2755697894
 C    0.2494378714    0.0169367183    0.1757096599
 C    0.0812102258    1.4489994585    0.0351276246
 O   -0.2739554483    2.1376739592    1.2649471739
 C    0.7985132034    3.0988017437    1.1099833731
 C    1.8883024317    2.9610886080    2.1660458807
 C    2.6672990864    1.7311565328    1.6723409773
 O    2.5882900743    1.7824944058    0.2406654322
 C    1.3575721080    2.3444832583   -0.1196053690
 H    0.5129283945   -2.2239153528    0.3652292106
 H   -0.6615891711    1.6643044662   -0.7455316063
 H    0.4151610793    4.1145397280    0.9786517361
 H    2.5215509120    3.8544275102    2.1570900088
 H    1.4717788187    2.8334114377    3.1677225977
 H    3.7260193196    1.7388566655    1.9406881475
 H    2.2126958091    0.8045043591    2.0424912362
 H    1.4654037728    2.8436618262   -1.0831303327