21

 C   -0.3408300194    1.4039759338   -0.0172686661
 C    0.0060120436   -0.0793541010    0.0788584586
 C    1.1306065054   -0.5431574167   -0.8959234740
 C    2.1432789233   -0.4690393215    0.2701553089
 C    0.9395479295   -0.4468179377    1.2718748398
 N    3.1538824351   -1.5070541264    0.3105975414
 C    4.0119075034   -1.4301345743    1.4880867334
 C    5.0062604040   -2.5069099131    1.4891232287
 N    5.7748063997   -3.3689255332    1.5045027979
 H    0.5556801708    2.0329556662    0.0302013835
 H   -0.8513588388    1.6285341065   -0.9600379409
 H   -1.0008860310    1.7075435889    0.8025131125
 H   -0.9121201362   -0.6704245191    0.0237347861
 H    0.9862967742   -1.5767448639   -1.2273772366
 H    1.3305945533    0.0752414986   -1.7746029068
 H    2.6637290412    0.4955115727    0.2781587774
 H    0.9783111601    0.2561863410    2.1090271349
 H    0.7314865160   -1.4484198373    1.6637323126
 H    2.7156174020   -2.4225436774    0.2690851515
 H    4.5435677583   -0.4702223514    1.4716575681
 H    3.4713529654   -1.4703859648    2.4508627089