16

 C   -0.1526855081    1.5370150343   -0.0972644758
 C    0.0587038000    0.0436732084    0.0383026520
 O    0.8573445479   -0.4158831673   -1.0546753562
 C    1.3074473014   -1.7188686497   -0.7599694961
 C    1.4028062634   -1.8058404067    0.7640208533
 O    1.8004002451   -2.7205851479    1.4210195648
 C    0.8150464055   -0.4584968922    1.2971344541
 C    1.8986104155    0.4212926475    1.7154388191
 N    2.7636535755    1.1177705176    2.0367245415
 H    0.8013047822    2.0680635091   -0.0583812547
 H   -0.6354585217    1.7513431613   -1.0539834738
 H   -0.7949853775    1.9074008955    0.7067673207
 H   -0.9132491123   -0.4776689806    0.0257960670
 H    0.6080149332   -2.4958796106   -1.1103742654
 H    2.2789627042   -1.8916411299   -1.2313558578
 H    0.1596434956   -0.6606781987    2.1478486773