17

 C    0.0740918343    1.6393634338   -0.0139512467
 C    0.0865737171    0.1177231715    0.0217169643
 C    0.7343200953   -0.7008942175   -1.1004717239
 N    2.1880482510   -0.9386489126   -0.8176321288
 C    2.4426676062   -0.2687137608    0.5054944262
 C    1.0377539865   -0.6685242743    0.9782192756
 C    1.1357557159   -1.7764507234   -0.1503761154
 C    1.0452078914   -3.1896891514   -0.1713394914
 N    0.9469345266   -4.3431286309   -0.1528230650
 H    1.0621117323    2.0639611192   -0.2089917296
 H   -0.5961976580    1.9948124251   -0.8035775706
 H   -0.2896630651    2.0470407709    0.9353849533
 H   -0.9305129544   -0.2628528455    0.1634880230
 H    0.4324293335   -0.8087517505   -2.1342064397
 H    3.2381797722   -0.8191392381    1.0116740209
 H    2.7023882342    0.7920893430    0.4481905598
 H    0.7835160313   -0.8213140587    2.0244670179