18

 C   -0.0542199746    1.5393985472   -0.0202983610
 C   -0.0799743466    0.0298256643    0.0565180418
 C   -1.2293261910   -0.6670099691   -0.6359366094
 O    1.2097139944   -0.6039052651   -0.1276272750
 C    0.6254155092   -0.6567081396    1.1491018683
 C    1.2701586867   -0.1447908418    2.4568817431
 N    0.8297909716   -1.4141364272    3.0501860684
 C    0.2618637577   -1.9439176964    1.9115593061
 O   -0.2956792132   -2.9806082245    1.6708812934
 H    0.8401034869    1.9438212901    0.4594442871
 H   -0.0578622176    1.8643458110   -1.0663123619
 H   -0.9384779805    1.9661706091    0.4648153890
 H   -1.2043750539   -0.4549114254   -1.7102811765
 H   -1.1746765606   -1.7459293659   -0.4819011824
 H   -2.1863084060   -0.3058817954   -0.2446443107
 H    2.3563402816   -0.0246063583    2.4027054997
 H    0.8123214686    0.7460473661    2.8989875505
 H    0.8517342272   -1.7501587091    4.0000663094