18

 C   -0.3506198367    1.0695207670   -0.3229612143
 C    1.0465793429    1.1381058249    0.2421686388
 C    0.3642954723   -0.1930593172    0.0995981797
 N   -0.0717206173   -0.8410001614    1.2968802427
 C   -1.0766688362   -1.7979289513    1.1994169082
 C   -2.0347385046   -1.9621679629    0.2249848987
 N   -2.7970611219   -3.0368403307    0.6643910015
 C   -2.2699583617   -3.4562058784    1.8394289693
 N   -1.2281941015   -2.7338310966    2.1944674738
 H   -1.1612552473    1.4051671100    0.3125843501
 H   -0.4895138218    1.2497573986   -1.3832369305
 H    1.8686108460    1.3639138120   -0.4273919952
 H    1.1576684201    1.5270221915    1.2478254359
 H    0.7096555314   -0.8424044678   -0.7085225004
 H    0.6737721840   -1.1541829139    1.9045711863
 H   -2.2481148247   -1.4397787176   -0.6898908590
 H   -3.5914693620   -3.4300220224    0.1903163162
 H   -2.6758664310   -4.2889259637    2.3938614981