12

 O    0.0741760441    1.3356123137    0.0207228019
 C    0.0669094690   -0.0086459672    0.0786109027
 N    0.0987956484   -0.7566793209   -1.0251437721
 N    0.0793034134   -2.0194785100   -0.5700277113
 C    0.0361579562   -2.0932716901    0.7836203395
 C    0.0093721233   -3.3818157568    1.4650943946
 O    0.0238727918   -4.4430798818    0.8774285955
 C    0.0266722139   -0.7841903725    1.2509795263
 H    0.1046724353    1.5845658130   -0.9118045957
 H    0.0962445653   -2.8013090590   -1.2043696584
 H   -0.0252596689   -3.3244706543    2.5719315710
 H   -0.0043058718   -0.4463067541    2.2730246861