20

 O   -0.1317822711    1.0161022641    1.3091556571
 C    0.0673774508    0.0605983788    0.2822597690
 C    0.5531701675   -1.2824046506    0.8692186162
 C   -0.8852861156   -1.8750616932    0.7497466265
 C   -1.7221223430   -2.0138024789    2.0015508935
 C   -1.1713632092   -2.2458177481    3.3557883638
 N   -1.7639660293   -0.9394090397    3.0234130715
 C   -1.2769579363   -0.6276031588   -0.1235144032
 O   -2.4469150352    0.0900505376    0.1890820352
 H   -0.9325835601    1.5012480939    1.0635808972
 H    0.6639802009    0.4901234894   -0.5322424566
 H    1.2713204027   -1.7988191555    0.2289485370
 H    0.9829429061   -1.1981218358    1.8698743199
 H   -0.9330116717   -2.8208722264    0.2018050120
 H   -2.7101586572   -2.4269806663    1.8021159948
 H   -1.7324819609   -2.8408849183    4.0709320729
 H   -0.0922858773   -2.3061944740    3.4692453001
 H   -1.0224709467   -0.2644158299    2.8313211729
 H   -1.3151183430   -0.8595885004   -1.1913969772
 H   -2.6488588813   -0.0527546680    1.1237228774