23

 C   -0.0014344996    1.6266456621   -0.1587939647
 C   -0.0074602070    0.1010685971   -0.0244764673
 C    0.8544593998   -0.5781032255   -1.0935220750
 C    0.7546424805   -2.0945661652   -1.1765803143
 C    0.4396150108   -2.9173186795    0.0001286673
 O   -0.5649599561   -2.6511578049   -0.9872372579
 C    1.4548212330   -2.6860252565   -2.4040791599
 C    1.6275148150   -4.2038853625   -2.3910480191
 O    0.7374359937   -2.2704905252   -3.5656387498
 H    1.0124318608    2.0317048425   -0.0643001296
 H   -0.3904577251    1.9380865001   -1.1343901375
 H   -0.6199531013    2.0954802968    0.6127189414
 H    0.3509034139   -0.1709381344    0.9760381345
 H   -1.0319664205   -0.2779898705   -0.1028037018
 H    0.5854920682   -0.1892818635   -2.0830956128
 H    1.9113758803   -0.3175402737   -0.9430539436
 H    0.7706563096   -3.9511909399    0.0580779388
 H    0.2742576507   -2.4374392341    0.9622629333
 H    2.4393208685   -2.2124716494   -2.4985136567
 H    0.6670374065   -4.7001168108   -2.2164026603
 H    2.0084237824   -4.5250032575   -3.3634654110
 H    2.3339489770   -4.5272699329   -1.6203092987
 H   -0.1706260911   -2.5745181028   -3.4421233352