12

 O   -0.8313755077    1.2931761151    0.2480270333
 C    0.2523008460    0.8602386013   -0.0487914065
 C    1.4714460630    1.7385412783   -0.0924206925
 N    2.6221061056    1.2238189153   -0.4189366571
 C    3.6507727297    2.1403040239   -0.4181584193
 N    3.5971416530    3.4057915156   -0.1391366597
 C    2.3679550025    3.9656543337    0.2111171059
 O    2.1771760762    5.1189451580    0.4935481682
 N    1.2961081592    3.0331130427    0.2157170492
 H    0.4512897549   -0.1937477384   -0.3105936062
 H    4.6225986019    1.7312183024   -0.6883075112
 H    0.3659524857    3.3570501220    0.4603015657