13

 C   -0.2086372286    1.4848123578    0.0286256599
 C   -0.0338881698    0.0079143938   -0.0785231235
 N    0.2566684476   -0.5241768734   -1.1987867213
 O    0.4066351761   -1.9247221405   -1.2250691926
 C    0.2505271728   -2.6947807246   -0.1030582081
 N    0.3850159220   -3.9478122784   -0.1271315655
 C   -0.0923017476   -2.0089817581    1.1917237257
 O   -0.2569923267   -2.5493988807    2.2358709510
 O   -0.2171677446   -0.6381991586    1.1098128327
 H    0.5062508901    1.8939288735    0.7492582428
 H   -0.0533374202    1.9451540741   -0.9463381371
 H   -1.2148647516    1.7162157819    0.3914617260
 H    0.6163571803   -4.2688752269   -1.0701950299