17

 C   -0.0625956946    1.4701212693   -0.1036983396
 C    0.0790568625   -0.0324783410   -0.0514613345
 C    1.4334760409   -0.6835406229   -0.1225990345
 C    0.6778454430   -0.6784604945    1.1825292866
 N    1.0302793956    0.0191453195    2.4360500410
 C    0.5280454655   -1.1345233208    3.2529877702
 C    0.1114405358   -1.8383329001    1.9437947162
 O   -0.4381614893   -2.8622179294    1.6562720593
 H    0.7381362409    1.9582234852    0.4590738196
 H   -0.0292128985    1.8318409576   -1.1368774782
 H   -1.0121187497    1.7892752150    0.3372507258
 H   -0.7370064548   -0.6007042939   -0.4913878147
 H    1.5445894721   -1.6347925247   -0.6327780344
 H    2.3005793221   -0.0308140084   -0.1762076881
 H    2.0344766719    0.1276863212    2.5363075982
 H    1.2911013377   -1.6778859340    3.8214509144
 H   -0.2949136612   -0.8689363682    3.9239678524