20

 C    0.1554980410    1.6353958998   -0.0342470557
 C    0.0412902719    0.1194644134    0.0221406536
 C    0.8979873252   -0.7485451396   -0.9549759503
 C    1.2382760336   -1.7190102979    0.2221839818
 O    0.6967206731   -3.0082326932    0.1475178275
 C    2.6403426294   -1.5265077147    0.8426422061
 C    2.0782110044   -0.3245689264    1.6628889778
 C    0.6252954046   -0.6801448413    1.2171697372
 H    1.1946439108    1.9713886642    0.0470952900
 H   -0.2375854493    2.0205029524   -0.9819423538
 H   -0.4114901172    2.1070994859    0.7763935814
 H   -1.0112779263   -0.1632500762   -0.0887133137
 H    0.3441221903   -1.2138138451   -1.7743044976
 H    1.7699926729   -0.2308475017   -1.3682660064
 H    1.1026206429   -3.4619929059   -0.5998984430
 H    2.8938861559   -2.3750965738    1.4839928291
 H    3.4745159558   -1.3313958483    0.1610019380
 H    2.2490219755   -0.3893480746    2.7390192536
 H    2.4289552459    0.6538968687    1.3270484879
 H   -0.0556268503   -0.9727134856    2.0173584164