17

 O    0.0902274426    1.2914303399    0.2999555055
 C    0.0662214378   -0.0274692194   -0.2160719827
 C   -1.3159998112   -0.6442502467   -0.0973069725
 C   -1.6514227532   -2.0894071252   -0.1299030809
 C   -1.8606119933   -1.2584450999    1.1916085669
 C   -0.8717062368   -2.1669261026    1.8339735853
 O   -0.6424541024   -2.4738957441    2.9738612787
 C   -0.5552306622   -2.9448768640    0.5192617116
 O   -0.9418516020   -4.2922291742    0.6605863692
 H   -0.1250592350    1.2414466909    1.2376942669
 H    0.3361679878    0.0623185766   -1.2738646816
 H    0.8289538060   -0.6577340037    0.2618284547
 H   -2.0731719436   -0.0182865943   -0.5659968329
 H   -2.4373029091   -2.5086678338   -0.7438145804
 H   -2.7691700388   -0.8906914534    1.6530320780
 H    0.4481622779   -2.8611662809    0.0834528438
 H   -0.6479066745   -4.5792654352    1.5342508403