23

 C    0.2387894207    1.4837489664   -0.0379808418
 C    0.0059809098   -0.0236883463   -0.1780041686
 C   -1.4592450571   -0.4708719069    0.0320351090
 C   -2.3780097273    0.0169060064   -1.0611715893
 C   -3.4105014627   -0.6703745571   -1.5488130341
 C   -3.8141974743   -2.0409435706   -1.0783268710
 C   -2.7157285359   -2.7639253325   -0.3184775259
 C   -1.3505636473   -2.9180251077   -0.9427200340
 C   -1.5464667571   -1.9799935644    0.2261245195
 H    1.2993422902    1.7275512199   -0.1557821366
 H   -0.3117075298    2.0603143716   -0.7881198419
 H   -0.0761814097    1.8416346414    0.9489499306
 H    0.3456951762   -0.3668886181   -1.1629221245
 H    0.6289803471   -0.5479027589    0.5575620583
 H   -1.7964795748   -0.0053684263    0.9736772353
 H   -2.1790814282    1.0108284624   -1.4541203223
 H   -4.0270546231   -0.2243279386   -2.3259383213
 H   -4.7013612245   -1.9488822956   -0.4335336665
 H   -4.1428974580   -2.6453977196   -1.9354728184
 H   -3.0615602192   -3.5982168934    0.2849617470
 H   -0.8066670598   -3.8417182594   -0.7782006361
 H   -1.1982352127   -2.4764532318   -1.9223668442
 H   -1.1382865424   -2.3195698010    1.1745606166