15

 O    0.1561111429    1.4246219809   -0.1064839383
 C    0.0492753217    0.0490894425   -0.1652787023
 C    0.7786077591   -0.6611801542   -1.2808739052
 C    0.2573332943   -1.8760063903   -1.4516871131
 C   -0.9121307112   -2.0500121087   -0.5275134515
 C   -0.7184265044   -1.7207279670    0.9667193333
 C   -1.3384632082   -0.7057941492   -0.0501057516
 C    0.3108012389   -0.6807174325    1.1841196709
 O    0.8464252685   -0.2295280606    2.1664159590
 H    0.4324565450    1.6409919023    0.7965354888
 H    1.6645880353   -0.2425184418   -1.7386997475
 H    0.6180275134   -2.6586990786   -2.1049624115
 H   -1.6539930159   -2.8213295203   -0.7029934592
 H   -1.2069087919   -2.2939435743    1.7433365751
 H   -2.3256161974   -0.2661348681   -0.0092134770