19

 C    0.0535705558    1.4917665732    0.0127176411
 C   -0.0346294705   -0.0193515768    0.0032551627
 O    0.5607080631   -0.4987976408   -1.1968582041
 C    0.0364806368   -1.7865225256   -1.5141644423
 C   -1.2532356003   -1.9335491123   -0.7179541615
 C   -1.1833617266   -1.9469933317    0.7995467759
 C    0.1741765999   -1.8130546677    1.4763303870
 O    0.6682959769   -0.5196609245    1.1347170936
 C   -1.4324887153   -0.6639544363    0.0619709276
 H    1.1021309355    1.7943630432   -0.0326121390
 H   -0.4686253816    1.9051247922   -0.8528934152
 H   -0.3869496602    1.8891990145    0.9296843134
 H   -0.1575218301   -1.8240137965   -2.5920467234
 H    0.7732464609   -2.5669587676   -1.2763139143
 H   -2.0952871325   -2.4304575225   -1.1856830169
 H   -1.9792701781   -2.4527850883    1.3338178508
 H    0.0799545624   -1.8694927939    2.5666613521
 H    0.8852356714   -2.5887433297    1.1582409855
 H   -2.3354313274   -0.0700385889    0.1088012172