21

 C   -0.0080833453    1.4088554528   -0.3548314716
 O   -0.0883090425    0.1631175563    0.3011759037
 C   -1.2996691982   -0.5110561992    0.0695140408
 C   -1.5289559101   -1.2422690326   -1.3053618978
 C   -1.7321685384   -2.5502300668   -0.5321587383
 C   -0.4688066889   -2.8658428492    0.2361704716
 C   -1.4324492239   -1.8479680752    0.7852581982
 O   -2.0664723023   -2.0092049359    1.9969611047
 C   -1.2215232353   -1.7410294436    3.1077092836
 H    0.9557157564    1.8535967245   -0.0953040908
 H   -0.0653419136    1.3031300893   -1.4486015081
 H   -0.8119687296    2.0899501569   -0.0334717981
 H   -2.1547989788    0.1393042913    0.3073205900
 H   -2.4135141606   -0.8862225365   -1.8372950306
 H   -0.6694333789   -1.2319151507   -1.9830972450
 H   -2.4830752562   -3.3017794552   -0.7378947401
 H   -0.4901542201   -3.8083661924    0.7738208886
 H    0.5037810868   -2.5773016965   -0.1531708073
 H   -0.3667643959   -2.4308380404    3.1334184126
 H   -0.8374884762   -0.7131146685    3.0824543926
 H   -1.8254592785   -1.8801155783    4.0072029612