21

 C   -0.0855883878    1.5734890980   -0.0440956332
 C    0.0400872442    0.0471039668    0.0268559683
 C    0.7947071087   -0.5695438290   -1.1773044495
 C    1.5348702575   -1.8028207675   -0.6179296862
 C    1.6290741325   -1.4943717539    0.8679266339
 C    2.4502513302   -2.2537747591    1.7357722090
 C    3.1666084351   -2.9222997229    2.4393268034
 C    0.8125389464   -0.4831775491    1.2232635612
 C    0.5958715498    0.0366065657    2.6069657690
 H    0.9024585226    2.0472149923   -0.0577260755
 H   -0.6134472440    1.8735608176   -0.9552810005
 H   -0.6422121331    1.9760764198    0.8080728960
 H   -0.9809868774   -0.3668637861    0.0767888260
 H    0.1317140426   -0.8098794369   -2.0127558027
 H    1.5268425009    0.1594298108   -1.5435887659
 H    0.9677536768   -2.7304427568   -0.7737881587
 H    2.5162001779   -1.9578441028   -1.0771999805
 H    3.7928896690   -3.5062683767    3.0667068232
 H    1.1908937342   -0.5177268190    3.3361429674
 H    0.8595035893    1.0986313092    2.6824533861
 H   -0.4617751754   -0.0407648705    2.8925862691