23

 C   -0.1158707261    1.5476894903    0.0665642440
 C    0.0443492124    0.0515623221    0.0121350253
 C   -0.7740649533   -0.8539776844    0.8964308808
 C    0.7249145285   -0.9146856100    0.9891223295
 C    1.2617696843   -1.7576699837   -0.1699918995
 C    0.6185199958   -0.7479968759   -1.1903133605
 C   -0.3741974204   -1.3055782726   -2.2093862257
 C    1.7154118175    0.0466009068   -1.8960286015
 O    2.4371760812   -0.8417181993   -2.7402773662
 H    0.7892589508    2.0771164386   -0.2506139524
 H   -0.9389566084    1.8860411528   -0.5753529940
 H   -0.3452209983    1.8744606085    1.0863743275
 H   -1.2771188787   -0.3463958930    1.7142719205
 H   -1.3319129864   -1.6973607103    0.4961497105
 H    1.2523089191   -0.6927213360    1.9099415430
 H    2.3494685970   -1.7860025643   -0.2537850858
 H    0.8852828615   -2.7852338946   -0.2135086862
 H   -1.1417329376   -1.9211920800   -1.7327505334
 H   -0.8817401841   -0.4940736573   -2.7451535803
 H    0.1460948620   -1.9198985680   -2.9493054974
 H    1.2658295282    0.8655079890   -2.4811053428
 H    2.3815625229    0.5015021514   -1.1457332185
 H    3.1182534223   -0.3377658902   -3.1942174769