15

 O   -0.6857727899    0.7022498600    0.6618101031
 C    0.2085199221    0.8682024658   -0.1250767054
 C    1.3015155611    1.9251549393    0.0279918176
 C    1.3383053209    2.5785506163    1.4339022048
 N    2.6712857975    2.1653030692    1.8984326759
 C    3.2346132165    2.4282385418    3.1255502594
 O    4.3395999796    2.0695238498    3.4584475023
 C    3.2831472905    1.4417157106    0.8790400049
 N    2.6106659468    1.2772845771   -0.1909890621
 H    0.3150292650    0.2496790461   -1.0393374424
 H    1.1337384490    2.6605404864   -0.7706877845
 H    1.2577102781    3.6676031517    1.3959325341
 H    0.5423923365    2.1784466719    2.0676492475
 H    2.5557316654    3.0106867986    3.7755036734
 H    4.2832430908    1.0635109055    1.0494339513