17

 C   -0.0122626475    1.5326899457   -0.0579711759
 C   -0.0275871019    0.0772431552   -0.0355129410
 C   -0.0487734682   -1.1268468773   -0.0100734873
 C   -0.0660542405   -2.5763166276    0.0163255807
 C    0.3282515554   -3.3393219060    1.3495635403
 C   -1.0252178502   -4.0520013022    1.2907230281
 N   -2.0482649140   -2.9808202877    1.3695965218
 C   -1.4257555324   -3.3067257454    0.0685825531
 H    0.6735614819    1.9352150205    0.6961445214
 H    0.3083100024    1.9164262152   -1.0331854646
 H   -1.0066674202    1.9438631134    0.1491230843
 H    0.5296961573   -2.9776981219   -0.8101328234
 H    1.1881857983   -3.9957332612    1.2047552781
 H    0.4783708600   -2.7082542670    2.2269686092
 H   -1.2562166763   -5.0652333887    1.5946373537
 H   -2.9610883039   -3.4356756275    1.3794522368
 H   -2.0297485700   -3.6053259576   -0.7795480851