17

 C   -0.0595664423    1.5266803112   -0.0168451592
 C    0.0226423899    0.0164017595    0.0086486490
 C    1.3486495958   -0.6905148439   -0.2574110825
 C    0.7362072763   -0.6977231510    1.1047002643
 C    1.1914532893   -0.2323855207    2.4945991061
 O   -0.1062097846   -0.7281798195    3.0331415960
 C    0.2706728982   -1.7979268776    2.0663668235
 C    1.6724355419   -1.6960636189    2.7416511052
 O    2.5258306849   -2.3373815082    3.2551028913
 H    0.8590783556    1.9785513226    0.3714448441
 H   -0.2043569925    1.8938861118   -1.0383670971
 H   -0.8932744700    1.8867104758    0.5944670653
 H   -0.8568100660   -0.4921286184   -0.3795888009
 H    1.3409703005   -1.6101105791   -0.8332873374
 H    2.2244195757   -0.0690478026   -0.4180611300
 H    1.5534514042    0.7320054465    2.8430485961
 H   -0.4232535070   -2.6226957175    1.9199673962