20

 C    0.6159635385    0.5991970565   -0.2657357076
 O   -0.7141865007    0.9302337008    0.0906535539
 C   -1.5946607117   -0.0922388171    0.0023586236
 C   -1.4926297188   -1.4111717130   -0.3624804073
 C   -2.8106506249   -1.9759662050   -0.2426530464
 C   -3.1630086585   -3.4017415837   -0.5431187469
 C   -3.6565120027   -0.9805382276    0.1886699032
 C   -5.1181084067   -0.9649725909    0.4893837826
 N   -2.8927709881    0.1721152120    0.3346590705
 H    1.2059039405    1.5093281207   -0.1478716732
 H    1.0159353987   -0.1863971659    0.3881246369
 H    0.6719629194    0.2560787059   -1.3067973898
 H   -0.6003517568   -1.9269613312   -0.6784637365
 H   -2.5999541172   -4.1003849763    0.0880624880
 H   -4.2258697575   -3.6009050662   -0.3798100393
 H   -2.9386879085   -3.6642302658   -1.5844199942
 H   -5.3261500143   -0.6932501166    1.5330399285
 H   -5.6667254436   -0.2555476716   -0.1447054966
 H   -5.5515384314   -1.9528181372    0.3196482230
 H   -3.2235654658    1.0718621322    0.6364434976