20

 C    0.0629439472    1.5993548796   -0.0953983526
 C    1.5810710662    1.4298830388   -0.0859146591
 C    2.0498083993    0.7529067270    1.1441613116
 C    1.4387971322    0.9510916883    2.5332667123
 O    0.6720198491   -0.1303804575    3.0228704029
 C   -0.6564862783   -0.1554244712    2.5383207046
 C   -0.7813804364   -0.6906511311    1.1124070569
 C   -0.0076481529    0.0479613523    0.0266755131
 N    1.4979754922   -0.0833155314    0.0551108348
 H   -0.3588247067    2.2041625540    0.7133508479
 H   -0.3353142627    1.9679283297   -1.0418746756
 H    2.2633740396    1.8981522425   -0.7885862121
 H    3.1257675380    0.5953053625    1.1747607335
 H    2.2612940665    1.0793231643    3.2438553777
 H    0.8399587953    1.8748219546    2.5649138497
 H   -1.2144494028   -0.8074433783    3.2187188759
 H   -1.1023217728    0.8507266539    2.6136727356
 H   -0.4404762032   -1.7335371474    1.0975267709
 H   -1.8475893920   -0.7009910640    0.8461156580
 H   -0.3121794877   -0.3695899266   -0.9377572359