20

 C    0.2397803432    1.5654212447    0.1979279928
 C    0.0887936607    0.0662688947    0.1063159435
 C   -0.9555106292   -0.6618989950    0.9048068099
 C    0.5157928447   -0.8381245118    1.2262928286
 C    1.2627534697   -2.1083993196    0.8852511287
 C    2.5826406272   -1.7865001016    0.1712403250
 N    2.4768432965   -1.3080104491   -1.1972890849
 C    1.4718619212   -0.7572319167   -1.7168291482
 O    0.2423792526   -0.3965049210   -1.2283898560
 H    1.2537798508    1.8729264294   -0.0806231151
 H   -0.4656619535    2.0641126606   -0.4743044580
 H    0.0476813877    1.9107477601    1.2176977237
 H   -1.5808163515   -0.0878569267    1.5800700211
 H   -1.4546573152   -1.4886874438    0.4112806864
 H    0.8816290380   -0.3241289609    2.1123359926
 H    1.4656368335   -2.6848470413    1.7958186502
 H    0.6568083761   -2.7515800895    0.2376974733
 H    3.1524050339   -1.0491702483    0.7557472118
 H    3.2120681004   -2.6842388862    0.1373916093
 H    1.4885082030   -0.5320640579   -2.7841626547