18

 C   -0.0424232008    1.5111973704    0.0547824003
 N    0.1033999769    0.0634572875   -0.0125089041
 C    0.7878708561   -0.5413801653   -1.1459004885
 C    2.3165315668   -0.5859621336   -0.8672468848
 C    2.5126158070    0.0159799530    0.5185726028
 C    1.1152639037   -0.6129014922    0.8653416073
 C    0.7424429847   -0.8940040762    2.2222517093
 C    0.4485966346   -1.1258811882    3.3652216042
 C    1.3693568482   -1.6392527901   -0.3255874890
 H    0.8682466630    2.0800980007   -0.1873960863
 H   -0.8254840073    1.8157435042   -0.6475587322
 H   -0.3700328325    1.7863835179    1.0622230888
 H    0.3684307206   -0.5681631680   -2.1438469541
 H    3.0462494751   -0.6986437128   -1.6584953492
 H    3.2971733241   -0.5063468712    1.0700734198
 H    2.6307427289    1.0968411554    0.6419998280
 H    0.1805381713   -1.3329151190    4.3716649125
 H    1.3218900395   -2.7160661426   -0.3847104245