20

 C   -0.2469798305    1.4563740083    0.0229706833
 C   -0.1307969730   -0.0361028582   -0.0282068781
 C   -0.1568295696   -0.8015650751   -1.1256054886
 C    0.0585585975   -2.2659788746   -0.8292698450
 O    1.3105803468   -2.7339291768   -1.3384371655
 C   -0.0592304889   -2.3343912003    0.7157628704
 C    0.0286683253   -0.8847867663    1.1969402379
 C    0.8450243586   -0.4383810257    2.3632815439
 N   -0.6163326791   -0.5500052311    2.4815881097
 H    0.6363163590    1.9154133552    0.4834460278
 H   -0.3579223468    1.8757365466   -0.9796782837
 H   -1.1150222176    1.7766135081    0.6131260343
 H   -0.2447115489   -0.4302888698   -2.1411527988
 H   -0.6787204515   -2.9105275396   -1.3181958863
 H    1.9814063200   -2.0959648691   -1.0701570792
 H   -1.0277843361   -2.7452726351    1.0149710608
 H    0.7178486965   -2.9816284534    1.1298942975
 H    1.4070838694   -1.1776078537    2.9285677488
 H    1.2968044100    0.5503344993    2.3419699881
 H   -1.0381340110    0.3751442513    2.4386428129