21

 C   -0.2392063283    1.4992645924   -0.1946855735
 O   -0.3725115201    0.3480794005    0.6077960354
 C   -1.3143072836   -0.5660439120    0.1180358063
 C   -0.9849761001   -1.4127611978   -1.1418830904
 C   -1.5743191136   -2.6452277732   -0.4026486389
 C   -1.4308646324   -1.8763546664    0.9444887645
 C   -0.1886809996   -2.2047251322    1.7416182350
 C    0.2165719932   -3.5839025135    2.0348717989
 O    0.9149505192   -2.8085946637    1.0574724176
 H    0.4976892859    2.1477523367    0.2850000014
 H    0.1107955474    1.2550095056   -1.2083650565
 H   -1.1922770703    2.0452644414   -0.2812027083
 H   -2.2973184305   -0.0778949243    0.0143797543
 H   -1.4355895398   -1.1193120694   -2.0925702771
 H    0.0968326048   -1.5123027995   -1.2591082954
 H   -2.6204916463   -2.8318876078   -0.6555328596
 H   -1.0114736214   -3.5743115622   -0.4967106185
 H   -2.2894476118   -1.9133296911    1.6233511831
 H    0.1098915489   -1.4293406779    2.4458999874
 H    0.7750929200   -3.8028095116    2.9438959929
 H   -0.3675406316   -4.4146319339    1.6401356112