14

 O    0.1958945361   -0.0197026329   -0.0530847413
 C    0.0461730502    1.1676358332    0.0047111932
 C   -1.1566264992    2.1433454930    0.0900261148
 C   -0.0908754099    3.2767667384    0.0274911936
 C   -0.0220270096    4.2122350414    1.2452296852
 C    1.1866287145    5.0336518926    1.2264254467
 N    2.1558974637    5.6609643623    1.1790918740
 N    0.9283541455    2.2274088254    0.0009578684
 H   -1.8358990814    2.0905991993   -0.7617555272
 H   -1.7258041284    2.0832077075    1.0198669651
 H   -0.1268520135    3.8704972015   -0.8918312260
 H   -0.8997511840    4.8681782115    1.2585070742
 H   -0.0349103711    3.6206896896    2.1672774637
 H    1.9260077771    2.2715866472   -0.1512532943