17

 O    0.0386276894    1.3499468410   -0.4616417595
 C    0.1206662623   -0.0304564485   -0.1604797430
 C   -1.2457497979   -0.5366301652    0.2739885522
 O   -2.2221765925   -0.2889829341   -0.7698181107
 C   -2.4256867069   -1.6968038746   -0.9950795684
 C   -1.5043525988   -2.0823837662    0.1892833193
 O   -0.4200130401   -2.8812773328   -0.2440013031
 C   -2.1593820358   -2.6502484378    1.3572988860
 C   -2.6616600190   -3.1213908640    2.3428429730
 H   -0.6887803625    1.4382951307   -1.0902871779
 H    0.4795399340   -0.6179126811   -1.0163338661
 H    0.8458825238   -0.1421263380    0.6528929857
 H   -1.5564470912   -0.0638164815    1.2116080832
 H   -3.4770441284   -1.9838181092   -0.9056372187
 H   -2.0183758833   -2.0367680765   -1.9539046261
 H    0.0006244911   -3.2658800797    0.5324770596
 H   -3.1179536242   -3.5378055724    3.2072977144