18

 C   -0.0981376848    1.5759167631    0.1113065941
 C    0.3383470510    0.1253465887   -0.1177509456
 C    0.7142958672   -0.5822637270    1.1673656589
 O   -0.4342257077   -0.7287862640    2.0864639424
 C   -0.2932794912   -2.1031580418    2.1552557838
 N   -0.9180715847   -2.9722944299    2.8042414756
 C    0.8475781293   -2.1080717211    1.1787439439
 C    1.2139766298   -3.0799384549    0.1480577281
 O    2.0384160455   -2.8436798909    1.2974191991
 H    0.7071530790    2.1650297339    0.5630572885
 H   -0.3751758330    2.0541299469   -0.8322518385
 H   -0.9613746623    1.6166647870    0.7812496945
 H   -0.4619408867   -0.4394068439   -0.6102640799
 H    1.2092967019    0.0922996238   -0.7852678666
 H    1.5330531643   -0.0779235938    1.6917512077
 H   -1.6496629144   -2.5593095577    3.3846590052
 H    0.7073375708   -4.0424314907    0.1285741872
 H    1.6210724958   -2.7297526377   -0.7989937784