18

 O    0.0400750164    1.4040679296   -0.1019289667
 C    0.0214826073   -0.0136854464   -0.0035449817
 C    0.6871492705   -0.5084270072    1.2857427653
 N   -0.1503071955   -0.2975891320    2.4676804702
 C   -1.3999531574   -0.2071184823    2.2975569119
 O   -2.1208018480   -0.2701340961    1.1487563802
 C   -1.3885231994   -0.5620633504   -0.0389350062
 C   -2.2146202609   -0.5625645251   -1.2779159658
 C   -1.7071465734   -1.8726588581   -0.7018503044
 H   -0.2986007075    1.7650870049    0.7250022275
 H    0.5677154943   -0.3747024231   -0.8805785772
 H    0.9245896473   -1.5769604811    1.2045508633
 H    1.6344560404    0.0198924574    1.4334758478
 H   -2.0689901996   -0.0339419139    3.1384462220
 H   -3.2700593569   -0.3459121154   -1.1600309598
 H   -1.7646956889   -0.1738986935   -2.1844221835
 H   -0.9079126261   -2.3975500901   -1.2151536203
 H   -2.4289921527   -2.5103812774   -0.2050923925