18

 C   -0.1414830579    1.5442976907   -0.0691600961
 C    0.0661356552    0.0446182460   -0.0184814957
 C    1.3966257957   -0.6377217786   -0.2344541276
 N    2.5534775281    0.2388964406   -0.0945149904
 C    2.6173540587    0.4460171928    1.1527546400
 O    3.0178483032    1.4978984710    1.9352047186
 C    1.8653584508    1.2017654844    2.8244124096
 C    1.6586593775   -0.1803478242    2.1098607676
 C    0.6431744006   -0.7433046122    1.1429663794
 H    0.7408843687    2.1021213553    0.2476641688
 H   -0.3672584440    1.8564538998   -1.0942271030
 H   -0.9853144590    1.8420346575    0.5625425931
 H   -0.7543467592   -0.5050958287   -0.4763856768
 H    1.4818594658   -1.4652538987   -0.9292629527
 H    2.1836088418    1.1634149572    3.8669253539
 H    1.0826206761    1.9456061905    2.6710705142
 H    2.0934218859   -0.9724518051    2.7251131941
 H    0.1335528520   -1.6579782884    1.4192012929