15

 O    0.5416919037   -0.1800666415    0.6731281937
 C    0.1810260229    0.9086704199    0.3205147823
 C    1.1170778989    1.9897471458   -0.2106944037
 C    1.3897485596    3.0630234098    0.8582906407
 O    2.4948710706    2.5120686541    1.5622026837
 C    3.1945253567    1.6452789625    0.6833505363
 O    2.4118197153    1.4949615437   -0.4854336025
 C    4.5183347213    2.3015269055    0.2816981785
 O    5.5963916042    1.8269895393    0.5081641909
 H   -0.8868937301    1.2256759807    0.3771647744
 H    0.6957206440    2.4127147826   -1.1294169587
 H    1.6419584228    4.0233696580    0.3910437531
 H    0.5704719805    3.2139429457    1.5667265868
 H    3.3697725408    0.6881892094    1.1868102183
 H    4.3842275190    3.2803052945   -0.2309177937