19

 O   -0.1033165293    1.4118288944    0.1066853758
 C   -0.0141469767   -0.0085799384   -0.0298783453
 C    0.7766742238   -0.6202275378    1.1519659214
 O    0.3417428968   -1.9232314851    1.5128068517
 C   -1.0536569152   -2.1307729278    1.3075851988
 C   -1.8805251244   -0.8261804944    1.4617129865
 C   -1.4532195753   -0.5509073574   -0.0181777549
 O   -2.2807029233    0.1642333054   -0.8817799086
 C   -1.3770243876   -2.0815817041   -0.2090092925
 H    0.6941352222    1.8097286343   -0.2529611289
 H    0.4400302609   -0.2607096294   -0.9980679203
 H    1.8451461466   -0.6987128584    0.9270484276
 H    0.6629393832    0.0762046184    1.9949080591
 H   -1.3254513877   -3.0151268221    1.8835417040
 H   -2.9491186471   -1.0455601646    1.5098046045
 H   -1.6119827329   -0.1151383838    2.2453220901
 H   -1.9912173506    1.0853834746   -0.8255952138
 H   -0.6298574348   -2.4896338162   -0.8949149324
 H   -2.3650837786   -2.4905334877   -0.4342310128