17

 O   -0.1492690466    1.3221015658    0.1522598593
 C    0.0213257791   -0.0717605046    0.0497587852
 C    0.3584026849   -0.8589627554    1.3759587968
 C   -0.9165925456   -1.7251095345    1.1953930991
 C   -2.1625381813   -1.1269093436    1.8655551181
 O   -2.3821366752   -0.2321881329    0.7466459075
 C   -1.3387667998   -0.8464836511   -0.0165861725
 C    0.9019738895   -0.4395654811   -1.0525967686
 C    1.6336929101   -0.7320703508   -1.9616859954
 H    0.6923892286    1.7399891244   -0.0584388538
 H    1.3037465302   -1.4021759422    1.3461463107
 H    0.3375955529   -0.2090145455    2.2541650657
 H   -0.8021993520   -2.8063616145    1.1637521710
 H   -3.0033576566   -1.8225977896    1.9827660935
 H   -2.0051195537   -0.5871980923    2.8072808146
 H   -1.6725693421   -1.1887219206   -0.9991360514
 H    2.2758944976   -0.9886347216   -2.7680341297