14

 N    0.0245680751    0.8156935965    0.9752141238
 C   -0.0970741302    0.0580443010   -0.0170767604
 C   -1.4482553381   -0.5522418511   -0.3689193391
 O   -1.4127592038   -1.4149117681   -1.4884638350
 C   -0.7557351771   -2.6126231375   -1.2350220519
 O    0.5537657029   -2.3796784397   -0.7089485408
 C    1.2552712698   -1.4001873850   -1.3576550821
 O    2.1124357371   -1.5877041690   -2.1564119122
 O    0.9468973695   -0.1479722363   -0.9183284113
 H    0.9748249336    1.1805404120    1.0531706474
 H   -1.8436231420   -1.0557847382    0.5227000049
 H   -2.1298672543    0.2602469449   -0.6304359765
 H   -1.2531915086   -3.2196513856   -0.4684699363
 H   -0.6966207939   -3.1447392339   -2.1888708804