19

 C   -0.0506549804    1.5163341701   -0.0536625032
 C   -0.0004676205    0.0010092514    0.0317291740
 C   -1.2472734895   -0.6681258953   -0.5202136057
 C    1.3362702233   -0.6925104018   -0.2023579300
 C    0.7184924069   -0.6709716483    1.1803760489
 C    1.3672305899    0.1014825209    2.3088259492
 O    0.1094687915   -1.8613104254    1.6260889819
 H    0.8789307359    1.9908832875    0.2696505705
 H   -0.2320819184    1.8280354359   -1.0889475551
 H   -0.8651496716    1.9217345910    0.5583170537
 H   -1.3702117794   -0.4257312190   -1.5822960100
 H   -1.2038033032   -1.7518048139   -0.4105752157
 H   -2.1430185855   -0.3164907171    0.0052641808
 H    1.3226042781   -1.6389660003   -0.7332327780
 H    2.2126804099   -0.0789851473   -0.3894862980
 H    1.8473664147    1.0199100329    1.9650482610
 H    0.6282876771    0.3596075148    3.0744613926
 H    2.1423262535   -0.5116387223    2.7862642879
 H    0.8112471077   -2.4602627639    1.9039958652