18

 C   -0.0639954267    1.5670518512   -0.0120618691
 C    0.0133284212    0.0578884745    0.0099342576
 O   -1.1494964983   -0.5881160312   -0.4210629548
 C    1.3045262417   -0.6551813399   -0.2564853490
 O    2.4316648119    0.1164952527   -0.5059216335
 C    0.6987524808   -0.6695914400    1.1724704470
 C    1.3840655374    0.1106900164    2.2844994599
 C    0.1173488739   -1.9187665662    1.5905252014
 N   -0.3087462700   -2.9279565735    1.9633593310
 H    0.8823252432    2.0342501098    0.2609588424
 H   -0.3138740490    1.9015510013   -1.0255981781
 H   -0.8510082291    1.9167733158    0.6620803877
 H   -1.2431438289   -0.4381965649   -1.3689157490
 H    1.2288661211   -1.5924835931   -0.8054657471
 H    3.2119780104   -0.3871083179   -0.2483325542
 H    2.0328305711    0.8832732452    1.8694453740
 H    0.6516802642    0.5831066270    2.9451276082
 H    1.9991959752   -0.5597759573    2.8911653156