16

 O    0.9625076365    1.3618012418    0.9747098826
 C    0.2480553657    0.6232409933    0.0066790456
 C    0.9571026242    0.6455140000   -1.3564018033
 O    0.1109682304    0.0278509635   -2.2916802080
 C    0.6709947041   -0.1006078155   -3.5768497627
 C   -0.3311411320   -0.8279705171   -4.4591105317
 O   -0.1689053773   -1.0000183274   -5.6365762704
 C    0.0021598163   -0.7637403381    0.4483582155
 N   -0.1397501957   -1.8477351154    0.8216964944
 H    1.7529628362    0.8668333255    1.2194804144
 H   -0.7204212454    1.1212401613   -0.1058698994
 H    1.1578279499    1.6959694796   -1.6146998151
 H    1.9239822868    0.1205322120   -1.2833651703
 H    0.9033182086    0.8777179370   -4.0269251735
 H    1.6079329877   -0.6820725749   -3.5554530094
 H   -1.2271141559   -1.1922833756   -3.9113489387