15

 O   -0.1537902425    1.3542413524    0.0436396538
 C   -0.0797966502   -0.0421224333   -0.0006959538
 C    1.0418221578   -0.6117109781    0.7084770511
 C    1.9989054796   -1.0547174241    1.2855817659
 C   -1.3595055220   -0.8014511557    0.0162189730
 C   -2.4557371872    0.0012885992   -0.7043044694
 C   -1.5737560236   -0.0625137697   -1.9750866536
 O   -1.7584862053    0.2308332912   -3.1202854251
 C   -0.4805991128   -0.8215073560   -1.2703577350
 H    0.6399870637    1.7094943363   -0.3725348320
 H    2.8373969736   -1.4474339840    1.8062179463
 H   -1.5272977579   -1.6173025158    0.7057873689
 H   -3.3722729468   -0.5757122431   -0.8570855051
 H   -2.6956616546    0.9871657313   -0.3052245537
 H    0.1760070081   -1.5778935706   -1.6808471712