16

 O    0.1002405481    0.0361559034    0.4762315579
 C    0.0462337715    1.1797039351    0.0962726652
 N    1.0735811438    1.8586550032   -0.5364324418
 C    1.7030458409    3.0682266381   -0.0341538109
 C    2.4603931699    1.7572360567   -0.1418093580
 C    3.3240845722    2.3608362743   -1.2903881898
 O    2.8675042905    2.1342138798   -2.6293112871
 C    2.1094505672    3.3741306041   -2.6304268358
 C    2.5399825795    3.6895596033   -1.1802613127
 H   -0.8712952010    1.7966366987    0.1460203571
 H    1.3147904613    3.5638362382    0.8479937931
 H    2.7428341395    1.0450752743    0.6236123151
 H    4.4052834527    2.2670556919   -1.1649576813
 H    2.5014510508    4.0714117953   -3.3791002250
 H    1.0417378275    3.2023510840   -2.7937818854
 H    3.0208998556    4.6403557394   -0.9609874605