17

 C   -0.0592650095    1.5415183769    0.0885027318
 C    1.5061198856    1.3133582986   -0.0134156314
 O    1.8614607943    0.6883088988    1.2193414748
 C    1.0549224050   -0.4696993370    1.0600023184
 C    1.5277817804   -1.2794768683   -0.1760002648
 C    0.2159485404   -2.0719253633   -0.4818406588
 O   -0.8403575699   -1.0677717722   -0.2903515621
 C   -0.0189767643    0.0218192289    0.0093871026
 C    1.2380449450    0.0452397522   -0.9112369217
 H   -0.4418945888    2.0336378458    0.9854388680
 H   -0.4513382168    2.0038437909   -0.8201321180
 H    2.1919521962    2.1149336619   -0.2772698360
 H    0.7961154638   -0.9344516699    2.0099444522
 H    2.4575166304   -1.8493889697   -0.2165225925
 H    0.1652112645   -2.4487362900   -1.5085876874
 H    0.0542881462   -2.9008292325    0.2152142738
 H    1.1494050275    0.1485289090   -1.9907728789