19

 O    0.2806964741    1.1892089942   -0.5731357356
 C    0.0975449004   -0.1163729837   -0.0631395839
 C    0.2293435328   -0.2794440419    1.4796875303
 C   -1.2951686134   -0.6232813972    1.5670279346
 C   -1.4089392679   -0.5057590677    0.0175038172
 C   -2.4335023649    0.6119214926   -0.2781387112
 C   -2.4787756167    1.4769940887    0.9920309310
 C   -2.1306985217    0.5212228218    2.1372138515
 O   -2.4569072529    0.6423780517    3.2907497633
 H    1.2152998967    1.4103917600   -0.5091562160
 H    0.7008545697   -0.8393390268   -0.6282480084
 H    0.8824933594   -1.0953604841    1.7969062592
 H    0.5289608756    0.6330098470    2.0032634719
 H   -1.5360054852   -1.5670787647    2.0563659335
 H   -1.6390363622   -1.4243606376   -0.5244728961
 H   -2.1650325825    1.1826257981   -1.1688226450
 H   -3.4136281930    0.1555452364   -0.4549620080
 H   -1.6927167533    2.2415641658    0.9540601784
 H   -3.4283708649    1.9817314975    1.1793001133