19

 C   -0.5878696889   -0.9641928679   -0.7067157328
 C   -0.3695048066    0.1933443273   -0.4666099517
 C   -0.0679381109    1.5876597293   -0.1643188273
 C    1.3289239852    1.7762685459    0.4531104567
 C    2.5034048084    1.5324806132   -0.5346569461
 C    2.6359803099    3.0802099005   -0.7278895741
 C    1.7640120784    3.2651541854    0.5587377475
 C    3.9595755647    3.6654282044   -0.7559602136
 C    5.0648555357    4.1405386461   -0.7570752563
 H   -0.7939123384   -1.9832849964   -0.9218000829
 H   -0.1522967295    2.1846008228   -1.0828250725
 H   -0.8227504765    1.9873484165    0.5255820748
 H    1.3817121566    1.2061192429    1.3831892808
 H    3.3835561776    1.1189483279   -0.0386481199
 H    2.2887264766    0.9402442570   -1.4268286142
 H    2.0760966197    3.4002981724   -1.6128435610
 H    0.9780786509    4.0238348825    0.5120098043
 H    2.3857831471    3.4543392429    1.4359231014
 H    6.0389405400    4.5626613672   -0.7649736231