20

 C   -0.2452557730    1.5740901494   -0.1342723667
 C   -0.0687401341    0.0779712852    0.0379382792
 C   -1.2493605262   -0.7414754120   -0.4376534476
 O    1.1825165886   -0.3526858522   -0.7052603273
 C    1.8003164432   -0.4798900030    0.4996922070
 N    2.9680429943   -0.2907247688    0.9419959687
 C    2.7322226789   -0.1133843994    2.4076768256
 C    1.2285547053    0.3441937779    2.5614661535
 C    0.6042464000   -0.4103506382    1.3776355928
 H    0.6519631600    2.1166306035    0.1736821522
 H   -0.4446379640    1.8138760543   -1.1827653068
 H   -1.0897138050    1.9266643508    0.4664806865
 H   -1.4718476055   -0.5234879579   -1.4866390412
 H   -1.0432580076   -1.8108656503   -0.3443586066
 H   -2.1362242715   -0.5034538180    0.1590625372
 H    2.9224986233   -1.0485052269    2.9515750971
 H    3.4308977600    0.6344319610    2.7917271831
 H    0.7972232891    0.0931426599    3.5334219010
 H    1.1670722421    1.4292078869    2.4301215456
 H    0.1987731322   -1.3837774023    1.6676291067