20

 C    0.9686554555   -0.2583711477    0.5573445521
 O    0.0816314551    0.0474382164   -0.4976000470
 C    0.3663380438   -0.6494404470   -1.6942690368
 C    0.1438459262   -2.0969365189   -1.6190617483
 C   -0.0650297135   -3.2832284755   -1.5530078137
 C   -0.2952853436   -4.7300770401   -1.4833594254
 N    0.8825665074   -5.6019316005   -1.3901249198
 C    2.0899965932   -5.2229121650   -2.1146577504
 C    2.0360186920   -5.1394746321   -0.6278241948
 H    0.9145440466   -1.3180345779    0.8427582135
 H    2.0108329774   -0.0210826068    0.2904253554
 H    0.6724518707    0.3567203912    1.4099436079
 H   -0.2919963668   -0.2142933471   -2.4540646664
 H    1.4047992406   -0.4584854147   -2.0149156711
 H   -0.9305431237   -4.9494115054   -0.6162686731
 H   -0.8612665851   -5.0460385345   -2.3684020675
 H    2.6106138929   -6.0386762063   -2.6080513585
 H    2.0898927871   -4.2779709120   -2.6536431773
 H    2.0008230040   -4.1399622212   -0.2000983804
 H    2.5165099003   -5.8925743651   -0.0098814582