20

 O   -0.1457040640    1.4506298603   -0.0892488645
 C    0.0137477317    0.0443641975    0.0552293627
 C   -1.3666650072   -0.5873930160   -0.0265441473
 C   -2.0842165143   -0.4255622357   -1.4106808495
 C   -2.3761034646   -1.9079501200   -1.7184811937
 C   -2.8653818609   -2.4352195270   -0.3377840314
 C   -1.3943281079   -2.1300597730    0.0720098003
 C   -1.0199820573   -2.5851951213   -1.3715417426
 H    0.7269353112    1.8541655073   -0.0809941220
 H    0.6688831638   -0.3591328885   -0.7326533081
 H    0.4769981549   -0.2031944847    1.0247535920
 H   -1.9699195533   -0.1464150392    0.7749194450
 H   -2.9938219079    0.1770258471   -1.3423476601
 H   -1.4340720673    0.0399364105   -2.1575786639
 H   -2.9100131008   -2.1321846861   -2.6427981433
 H   -3.6650297462   -1.8878579462    0.1715845257
 H   -3.0861719445   -3.5052260557   -0.3470210292
 H   -0.9389775573   -2.5814155621    0.9552850683
 H   -1.0526466952   -3.6718596378   -1.4816407508
 H   -0.1095426730   -2.1931116795   -1.8339571875