18

 C    0.3274973267    1.4315808515    0.0650048747
 C    0.0438036536   -0.0455551925    0.1382986424
 N   -0.1644991747   -0.6804792214    1.2268685293
 O   -0.0960806582    0.1707606538    2.3416165293
 C   -0.0324714647   -0.8403161330   -1.1319670816
 C    1.2310251293   -0.9203759459   -2.0841647887
 C    1.1256548155   -2.4484346639   -1.9892276094
 O    1.2765686570   -2.7842210180   -0.6081378429
 C   -0.0146121681   -2.3749138540   -1.0600565454
 H    1.2512601002    1.6701317090    0.6024313213
 H    0.4241400147    1.7686461383   -0.9691747591
 H   -0.4712063171    1.9982964104    0.5539585160
 H   -0.2437141987   -0.4412891050    3.0701375605
 H   -0.8893755765   -0.4945248757   -1.7239022720
 H    1.0349495809   -0.5145657709   -3.0788229155
 H    2.1639093018   -0.5091617614   -1.6920539360
 H    1.3979240735   -3.1996873187   -2.7212094708
 H   -0.8412553652   -3.0520392626   -0.8839067421