25

 C    0.3934176815    1.2679825662    0.5339890250
 C    0.0152237867   -0.2128700021    0.4323491455
 C   -1.4439420530   -0.4888949162    0.0047455170
 C   -2.4574974899    0.1161150737    0.9801713768
 O   -1.7152039547    0.1480887778   -1.2520834491
 C   -1.6705677694   -2.0075294343   -0.1008123217
 C   -3.0084374627   -2.5309227174   -0.6952638253
 C   -2.2118198428   -3.6635411079   -1.3951499743
 C   -0.9170269496   -2.8340129715   -1.1859848248
 H    1.4690443383    1.3824283880    0.6997065691
 H    0.1295590927    1.7982116393   -0.3853164678
 H   -0.1206045746    1.7633533864    1.3630528952
 H    0.6763648278   -0.7036706282   -0.2959198619
 H    0.2021037191   -0.7152669086    1.3897141882
 H   -2.3623257426    1.2036843168    1.0133332029
 H   -3.4760054391   -0.1210789689    0.6616355881
 H   -2.3091487803   -0.2805696276    1.9891715560
 H   -1.0449609439   -0.1415166982   -1.8801968285
 H   -1.4932699594   -2.4545270904    0.8843178649
 H   -3.8008869402   -2.8195763259   -0.0006627420
 H   -3.4080167511   -1.8117387219   -1.4153428667
 H   -2.2007921951   -4.5811427548   -0.7998599193
 H   -2.4872309881   -3.9202260048   -2.4208115113
 H   -0.6873398812   -2.2342888090   -2.0742905791
 H   -0.0087637582   -3.3635037905   -0.8883594168