25

 C   -0.1939469048   -0.3063543848   -0.7937238796
 C   -0.9535701807   -0.6010462509    0.5066033740
 C   -0.0635897027   -0.8932163935    1.7083094090
 C    0.7875912381    0.2716145381    2.1653027036
 O   -0.0536243471    1.3552365671    2.5127000355
 C    0.6624652531    2.5002268890    2.9024374878
 C   -0.5954899814   -1.7961684662    2.7994645230
 C    0.5411765476   -2.2691535261    1.9248416360
 C    0.3685816427   -3.4240706308    0.9612404212
 H    0.4522390650   -1.1426271226   -1.0799815937
 H   -0.8924141334   -0.1259695322   -1.6170864087
 H    0.4358529286    0.5841064936   -0.7014071334
 H   -1.5867137070    0.2564560668    0.7598486086
 H   -1.6332056597   -1.4440054972    0.3440558723
 H    1.4006939684   -0.0263178005    3.0329723801
 H    1.4889187594    0.5832190445    1.3717357790
 H   -0.0659279313    3.2803432349    3.1377943307
 H    1.2819567149    2.3133205750    3.7947916497
 H    1.3253951833    2.8635925164    2.1002610884
 H   -0.3932155956   -1.5365576377    3.8333266380
 H   -1.5704146839   -2.2471552360    2.6401953099
 H    1.5193742549   -2.2586968666    2.4021612217
 H   -0.6214971195   -3.4305098488    0.4975589638
 H    1.1128951250   -3.3938487412    0.1576157438
 H    0.4881123063   -4.3793094002    1.4848627993