21

 C    0.0024997490    1.5324751299   -0.0479676438
 C    0.0221873306    0.0763163111   -0.0448704308
 C    0.0503073767   -1.1275152387   -0.0423799367
 C    0.0460916212   -2.5863481515   -0.0364257033
 C   -1.3701610757   -3.1849773232    0.0808975390
 C   -1.3621568289   -4.7165054714    0.0853813773
 C   -2.7727923932   -5.3173671730    0.2136580428
 C   -2.7557940434   -6.8245092952    0.1045966679
 O   -3.1948029686   -7.5853076922    0.9275991432
 H    0.9801271642    1.9445249058    0.2260672519
 H   -0.2563966527    1.9271511396   -1.0368155923
 H   -0.7314129719    1.9232649199    0.6656832014
 H    0.5224519224   -2.9613987774   -0.9527317224
 H    0.6635088825   -2.9551440533    0.7939687988
 H   -1.8399746799   -2.8116717178    0.9981925965
 H   -1.9833307617   -2.8184028888   -0.7509451271
 H   -0.8923407300   -5.0834340060   -0.8375451719
 H   -0.7384424825   -5.0795883259    0.9124338982
 H   -3.2452452687   -5.0398015989    1.1604728874
 H   -3.3998303684   -4.9343709736   -0.6051355922
 H   -2.2805100012   -7.2071796294   -0.8306198138