23

 C    0.1055329942    1.5024989703   -0.3345421282
 C    0.0618391256   -0.0261913852   -0.2530292999
 C   -1.2993047235   -0.5537561226    0.2027181263
 C   -2.4162854678   -0.5295234762   -0.8868193389
 C   -2.2244928635   -2.0561516257   -1.0971989584
 C   -1.4196740773   -2.1069792163    0.2358376238
 O   -0.1865236984   -2.7894271067    0.2178082598
 C   -2.2450996417   -2.6003344315    1.4183544143
 O   -2.3742560453   -4.0127927884    1.2648862046
 H    1.0861708034    1.8519724777   -0.6726208999
 H   -0.6430155854    1.8916603876   -1.0334670779
 H   -0.0907768620    1.9569407436    0.6434073226
 H    0.3158609203   -0.4588719609   -1.2281653516
 H    0.8298112816   -0.3861128867    0.4399365580
 H   -1.5692250840   -0.0696469714    1.1503939129
 H   -3.4001745435   -0.2717710276   -0.4864295376
 H   -2.2246440178    0.1076277481   -1.7538252680
 H   -3.1163317103   -2.6835027161   -1.1646368132
 H   -1.5687498074   -2.2805466896   -1.9412790782
 H   -0.3941256911   -3.7105892378    0.4224714350
 H   -1.7137901089   -2.3520735636    2.3492126665
 H   -3.2292861436   -2.1094102733    1.4392349888
 H   -2.7024625437   -4.3847930577    2.0878757590