12

 O    0.0244235825    0.0004253790    0.0024926592
 C   -0.0437611307    1.1929431927    0.0101143926
 N   -1.1462328883    2.0269556123    0.0298208346
 C   -0.7104180328    3.3567925158    0.0314653325
 C    0.6364981322    3.2909419045    0.0126267068
 N    1.0953648406    4.5756377825    0.0133258454
 C   -0.0537681575    5.3525833187    0.0331786923
 N   -1.1688126600    4.6351769663    0.0447548675
 O    1.1202971845    2.0245909335   -0.0012095481
 H   -2.0814843625    1.6601498057    0.0409404047
 H    2.0460085734    4.9034355475    0.0021768738
 H   -0.0010906015    6.4289876614    0.0383250687