17

 O    0.0489620644    1.3201748017   -0.2725026914
 C   -0.0596805991   -0.0511744849    0.0942841616
 C   -1.5403630280   -0.3906447734    0.1115084594
 N   -2.1010703651   -0.1198752095   -1.2059226738
 C   -3.3840313537   -0.4632396313   -1.5132750729
 C   -4.2408291166   -0.0731756666   -2.5132772275
 C   -5.3797531687   -0.8782143732   -2.2817117010
 N   -5.2572952769   -1.6787680584   -1.2517524224
 O   -3.9587931146   -1.4051641077   -0.7518274435
 H    0.9747851095    1.5240084325   -0.4311553893
 H    0.4566608094   -0.6962751644   -0.6309527676
 H    0.3672043931   -0.2368949481    1.0904503100
 H   -1.6743658680   -1.4484034276    0.3506403109
 H   -2.0405451528    0.1949756461    0.8973306166
 H   -1.7856981486    0.7570770380   -1.5947158039
 H   -4.0756935144    0.6616825287   -3.2819092346
 H   -6.3050600798   -0.9009422618   -2.8419279705