18

 C   -0.1596023297    1.5423663227    0.0896405222
 C   -0.0405184564    0.0159979431    0.0238091912
 C    1.1878804982   -0.5046289042   -0.7835092746
 O    1.8659009322   -0.9042835408    0.4224538374
 C    0.7076259624   -0.6340578808    1.2079468175
 C    0.7836040880   -0.2279844490    2.6378588843
 C    0.2040780797   -1.5817568739    2.2407928694
 C   -1.3164345030   -0.6036533040   -0.3137363130
 N   -2.3323968693   -1.0931659706   -0.5686836465
 H    0.8090236187    1.9732356572    0.3554760839
 H   -0.4745948814    1.9481715551   -0.8758957757
 H   -0.8931238483    1.8458292715    0.8415133466
 H    0.9752090211   -1.3545419251   -1.4401597783
 H    1.7377994267    0.2663741187   -1.3324308897
 H    1.7706977292   -0.2164252433    3.0877737640
 H    0.1091198675    0.5398008200    3.0028120801
 H   -0.8669734449   -1.7350344085    2.3239981394
 H    0.8096791393   -2.4610309781    2.4313110118