22

 C    0.0815318869    1.5915779575    0.0987441749
 C    0.0020323713    0.0697311934    0.0119859493
 C    0.6160895092   -0.4565850435   -1.2976428014
 C    0.1788086730   -1.8637678323   -1.7606123308
 C   -0.1547339960   -2.8883742256   -0.6573782533
 C    0.7476031238   -2.8569172804    0.5856595759
 C    0.4017360777   -1.7324306623    1.5694348574
 O    0.7170753961   -0.4246106177    1.1431179025
 H    1.1209157235    1.9228741650    0.0038895977
 H   -0.5039874644    2.0581883634   -0.6989804995
 H   -0.2990073783    1.9370473748    1.0633492480
 H   -1.0551882898   -0.2367991657    0.0888627380
 H    0.4018752536    0.2538054164   -2.1047517766
 H    1.7015490694   -0.4281775321   -1.1475083891
 H   -0.7002059237   -1.7746367670   -2.4104171270
 H    0.9738708068   -2.2696088676   -2.3977167457
 H   -1.1916291381   -2.7449686208   -0.3251698000
 H   -0.1276151998   -3.8887073272   -1.1047952052
 H    0.6356604734   -3.8029461996    1.1312290208
 H    1.8053557179   -2.7826667084    0.3034844947
 H   -0.6718585010   -1.8006846697    1.8218418906
 H    0.9646120281   -1.8703085805    2.4990337188