18

 O    0.0083863956   -0.0492889910   -0.3877564855
 C   -0.0107404727    1.1298288302   -0.0631739602
 N   -1.2047845636    1.7573668248    0.1987246848
 C   -1.4635617419    3.1277320731    0.5938551533
 C   -0.7523800481    4.1972157569   -0.2843806879
 C    0.4269758583    4.1817090440    0.7404366856
 C   -0.5966439496    3.6301868560    1.7841776576
 C    1.4761518658    3.1662884156    0.3831005111
 C    1.2686097028    1.8877393624    0.0482578049
 H   -1.9944625461    1.1402148756    0.0890582685
 H   -2.5444860412    3.2264293898    0.7022894254
 H   -0.5281958878    3.9283615755   -1.3179373670
 H   -1.2912805080    5.1473924678   -0.2543153199
 H    0.8861673299    5.1443322244    0.9697387186
 H   -1.0977927274    4.4429174724    2.3156589247
 H   -0.2410877211    2.8830096463    2.4955753832
 H    2.5061236844    3.5155053958    0.4012758859
 H    2.1135757108    1.2506205201   -0.1899996131