12

 O   -0.2427363580    0.4498253781    0.8700236924
 C    0.0160183173    1.1296646350   -0.0825178653
 C    1.4105904185    1.7207800572   -0.3143409841
 N    1.3895450616    2.8592969040   -1.2068700629
 C    1.2409821176    4.1757437330   -0.9625085285
 N    1.2152983522    4.8241220622   -2.1049689686
 N    1.3437936497    3.8720610251   -3.0677228353
 N    1.4462487615    2.6952206543   -2.5494156409
 H   -0.7236982501    1.3666460467   -0.8770296184
 H    1.8550477414    1.9989467886    0.6434713932
 H    2.0370027067    0.9493513795   -0.7735031726
 H    1.1678493816    4.6057801563    0.0232519711