19

 C    0.1303072515    1.5781658921    0.0874326964
 C    0.0100612056    0.0449886604    0.0144041765
 C    0.7663042424   -0.5635926110    1.1845548948
 O    1.8049537461   -1.1647213075    1.0839219149
 C   -1.4580703114   -0.4541075628    0.0388861325
 O   -2.1704450741    0.0277304083    1.1727885936
 C   -2.2188678098   -0.1525106412   -1.2607190702
 C   -3.6400217739   -0.6764928504   -1.1902978889
 O   -4.6196832203   -0.0162706279   -1.4145683835
 H    1.1797206626    1.8800523865    0.0362307535
 H   -0.3941327814    2.0630713777   -0.7411282654
 H   -0.2796942022    1.9634278439    1.0268875015
 H    0.4928054600   -0.3213326938   -0.8980886011
 H    0.2814170430   -0.4038640509    2.1727109999
 H   -1.4409862230   -1.5434195181    0.1753296362
 H   -2.3917803011    0.9537211618    1.0240301779
 H   -2.2590042571    0.9205423516   -1.4744066441
 H   -1.7104178857   -0.6471212215   -2.0997544864
 H   -3.7196242814   -1.7522613973   -0.9116554380