18

 O    0.1021766644    0.0103011532   -0.4422951477
 C    0.0710186095    1.1915868704   -0.1702532820
 N    1.1191229461    1.9043462629    0.3324467085
 C    2.5697738359    1.6151900129    0.2064884551
 C    2.8246967570    1.9800888675   -1.2768449993
 C    2.4440808489    3.4679905120   -1.1001149611
 C    3.5520854047    3.9465229441   -0.1260308754
 C    2.8412657555    3.0309843330    0.8811023010
 C    1.4816535715    3.3103545156    0.1849368839
 H   -0.8479993625    1.8103028588   -0.2432437445
 H    2.9333816294    0.6745216492    0.6109874782
 H    3.8635823289    1.8556393017   -1.5931730581
 H    2.1760028855    1.4059504721   -1.9407852198
 H    2.1549408598    4.0435139802   -1.9774615698
 H    4.5910717884    3.7465811799   -0.4020931437
 H    3.4427984762    4.9954683753    0.1640010078
 H    2.9735830586    3.0592610714    1.9606733314
 H    0.7737186021    4.0942899497    0.4463149155