19

 C   -0.0109355029    1.6894195206    0.2532732117
 C   -0.0208119673    0.1737747189    0.0884245355
 C   -1.4147772091   -0.4489026791   -0.0227078341
 C   -2.1971589567   -0.0001253357   -1.2634122324
 O   -3.4566216153   -0.6452854645   -1.3587225215
 O    0.8433176317   -0.2518736941   -1.0170283526
 C    1.7556865771   -0.9754740735   -0.1708952944
 C    0.9202265859   -0.5786219741    1.0505011983
 O    0.9650503783   -0.7635954862    2.2278068662
 H    1.0096416514    2.0580387567    0.3872334016
 H   -0.4306426204    2.1757860305   -0.6314126044
 H   -0.6021697055    1.9803891695    1.1265815678
 H   -1.3065752298   -1.5412614711   -0.0563562541
 H   -1.9877308046   -0.2134768273    0.8809054474
 H   -2.4228101212    1.0690805375   -1.2096072587
 H   -1.5849162072   -0.1640295755   -2.1614498487
 H   -3.2982493803   -1.5809177164   -1.5197864407
 H    1.7895579756   -2.0510087159   -0.3871254967
 H    2.7763969504   -0.5727585703   -0.1915816402