23

 O    0.1130595955    1.2917161529   -0.2688302242
 C    0.0172027222   -0.1235451465   -0.2024586295
 C   -1.4289827597   -0.4945562035    0.1086337968
 C   -2.4054481145   -0.1119911993   -1.0400975169
 C   -2.7635804140   -1.4401166950   -1.7252380564
 C   -2.8070603151   -2.4397155074   -0.5582383610
 C   -2.7969355513   -3.9032673085   -0.9669894236
 O   -3.9752515015   -4.1648268466   -1.7175829525
 C   -1.5929968945   -2.0297692242    0.3006393594
 H    1.0111945254    1.5220494369   -0.5230400463
 H    0.3173773105   -0.5874893234   -1.1578257751
 H    0.6798996263   -0.5301045599    0.5793297241
 H   -1.7011570237    0.0390155688    1.0247402117
 H   -3.3104132987    0.3428995022   -0.6229329265
 H   -1.9645022496    0.6262994880   -1.7145283603
 H   -3.6971495316   -1.4043142453   -2.2906258321
 H   -1.9708655313   -1.7372022754   -2.4263325952
 H   -3.7280660852   -2.2619197156    0.0135342636
 H   -1.8915717907   -4.1078661830   -1.5642494590
 H   -2.7480578168   -4.5430751514   -0.0704695062
 H   -3.9657335559   -5.0893526730   -1.9812312366
 H   -0.6966673708   -2.5496617928   -0.0677556875
 H   -1.7056549452   -2.3110409580    1.3515116433