16

 C    0.0124440847    1.4157967584    0.0129216772
 C    1.4570314158    1.9711026693    0.0051070116
 C    2.1609624219    1.2000823699   -1.0475541402
 C    1.7243315989    0.0628942186   -1.6297496076
 C    0.4386401548   -0.5823346555   -1.2208209935
 O   -0.0212225008   -0.0023935335   -0.0039508382
 N    2.6376488813   -0.3488884226   -2.5938571173
 C    3.5663900987    0.5497202005   -2.5330932709
 O    3.3591127914    1.5332265694   -1.6179633810
 H   -0.5122012366    1.7186494855    0.9225127348
 H   -0.5346556161    1.8237246366   -0.8518959226
 H    1.4419904244    3.0463348281   -0.2083976665
 H    1.9273969670    1.8385086480    0.9875434716
 H   -0.3234699682   -0.4818347409   -2.0120876662
 H    0.5682927647   -1.6508510035   -1.0228375539
 H    4.4746852081    0.6143796818   -3.1109715572