22

 C   -0.8247074146    0.7966892707    1.0255959944
 C    0.6620978471    0.4965555739    0.7869780274
 C    1.2279764673   -0.3568530021    1.9314684503
 C    0.8577598660   -0.1513631923   -0.6006994444
 C    2.2806155558   -0.1804315211   -1.1313842752
 O    3.1919415239   -0.9783386544   -0.4107351996
 C    2.5235085335   -0.0759435662   -2.6187866177
 C    2.8998165242    1.0639553343   -1.6897731261
 H   -1.2315287254    1.4611424703    0.2554889976
 H   -1.4178079236   -0.1261526864    1.0151362448
 H   -0.9792528878    1.2756140426    1.9982230711
 H    1.2022018054    1.4536305262    0.7780839469
 H    0.7060878334   -1.3211834525    1.9871179087
 H    2.2910763530   -0.5571442161    1.7913658346
 H    1.0887248768    0.1454851996    2.8948804240
 H    0.4597733675   -1.1782116553   -0.5823293084
 H    0.2444349533    0.3911858529   -1.3307523568
 H    2.9111960749   -1.8960301162   -0.5017920594
 H    3.3366335169   -0.6691845694   -3.0219963040
 H    1.6757722625    0.0527019175   -3.2835201678
 H    2.3056080489    1.9709543082   -1.7156702342
 H    3.9540456008    1.2147567959   -1.4894466561