19

 O    0.0811010112    1.3581851343   -0.0117819942
 C   -0.0408511776   -0.0370762911   -0.0210515396
 C    0.7834368015   -0.7810604074   -1.1168265817
 C   -0.2242365043   -1.8042548458   -1.7713440796
 C   -1.0463365591   -2.0016393069   -0.5208957407
 C   -0.6738793989   -2.8218482855    0.4727134236
 C   -0.5344045924   -2.0685286106    1.7849567526
 C   -0.6510329273   -0.6191454359    1.3068445470
 C   -1.4070046072   -0.6256980164    0.0091240220
 H    0.8899718278    1.5830005510    0.4600811065
 H    1.1351909691   -0.0280430517   -1.8296671654
 H    1.6537763366   -1.3157945608   -0.7233917674
 H   -0.7673506596   -1.3348417349   -2.5974244495
 H    0.2667294685   -2.7096315029   -2.1351941217
 H   -0.1949642294   -3.7835171370    0.3153956092
 H   -1.2961277230   -2.2872410528    2.5482444856
 H    0.4354631669   -2.3118021566    2.2397248505
 H   -0.8496685129    0.1651959142    2.0320500662
 H   -2.3298193897   -0.1052637031   -0.2210092134