13

 C    0.0347561883    1.4080208170    0.0042479538
 O    1.3278850488    1.9144711680   -0.0205282742
 C    2.0441934052    1.6931597855    1.2001548626
 C    1.8742225248    0.2494161393    1.5505174382
 N    2.5397129507   -0.5215834998    2.3565926816
 O    1.9553730957   -1.7581881998    2.2391023459
 N    0.9056611085   -1.7539747853    1.3422748424
 C    0.8546114630   -0.5219594357    0.9219289107
 O   -0.0047657309   -0.0374610975    0.0200155933
 H   -0.5234944522    1.7676872826    0.8824940569
 H   -0.4567714313    1.7009673971   -0.9220978743
 H    3.0856812507    1.9536111020    1.0030972491
 H    1.6638938687    2.3508359166    1.9951809841