17

 C   -0.0485661324    1.3775697802   -0.1169143365
 N   -0.0953189926   -0.0173635327    0.2877785775
 C   -1.2707942454   -0.7195078053    0.1689625976
 N   -1.2981459451   -2.0408531841    0.0663567463
 N   -2.6594660290   -2.2950994253    0.0513059634
 C   -3.1699457138   -3.6393293033   -0.0474597751
 C   -3.3127338647   -1.1308720409    0.1284275492
 O   -4.6518676916   -1.0812156256    0.1230625785
 N   -2.4942449542   -0.1011372102    0.2032747980
 H    0.9091567537    1.8034363003    0.1927864553
 H   -0.1658524016    1.5271330061   -1.2011185536
 H   -0.8493872302    1.9230117326    0.3853009082
 H    0.7081941732   -0.5719407052    0.0318383097
 H   -2.8263975571   -4.2388801380    0.8006235454
 H   -4.2598061662   -3.5971749524   -0.0446727396
 H   -2.8258693568   -4.1098204452   -0.9733734852
 H   -4.8907498461   -0.1488511310    0.1959150012