20

 C   -0.3440534199    1.4860507309   -0.2556866507
 N    0.0134668196    0.0900443089   -0.0412122935
 C    1.3460261188   -0.4179540199   -0.2921179224
 C    2.5210020436    0.5006758433   -0.5818839634
 O    2.6892524813    1.5347453550    0.3760113633
 C    2.7742384400    1.0171934307    1.6936997234
 C    1.4289375999    0.4675178329    2.1748849761
 O    0.5712464014    1.4870480787    2.6726889462
 C    0.7720987560   -0.4128425790    1.0987162116
 H    0.4678079674    2.2103582064   -0.1000436899
 H   -0.6849987919    1.5923397368   -1.2910904704
 H   -1.1867951804    1.7361487947    0.3952819395
 H    1.3835135252   -1.3499753972   -0.8572449853
 H    3.4362694678   -0.1133568995   -0.6368364862
 H    2.3997159285    1.0016264206   -1.5485093758
 H    3.5405701657    0.2260418734    1.7420624474
 H    3.0856204452    1.8449402729    2.3373212008
 H    1.6222565601   -0.1735765713    3.0424529197
 H    0.4852662288    2.1573220581    1.9879575751
 H    0.3552506730   -1.3376788764    1.4930858844