14

 N    0.0283980395    1.4189104979    0.1661513160
 C    0.0375135907    0.0280138353    0.0489750636
 C   -1.0895197903   -0.7934051934    0.0176703928
 N   -0.6294051182   -2.1068014754   -0.0202298438
 C    0.7287199918   -2.1188023301   -0.0250231311
 C    1.1792072907   -0.8146802180    0.0189425725
 C   -2.4481137490   -0.4493660216    0.0200660420
 C   -3.6137566761   -0.1309807928    0.0098988427
 H    0.7751691686    1.8706489469   -0.3441323151
 H   -0.8638295058    1.8254346753   -0.0849883437
 H   -1.2300940454   -2.9109506464   -0.0493134510
 H    1.2780769607   -3.0460636258   -0.0571912786
 H    2.2107406565   -0.4983281463    0.0385453366
 H   -4.6380351937    0.1463680443    0.0230469969