25

 C   -0.1609518042    1.6348511389   -0.2938765777
 C   -0.1635510823    0.1021837228   -0.3198964082
 C   -1.5056016596   -0.5657678546    0.0551676414
 C   -2.6396395498   -0.2033785074   -0.9290053764
 C   -2.5412375066   -0.7984234740   -2.3356282874
 O   -3.8713411194   -0.5718578201   -0.2986337352
 C   -1.2686022087   -2.0676290393    0.3300745578
 C   -2.4696289184   -2.8622425882    0.8447417757
 O   -0.7339512686   -2.6558023032   -0.8602140827
 H    0.8533372225    2.0188043549   -0.4436085159
 H   -0.7883208731    2.0697325651   -1.0778454047
 H   -0.5210455493    2.0175145876    0.6681277558
 H    0.1639766949   -0.2588142733   -1.3000765943
 H    0.5915798221   -0.2566316514    0.3904483785
 H   -1.8274358332   -0.1432049312    1.0175220189
 H   -2.6216306670    0.8928728203   -1.0292958993
 H   -2.5470808122   -1.8879341554   -2.3088122426
 H   -3.3834404730   -0.4459581106   -2.9447376449
 H   -1.6220015025   -0.4807209263   -2.8366611881
 H   -4.5840504883   -0.3653860150   -0.9114543162
 H   -0.4936437165   -2.0976223728    1.1164674400
 H   -3.2702166065   -2.9023100783    0.1067548469
 H   -2.1553250299   -3.8846327108    1.0918364529
 H   -2.8761754384   -2.4102275683    1.7542440651
 H   -0.5954250024   -3.5919172997   -0.6862375596