20

 C    0.5920423602    1.5342833353   -0.1517519645
 C    0.0842918670    0.1070608736    0.0200499887
 C    0.6695891478   -0.9471781989   -0.9714497176
 C    1.3752611811   -1.6703726484    0.2087536979
 N    2.7645363363   -1.3348325178    0.4127201464
 C    3.0476719003   -0.4839131002    1.4512316014
 O    4.1497861845   -0.0870742483    1.7586944713
 C    1.7152887268   -0.1523105015    2.1388077278
 C    0.6372098981   -0.7383229816    1.2267872864
 H    1.6856137115    1.5843003331   -0.1671607943
 H    0.2326933389    1.9485277424   -1.1001792852
 H    0.2361043906    2.1903346560    0.6499959410
 H   -1.0094299922    0.1205516756    0.0136478702
 H   -0.0914738097   -1.5641318013   -1.4561685626
 H    1.3426400065   -0.5550513023   -1.7389525501
 H    1.2039533681   -2.7494758491    0.2807091285
 H    3.5132817784   -1.6838862744   -0.1651819602
 H    1.7183257749   -0.6167271918    3.1304882109
 H    1.6423988314    0.9264692931    2.2934447226
 H   -0.1615333304   -1.2322604935    1.7807297014