21

 C    0.2241703361    1.5150875011    0.0923433125
 C    0.1392233071    0.0234516270   -0.0104372218
 C   -0.0729888170   -0.7372271875   -1.0976361944
 C   -0.2685761595   -0.2965724867   -2.5166372516
 O    0.6699011135   -0.8991043149   -3.4097776901
 C   -0.1383597775   -2.2094154405   -0.7359168429
 C    0.4800163193   -2.2589951488    0.6793160019
 O    1.8676446690   -2.5718999810    0.6375093931
 C    0.2362825728   -0.8368121118    1.2355399511
 H    1.1558299410    1.8197723629    0.5856404116
 H    0.1753881053    2.0127617533   -0.8790462883
 H   -0.5927347790    1.9101092646    0.7103385356
 H   -1.2496466259   -0.6256423210   -2.8815037588
 H   -0.2457846813    0.7989843389   -2.6005662090
 H    1.5484482020   -0.6315819569   -3.1205697341
 H   -1.1810320900   -2.5594752125   -0.7323127676
 H    0.4103910087   -2.8522570179   -1.4305419794
 H    0.0377901995   -3.0366056831    1.3062865604
 H    2.2887483584   -1.9213736363    0.0641431979
 H    1.0444039193   -0.5411669566    1.9146831710
 H   -0.6981063016   -0.7816816023    1.8130904329