13

 O   -0.6351963566    0.8197501062   -0.6488641895
 C    0.1662765335    0.9384359580    0.2390881078
 C    1.3567797565    1.8864784718    0.1733600331
 C    1.4042351537    2.7411190869   -1.0682238170
 C    1.4375544274    4.0593795325   -0.8195979317
 C    1.4094377364    4.3277055238    0.6289060630
 O    1.4401194639    5.3748509896    1.2227457425
 C    1.3336242162    2.9258435981    1.3097357962
 O    1.2592193703    2.7101577747    2.4853437482
 H    0.0952930227    0.3661411228    1.1861953888
 H    2.2569969289    1.2669917999    0.3036175248
 H    1.3915847564    2.2942832373   -2.0551256809
 H    1.4715589606    4.8489212483   -1.5588057453