17

 O   -0.0547739452    1.4066693425   -0.0610823635
 C    0.0070981259    0.0094172637   -0.1014289780
 C    0.6089111441   -0.6604349008   -1.2933344643
 C    0.1457408984   -1.9167213350   -1.3308250346
 C   -0.6852704959   -2.1091100797   -0.0841218493
 O    0.3053875061   -2.0945230432    1.0188740176
 C    0.2954485183   -0.7163979647    1.3345050110
 C   -1.1872737769   -0.4535194388    1.6703807626
 C   -1.3466736747   -0.7238294227    0.1583663683
 H    0.8303802177    1.7440816874    0.1102011574
 H    1.3438295600   -0.2038108651   -1.9455675404
 H    0.4391826107   -2.7105469038   -2.0053757823
 H   -1.2978376884   -3.0053068811   -0.0009014616
 H    1.1406304704   -0.4506687548    1.9693529436
 H   -1.6512371153   -1.1398018134    2.3809766625
 H   -1.3998397734    0.5874071679    1.9126640316
 H   -2.2329528118   -0.4809679685   -0.4270794606