14

 N   -0.0280623326    1.3169884392    0.0064542529
 C    0.0024180650    0.0483259567    0.0022680155
 N   -1.1745595115   -0.6907547345    0.0088583879
 C   -2.4637006154   -0.1618606452    0.0202138333
 C   -3.4268710397   -1.1119162611    0.0246909838
 C   -2.7664242234   -2.4138762481    0.0156249823
 O   -3.1969819808   -3.5454706178    0.0156668961
 C   -1.2605461564   -2.0915133848    0.0053795927
 N   -0.2736529548   -2.8798160642   -0.0043917244
 H    0.9163700787    1.6957873703    0.0006251836
 H    0.8796718328   -0.6014365282   -0.0062320133
 H   -2.5519194337    0.9149898425    0.0241480025
 H   -4.4918154980   -0.9441837189    0.0333283740
 H   -0.6336023703   -3.8394531561   -0.0045851370