21

 C   -0.1392290458    1.5504866910    0.1271686445
 C   -0.0125303719    0.0585551716    0.0342577076
 C   -0.8227529335   -0.9206530371    0.8678691302
 C    0.6726846540   -0.9708230840    0.9047715850
 O    1.1784282852   -1.7066905254   -0.2119232653
 C    0.6471060346   -0.6979081755   -1.1270276934
 C   -0.1706260749   -1.2732294838   -2.2683501245
 C    0.6513359621   -2.2033548953   -3.1663135387
 O   -0.0929968500   -2.6980420352   -4.2694155515
 H    0.7843107286    2.0497001108   -0.1875340988
 H   -0.9532547040    1.9233647248   -0.5062767542
 H   -0.3552530681    1.8647958277    1.1532189684
 H   -1.2971028706   -0.4680782721    1.7341138171
 H   -1.3762241681   -1.7426827725    0.4228529304
 H    1.2953076988   -0.8959128020    1.7892648776
 H    1.4902816523   -0.1136493941   -1.5251963970
 H   -1.0313308945   -1.8223272691   -1.8667862315
 H   -0.5648208911   -0.4482404634   -2.8750190490
 H    1.4935934819   -1.6536492800   -3.6016043629
 H    1.0727499999   -3.0191900348   -2.5621048135
 H   -0.7781196947   -3.2784240616   -3.9232213606