21

 C    0.1974884787    1.3070021069   -0.0563721195
 O   -0.1893112961   -0.0106360922    0.2591102495
 C    0.6252472655   -0.6128539727    1.2379136441
 C    0.1798307338   -2.0478585024    1.4599912449
 C    1.1629121386   -2.5685858891    0.4333577157
 C    1.9525576243   -1.2214295048    0.6883698490
 C    2.5889049797   -1.8788187244    1.9395508566
 C    1.4133781995   -2.8611384014    1.8942064262
 C    1.2874638637   -4.1601047329    2.6329713483
 H    1.2059253590    1.3550340075   -0.4942148958
 H   -0.5187648303    1.6883062268   -0.7883208056
 H    0.1791305766    1.9597726794    0.8308616438
 H    0.7187306015    0.0558917062    2.1106808265
 H   -0.8248058412   -2.3965407642    1.6635727818
 H    1.0321588391   -3.2098419624   -0.4258208662
 H    2.5537435739   -0.6765617647   -0.0364602611
 H    3.5315718789   -2.3844049370    1.7066143591
 H    2.7231496329   -1.2500727466    2.8293546948
 H    1.1705785936   -3.9986366872    3.7112676458
 H    0.4178066311   -4.7299949219    2.2883078273
 H    2.1750241670   -4.7858854429    2.4843910246