18

 C   -0.0087171733    1.5025600180    0.1331197385
 C   -0.0193693854    0.0194961678   -0.0166192386
 C   -0.0154807741   -0.7513965315   -1.1298750076
 C   -0.0095166963   -2.2214281096   -0.7561847341
 C    0.0786525982   -2.1536871664    0.7640846307
 C    1.2292234637   -1.4736644298    1.4049025165
 N   -0.0467799953   -0.7332376015    1.1934653090
 C   -0.0035400840   -0.2991905193   -2.5103725704
 O    0.0489910425   -1.0483098243   -3.4667338649
 H    0.8594511612    1.8137605807    0.7262928141
 H    0.0189486330    2.0213202043   -0.8258580053
 H   -0.8970547153    1.8247056554    0.6871133182
 H   -0.9313274360   -2.7199821265   -1.0765821832
 H    0.8165472130   -2.7658594363   -1.2256287473
 H   -0.4935535205   -2.8608244480    1.3554760325
 H    1.4661555430   -1.6763687627    2.4446116079
 H    2.0716418306   -1.1852720009    0.7815078045
 H   -0.0444871549    0.8019594508   -2.6579915309