19

 C    0.0258841561    1.5640193608    0.0091123258
 C    0.0335028417    0.0218552816    0.0245071671
 C    0.7966673907   -0.5033146629    1.2575982309
 C   -1.4229115035   -0.5165553521    0.0320834617
 C   -2.1779955049   -0.0892482443    1.2065711369
 N   -2.7626671501    0.2574236776    2.1417656483
 C    0.6812063641   -0.5203527687   -1.2716791415
 N    1.9778789946   -0.1589405945   -1.4788203417
 O    0.0780844501   -1.2249139844   -2.0598362437
 H    1.0397892182    1.9742484617    0.0286516418
 H   -0.4736163239    1.9490258209   -0.8854615511
 H   -0.5024963371    1.9482350763    0.8866007728
 H    0.2945938925   -0.1861762147    2.1763622710
 H    0.8469969286   -1.5966883962    1.2563600794
 H    1.8212000948   -0.1215122769    1.2923619323
 H   -1.9436888965   -0.1854317804   -0.8705618579
 H   -1.4128141228   -1.6090492400   -0.0115239460
 H    2.4960370289    0.4211671408   -0.8445829538
 H    2.4323074385   -0.4935246647   -2.3123968824