21

 C   -0.8459672843    1.1040069620    0.0298064337
 C    0.0288384661   -0.1328395933   -0.1288305029
 N    0.9047333544   -0.0442596703   -1.3168965916
 C    2.1067255914    0.7833439997   -1.1117539172
 C    2.1868888087   -0.6921024320   -0.9606926068
 C    2.1175967372   -1.2536029649    0.4488543072
 C    0.9326626006   -0.5095237590    1.0613171938
 C    1.0503733406    0.3135728119    2.2930928143
 N    0.3837335973   -1.0035166000    2.3257526774
 H   -0.2425803532    2.0083158563    0.1527456516
 H   -1.4753604082    1.2326202301   -0.8545607346
 H   -1.5057193611    1.0123490825    0.8998958759
 H   -0.6265379225   -0.9957207510   -0.3192886393
 H    2.4814316300    1.2587289094   -2.0132747340
 H    2.1814563982    1.3932552301   -0.2147890068
 H    2.6532704639   -1.2909128882   -1.7376672937
 H    1.9046464947   -2.3284149505    0.4185418695
 H    3.0421673593   -1.1179749430    1.0176099327
 H    1.9989703530    0.3542823626    2.8230767728
 H    0.4420400021    1.2081752463    2.3908200254
 H   -0.6269295784   -0.8760547788    2.3404681126