14

 C    0.0108009262    1.4019816923    0.1112823179
 N    0.1156630657   -0.0290596267   -0.0635267961
 C    0.6264080936   -0.6367570094   -1.1292170248
 C    1.1399675535   -0.0129792547   -2.2400485662
 N    1.6267490749   -0.7928728927   -3.2484349744
 N    1.7110432657   -1.9618024277   -3.3895413630
 O    1.0679520521   -2.8414619274   -1.9957309753
 C    0.5916827880   -2.1587843027   -1.0071905917
 O    0.1162837369   -2.6260080637    0.0161687920
 H    0.9988422662    1.8773398161    0.0827936889
 H   -0.6112221604    1.8518287406   -0.6721558108
 H   -0.4462295380    1.6095251786    1.0791420786
 H   -0.2080478140   -0.6824008971    0.6428252488
 H    1.1964531795    1.0530496545   -2.3946129440