23

 C   -0.0645590826    1.4526828945   -0.0063070447
 C    0.0173393209   -0.0605924018    0.0188983999
 C    1.3784780627   -0.6666635780   -0.2060698805
 C    0.7523118133   -0.6774436784    1.1807677810
 C    0.8100445802   -2.2344456325    1.1970871564
 C    1.1984550249   -2.9858569416    2.4374399581
 C    0.0876517257   -2.8621667432    0.0288424523
 C    1.4380086397   -2.2236330022   -0.1936227736
 C    2.6296375831   -2.9612180626   -0.7320912531
 H    0.8427980384    1.9064214672    0.4069497925
 H   -0.1857796613    1.8238015146   -1.0298087278
 H   -0.9146357029    1.8112457358    0.5842705697
 H   -0.8673886527   -0.5429628240   -0.3843141618
 H    2.2125646462   -0.0679101456   -0.5540921614
 H    1.0394025077   -0.0881100335    2.0442436636
 H    0.3892425420   -2.9762356675    3.1789900615
 H    1.4275909650   -4.0329077154    2.2143003982
 H    2.0831211233   -2.5441971888    2.9122761008
 H    0.1212632745   -3.9491942317    0.0355563041
 H   -0.8370065055   -2.4752350339   -0.3856691406
 H    2.6506775219   -2.9373297694   -1.8292696514
 H    3.5682645390   -2.5186120966   -0.3767798258
 H    2.6199068966   -4.0123744157   -0.4261732573