20

 C    0.0153483972    1.4698878036    0.0171735194
 C    0.0181221974   -0.0333235261    0.0142986470
 C    0.5988875464   -1.0049508583   -1.0769838756
 C    0.0156404388   -1.9557639822    0.0168194118
 C    0.6374466775   -1.0027389273    1.0878655753
 O    2.0110193281   -0.9962130183    1.3575706468
 C   -1.1828605027   -0.9981477617    0.0479079219
 C   -2.4850448792   -0.9742982543    0.7241227041
 N   -2.3771673165   -1.0484533980   -0.7675102443
 H    1.0385824537    1.8592194147    0.0386292162
 H   -0.4771103484    1.8750561124   -0.8744269682
 H   -0.5057716268    1.8593512512    0.8989224970
 H    0.0873272327   -1.0118123228   -2.0415973980
 H    1.6832032544   -1.0014897102   -1.2282761229
 H   -0.0018150831   -3.0448746037    0.0136400046
 H    0.1401561435   -0.9940792777    2.0610206457
 H    2.4986350247   -1.1018098052    0.5345854690
 H   -2.8906257045   -1.8687612246    1.1892916668
 H   -2.8274708320   -0.0416414663    1.1667638663
 H   -2.5785576012   -0.1338075250   -1.1675262429