16

 C    0.1190911216    1.4784069641   -0.3117092694
 C   -0.0637083454    0.0408740182    0.1223455882
 O    0.6963683614   -0.8894057716   -0.7453582073
 C    1.4065731664   -1.3692674573    0.3162430117
 O    2.3092759015   -2.1507739331    0.3114567496
 C    0.6961626812   -0.5126202869    1.3556626709
 C    1.6609492438    0.3335705065    2.1931060988
 O    2.4379079960   -0.5064812550    3.0209043601
 H    1.1745510088    1.7591099966   -0.3450636442
 H   -0.3044064250    1.6260742873   -1.3091641528
 H   -0.3999305048    2.1493401546    0.3805011118
 H   -1.1178941679   -0.2472356233    0.1008779574
 H    0.0710848853   -1.1079178841    2.0259076697
 H    2.2927656552    0.9549478956    1.5410864909
 H    1.1086250656    1.0076578545    2.8555693073
 H    2.8785993163   -1.1488785259    2.4491203374