15

 O    0.0143459718    1.4092089351    0.0050455222
 C    0.0124401866    0.0250364458   -0.0035594473
 C    1.0008645610   -0.4962986382   -1.0153723553
 O    1.6663448350    0.2567498081   -1.6864391854
 C   -0.0054264901   -0.6976728155    1.4087008688
 C   -1.4823534663   -0.1616717228    1.5211983824
 C   -1.4045102594   -0.6865233416    0.0380029148
 C   -0.6723220836   -1.8702708190    0.6805302054
 O   -0.6892018822   -3.0623161512    0.6880526769
 H    0.6725400146    1.6675435266   -0.6606957414
 H    1.0841470578   -1.5958964113   -1.1103541324
 H    0.7765846173   -0.6856039489    2.1636641946
 H   -2.1507485856   -0.6928293858    2.1991507439
 H   -1.5614789818    0.9186774458    1.6107541621
 H   -2.1753101051   -0.6621851773   -0.7281120494