23

 C   -0.0903668648    1.4517685441   -0.3914713642
 C   -0.2157242317   -0.0689209150   -0.3596971459
 C   -1.3246120751   -0.5766841395    0.5515946997
 O   -1.9345909880    0.1613960962    1.2919950302
 C   -1.6455566719   -2.0742933567    0.4735010785
 C   -2.0135206972   -2.6183395963    1.8594669256
 C   -2.7769893437   -2.2512347107   -0.5660823686
 C   -3.0558321633   -3.7027249197   -0.9420125823
 O   -4.0171481411   -3.6899043039   -1.9865501596
 H    0.7484771491    1.7599588014   -1.0217871413
 H   -1.0022938891    1.9108659609   -0.7829129718
 H    0.0644421427    1.8478278368    0.6149194319
 H   -0.3730225321   -0.4837122864   -1.3643454376
 H    0.7176358154   -0.5339708486   -0.0084618967
 H   -0.7544340939   -2.5936441262    0.0950656334
 H   -2.2565401272   -3.6834455472    1.8213125179
 H   -1.1842456386   -2.4903894648    2.5620106112
 H   -2.8718902665   -2.0737524072    2.2602623498
 H   -3.6957038624   -1.7928503048   -0.1835949058
 H   -2.5246654491   -1.7205583470   -1.4923295263
 H   -2.1193353582   -4.1867593205   -1.2672758469
 H   -3.4275027193   -4.2621733432   -0.0708339769
 H   -4.2561829138   -4.5993404918   -2.1874685046