18

 C   -0.0861982942    1.4264190584   -0.0422147754
 N    1.1309444233    0.6031495531   -0.1078419818
 C   -0.1836050595   -0.0523906432    0.0315461617
 C   -0.4014938496   -0.7504380420    1.3378689892
 O   -1.8090059760   -0.8667863519    1.7175533197
 C   -1.6965927004   -2.2872502257    1.9112996207
 C   -2.0150925971   -3.0898872317    0.6435161387
 O   -0.6454848387   -2.9486463020    0.1760316388
 C   -0.2473474816   -2.2847848264    1.3917194290
 H   -0.1857932341    2.0212710874    0.8615935959
 H   -0.4440112226    1.9127725339   -0.9456194375
 H    1.4514898712    0.5261768300   -1.0690264940
 H   -0.5885509689   -0.5738928871   -0.8309137011
 H    0.1668371561   -0.2436172609    2.1289207164
 H   -2.0626853149   -2.6240520002    2.8822297184
 H   -2.2649802771   -4.1452866520    0.8109421668
 H   -2.7449216525   -2.6293087773   -0.0301288742
 H    0.6403200066   -2.7234144423    1.8491305290