17

 C    0.0814113208    1.4677337890   -0.0678674683
 C    1.3142880831    0.6563226272   -0.0854566507
 C    1.6895353607    0.0907513751    1.2925229102
 C    1.7347830560    1.0201090632    2.5071053395
 O    0.3722802688    1.2713598762    2.8632354629
 C   -0.4023638288    0.1151278217    2.5355763621
 C    0.2645526239   -0.5206596667    1.3190097364
 N   -0.0555437707   -0.0056555328   -0.0721112478
 H   -0.1933289092    2.0446105841    0.8073213834
 H   -0.2285300957    1.8958846218   -1.0167467753
 H    1.9543929370    0.5951666867   -0.9602534599
 H    2.5134298367   -0.6219575451    1.2601486588
 H    2.2655705511    0.5346801765    3.3416458348
 H    2.2043949090    1.9887698356    2.3124004284
 H   -0.4040112898   -0.5984862182    3.3750640063
 H   -1.4308278153    0.4421550472    2.3555869172
 H    0.1921557722   -1.6083793415    1.3116440218