18

 C    0.0142770342    1.5448572303    0.0441041186
 C    0.0261895639    0.0298401381   -0.0626325096
 C    0.8036945848   -0.4972131421   -1.2722397662
 C    1.0668856755   -1.9722300228   -1.1366576536
 C    0.9286732064   -2.6103579873    0.0207534996
 C    0.5581300682   -1.8631088931    1.2838281467
 O    0.6236111497   -0.4631702045    1.1472584085
 C   -0.7834503397   -2.2924951692    1.7629163794
 N   -1.8272134747   -2.6252557067    2.1309612968
 H    1.0339566007    1.9278436365    0.1507399601
 H   -0.4306261642    1.9852180431   -0.8531869909
 H   -0.5664049278    1.8627301016    0.9134889289
 H   -1.0075568026   -0.3452153418   -0.1173575596
 H    0.2333807026   -0.2994475010   -2.1881607825
 H    1.7525138638    0.0477819737   -1.3774803192
 H    1.3774836313   -2.5177044372   -2.0235293143
 H    1.0843474604   -3.6795692173    0.1191590913
 H    1.2721294876   -2.1148878202    2.0785581960