17

 N   -0.0349788329    1.3472673567    0.1641060319
 C    0.0540567736    0.0333744837   -0.1924174612
 O    1.0844259253   -0.4607137353   -0.6072433928
 C   -1.2458188622   -0.7609588328   -0.0530768597
 C   -0.9817035840   -2.2518713940    0.1667608566
 C   -2.2655806539   -3.0951922569    0.1230202262
 C   -1.9703558660   -4.5725239649    0.2540741117
 O   -2.4672822652   -5.3078571813    1.0672728913
 H    0.7733670822    1.9336020763    0.0356973409
 H   -0.8893817527    1.7628801351    0.4896151816
 H   -1.8645126451   -0.3482298252    0.7527648147
 H   -1.8145812725   -0.6166424351   -0.9822841681
 H   -0.2732196244   -2.5900395709   -0.5958873655
 H   -0.4807161700   -2.3937736853    1.1313937372
 H   -2.9733395207   -2.8121139093    0.9083348022
 H   -2.7612027069   -2.9462874432   -0.8483985539
 H   -1.2247189546   -4.9542787275   -0.4831034031