17

 C    0.5972014478    0.8950480710   -0.2707225708
 O    0.8712439773    0.3829791923    1.0153087789
 C   -0.1381587781   -0.4598329427    1.5351222983
 C   -0.0411605614   -1.8954604366    0.9986621979
 C    1.2985280507   -2.5880655515    1.3592270707
 O    0.9032821127   -3.6807804458    2.2303936427
 C   -0.4467258337   -3.6343840543    2.2693379605
 N   -1.0757923995   -2.7359722902    1.6335993072
 H   -0.3549882663    1.4466363571   -0.2896678602
 H    1.4087271307    1.5826496633   -0.5214221493
 H    0.5552992257    0.1118987691   -1.0420759452
 H    0.0031454421   -0.4763309018    2.6216917680
 H   -1.1412921062   -0.0584113733    1.3311140584
 H   -0.2078025741   -1.8867602836   -0.0836773572
 H    1.8193894618   -3.0149074744    0.4983126583
 H    1.9848947928   -1.9365600858    1.9055676598
 H   -0.9025557922   -4.4113538127    2.8735549621