19

 C    0.0506309284    1.5433225171    0.2058499047
 C    1.5393497889    1.9872649314   -0.0084957684
 C    2.1897279249    0.7573796554    0.5711040009
 C    2.6526647560    0.6513884357    1.8193423190
 C    2.2583033467   -0.6018959952    2.5628430084
 O    0.8436113657   -0.8142468810    2.3332572665
 C    0.5702636192   -1.0235988168    0.9782329041
 C    0.0528304165    0.0177802562   -0.0262219672
 C    1.5006328233   -0.4390934388   -0.0363797621
 H   -0.2678270235    1.7965243403    1.2219558897
 H   -0.6304853805    2.0366537035   -0.4934665909
 H    1.7365745366    2.1147690247   -1.0793559640
 H    1.7944462992    2.9136327829    0.5126765351
 H    2.9903709052    1.5183233939    2.3804146694
 H    2.8160281829   -1.4968878487    2.2560694001
 H    2.3691026207   -0.4817610125    3.6426527507
 H    0.1907053473   -2.0282530709    0.7923837402
 H   -0.6576665646   -0.3769095421   -0.7456365061
 H    1.9734906371   -1.0255130153   -0.8169735300