15

 N    0.1739651456    1.4206335502    0.1262686675
 C   -0.0120316458    0.0250313752    0.0328637776
 C   -1.1081509015   -0.7920395106    0.0296317751
 C   -0.6434643044   -2.1580720922   -0.0236335605
 C   -1.3634774544   -3.3684650455   -0.0519039313
 C   -1.9329799439   -4.4332599510   -0.0791440634
 C    0.7394304921   -2.0893032430   -0.0595922247
 O    1.6748300505   -3.0570918120   -0.1208335651
 N    1.1191265012   -0.7875000076   -0.0234963294
 H    0.1759710131    1.8733745412   -0.7838114966
 H   -0.5624526621    1.8463135199    0.6760696155
 H   -2.1397810691   -0.4780814420    0.0502209249
 H   -2.4522741873   -5.3584174775   -0.1026447426
 H    1.2055657880   -3.9014051622   -0.1465743768
 H    2.0659114379   -0.4540726029    0.0415666400