16

 C   -0.5946245734    1.2585798212    0.0544694712
 N    0.0078722700   -0.0709983308    0.0482691136
 C    1.4033984179   -0.1918930221   -0.3183684509
 C    0.9742125751   -0.4486353281    1.0946684879
 C    1.3845990705    0.4459996144    2.1855522523
 C    1.4163535446    0.2485318488    3.5367437118
 N    1.8939907405    1.4023033692    4.1037562053
 N    2.1462407093    2.2653727881    3.2314630014
 O    1.8292811230    1.6792766397    1.9410827662
 H    0.0951010105    2.0692738388    0.3224916102
 H   -0.9872152408    1.4520711904   -0.9481094208
 H   -1.4344758811    1.2662663408    0.7555560513
 H    1.6648684514   -1.0332874720   -0.9547221286
 H    1.9730401043    0.7192822868   -0.4932609060
 H    0.8576649150   -1.4754687634    1.4311142780
 H    1.1404856433   -0.6099380418    4.1242583871