13

 N    0.0222079888    1.2703593712    0.1430164847
 C   -0.0460736632   -0.0751848980    0.0359656900
 N   -1.1403397942   -0.8000874879   -0.0475232389
 C   -0.6596260759   -2.0793724998   -0.0747351731
 O   -1.4780390257   -3.1289147726   -0.1571452035
 C    0.7144245528   -2.1045163848   -0.0117382229
 O    1.0986603498   -0.7540227068    0.0606613722
 C    1.6900222592   -3.1515210961   -0.0152277429
 O    2.8970367714   -3.0071988945    0.0394257895
 H    0.9074578238    1.7066434574   -0.0567044270
 H   -0.8082060853    1.7814935895   -0.1056725552
 H   -2.3807961320   -2.7857156741   -0.1805340111
 H    1.2185526105   -4.1567527336   -0.0761491120