13

 O   -0.0677016462   -0.0387164306   -0.0916915143
 C   -0.0549648344    1.1367876589   -0.0767621335
 C   -1.0173861730    2.3936100958    0.0942606093
 O    0.0303574144    2.9144087148    0.9512154467
 C    1.0004741009    2.3811377098   -0.0063264254
 C    0.5934994828    3.0557962748   -1.3012047312
 C   -0.7497509645    3.0653156030   -1.2308685025
 C    2.3604836556    2.2837747202    0.4202060405
 C    3.5065906916    2.1566903996    0.7579128560
 H   -2.0054093113    2.3598981273    0.5435763118
 H    1.2634774951    3.3525946847   -2.0934226713
 H   -1.4818159965    3.3704096567   -1.9631398704
 H    4.5181181956    2.0488934550    1.0639421144