18

 O    1.8967943734   -0.3723586885   -0.0798689393
 C    2.0863874775    0.8192866529   -0.0997164985
 N    1.0918765351    1.7900606059   -0.0457388537
 C   -0.2458663079    1.3875538003    0.0388165202
 O   -1.1733868005    2.1570577345    0.0901499780
 C    1.4100195229    3.2155070038   -0.0750194760
 C    2.3984693257    3.8292503351    0.9515670138
 C    2.8624918199    4.7961720944   -0.1743712843
 C    2.2662129255    3.8141410650   -1.2222603473
 H    3.0953513371    1.2614789142   -0.1642519781
 H   -0.3393116290    0.2936156734    0.0521347541
 H    0.4453485541    3.7195242671   -0.0198283611
 H    1.9706906247    4.2534045825    1.8622307899
 H    3.1932201896    3.1312498869    1.2302125909
 H    2.3170903476    5.7426207670   -0.1477692507
 H    3.9301691741    5.0096134375   -0.2408185800
 H    3.0219227341    3.1117071018   -1.5855240839
 H    1.7308248359    4.2260095363   -2.0801266240