19

 C   -0.0231890760    1.3837716351   -0.2848156907
 C    1.4512947812    1.5430760303    0.1323142867
 C    1.2960497423    0.1253227710    0.7130499068
 C    2.2459280750   -1.0347186870    0.2984524303
 C    2.5801775925   -1.5273599850    1.7184367528
 C    1.2067883841   -1.5797201812    2.4252902310
 C    1.4034726873   -0.0631723738    2.2412044981
 O    2.8425459111   -0.2555267397    2.4068637371
 O   -0.0579748420    0.0270498715    0.2119947517
 H   -0.7370097060    2.0282199930    0.2426575566
 H   -0.2319173323    1.4289262143   -1.3596739683
 H    2.1568795395    1.6183840373   -0.6967946872
 H    1.6710182601    2.3265119930    0.8601370299
 H    1.7250300406   -1.7701222860   -0.3201161422
 H    3.1365769466   -0.6830625524   -0.2274423245
 H    3.3578611188   -2.2778984309    1.8560643434
 H    0.3658650583   -2.0664966367    1.9271346305
 H    1.2925721985   -1.8770019556    3.4707368016
 H    0.9653107902    0.6958006127    2.8897837265