15

 O   -0.0430422619    1.4367846740   -0.0536257678
 C   -0.0457920074    0.0496540419   -0.0030710640
 C   -0.4994981501   -0.6564327099    1.2472843903
 N   -0.8895326237    0.1379514981    2.3611232314
 C   -1.9364568383    0.8559116895    2.2406731958
 N   -2.7844409234    0.8882722035    1.1507004293
 C   -2.6488875883    0.0776482197    0.0242148043
 O   -3.5353186791   -0.0029394235   -0.7972896450
 C   -1.3759389132   -0.6815229554   -0.0280866017
 H    0.3354096708    1.7627491307    0.7718340804
 H    0.7503980362   -0.4274633638   -0.5717440925
 H    0.0242048015   -1.5663926106    1.5202657659
 H   -2.2410276155    1.5009625843    3.0631434303
 H   -3.6502176809    1.4054796580    1.2055375946
 H   -1.4360588667   -1.5798009666   -0.6303245611