13

 O    0.0060909606    1.3759925031   -0.2020548325
 C    0.0304485767   -0.0103258005    0.0097139640
 C    0.1971062611   -0.4087859477    1.5106175646
 C   -1.3292420167   -0.5400984512    1.5974513826
 O   -2.1275945863   -0.5730425792    2.4765044058
 C   -1.4454169235   -0.5346076721    0.0356782465
 C   -2.4897897419    0.2288533569   -0.6114914732
 N   -3.3379308465    0.8310933852   -1.1145365289
 H    0.9000123041    1.7204138267   -0.1069706214
 H    0.6839770468   -0.5303406410   -0.6986331084
 H    0.6921951707   -1.3737606933    1.6622212757
 H    0.6516759939    0.3389960560    2.1638174061
 H   -1.4811124090   -1.5774647229   -0.3007306708