16

 N    0.0010267978    1.4072637120    0.2257022364
 C    0.0036564772    0.0317364684    0.0692603147
 C   -1.2003965658   -0.6822334947    0.0281037539
 C   -1.1172781433   -2.0646647869   -0.0717893975
 O   -2.2656024634   -2.7786274686   -0.1110518656
 N    0.0135554503   -2.7628982102   -0.1314517156
 C    1.1611732529   -2.0677750227   -0.0989840054
 N    2.3178200827   -2.8191692354   -0.2239583892
 C    1.2094183374   -0.6762644431    0.0012220015
 H    0.8328359360    1.8877239737   -0.0810173192
 H   -0.8465280103    1.8785646071   -0.0507696203
 H   -2.1639413528   -0.1917008819    0.0803366331
 H   -1.9906905077   -3.7026560766   -0.1851208270
 H    2.1834776118   -3.7966712042   -0.0119818387
 H    3.1519602543   -2.4250587014    0.1822498677
 H    2.1608085130   -0.1557935254    0.0218876310