21

 C    1.0665610585    0.2292112301    1.1372412306
 C    0.0686368328    0.1750243591   -0.0259301413
 C    0.6711544280   -0.4484108635   -1.2827308238
 C    0.8664646579   -2.0011689321   -1.3312115833
 C   -0.6258080462   -2.1033801116   -1.7591212553
 C   -0.3152262391   -0.7463079476   -2.4760478482
 C    0.6866060169   -1.2251628590   -3.5162423371
 O    0.7749598966   -0.9416257154   -4.6801702546
 C    1.5844579639   -2.1747923944   -2.6839902461
 H    1.3900558272   -0.7738841684    1.4342868571
 H    1.9618321654    0.7985625567    0.8643743158
 H    0.6220075648    0.7082630737    2.0147612474
 H   -0.8303610247   -0.3640377086    0.2910349851
 H   -0.2594067656    1.1935901437   -0.2696691931
 H    1.5620119356    0.1286340429   -1.5634004506
 H    1.2584639292   -2.5583669527   -0.4802941411
 H   -0.9223054587   -2.9515016529   -2.3831347132
 H   -1.3309110240   -1.9924212165   -0.9360714155
 H   -1.0814365412   -0.0476754659   -2.8070527134
 H    2.6252269788   -1.8363151124   -2.6871673360
 H    1.5541504840   -3.1955389750   -3.0779701733