20

 C   -0.2044371147    1.4803190980   -0.0008153432
 C   -0.0472272491   -0.0072403633   -0.0303186615
 C    0.1041102042   -0.7956069229   -1.0899281728
 C    0.2262645053   -2.2288206731   -0.6675908162
 O    0.1310448809   -2.2038145923    0.7520737977
 C   -0.0408846379   -0.8562398672    1.2334999470
 C    1.1384417759   -0.5255367277    2.1613695741
 C   -1.3720067397   -0.7875287045    1.9980207368
 H    0.5939894880    1.9558108091    0.5814421757
 H   -0.1828983071    1.9009764271   -1.0093253339
 H   -1.1513341090    1.7736123042    0.4681851004
 H    0.1382968452   -0.4769533429   -2.1254932460
 H   -0.5713175278   -2.8633834857   -1.0869103030
 H    1.1844931170   -2.6799616744   -0.9724110182
 H    2.0829917667   -0.5803582176    1.6131900475
 H    1.0407511647    0.4768689425    2.5906845509
 H    1.1742977003   -1.2464072647    2.9834200128
 H   -1.3639924118   -1.5113965596    2.8181776952
 H   -1.5383091728    0.2076695250    2.4229853786
 H   -2.2068782484   -1.0279342500    1.3340368882