18

 C   -0.0527589056    1.4128652758   -0.1528455328
 C    1.2874487799    0.7651997548   -0.0710691520
 N    0.0675275848   -0.0216974385    0.1020060544
 C   -0.2360602362   -0.4866595210    1.3942105162
 C   -0.0556048535    0.0722867853    2.8648212282
 C    0.0677859097   -1.3588480767    3.3683488844
 C   -1.2991001474   -0.6983251091    3.2852971813
 C   -1.4789688197   -1.2408825984    1.8373836994
 C   -0.1033733574   -1.9061025448    1.9211499263
 H   -0.3482230502    2.0534542619    0.6752448671
 H   -0.4753360276    1.6843172816   -1.1158557483
 H    1.8549950108    0.5581770305   -0.9736662599
 H    1.8883428864    0.9726314547    0.8117036678
 H    0.3585337911    0.9816666694    3.2809851873
 H    0.6050582492   -1.7355890629    4.2285749175
 H   -2.0091447337   -0.4723648630    4.0697478503
 H   -2.3455603817   -1.5256128379    1.2569873122
 H    0.2650728410   -2.7881226817    1.4159762005