21

 C    0.1018520265    1.5614368009   -0.0813395250
 C   -0.0071624106    0.0431198394   -0.0192595484
 C   -1.4069430862   -0.4989890617   -0.3722312691
 C   -1.7393689286   -1.5206245267    0.7469546415
 O   -0.7892437167   -1.3583613029    1.8026484684
 C    0.3137122524   -0.5955902255    1.3648191762
 C    1.5485158654   -1.2976158599    0.7716393668
 C    1.1964214596   -2.1571082136   -0.4098728384
 C    1.2398456116   -0.6705010980   -0.5963738431
 H    1.0904103308    1.9001968714    0.2469609977
 H   -0.0500652933    1.9267134349   -1.1037466336
 H   -0.6493584463    2.0359058165    0.5595311760
 H   -2.1374037943    0.3152842098   -0.3737283651
 H   -1.4355214463   -0.9659963105   -1.3603868252
 H   -2.7376554448   -1.3595855634    1.1699671111
 H   -1.7086798886   -2.5526069450    0.3723130211
 H    0.5783567265    0.1163767390    2.1531749531
 H    2.5023165119   -1.3948796249    1.2759834829
 H    2.0382379758   -2.6925652644   -0.8384592104
 H    0.2676780892   -2.7153785367   -0.4510303625
 H    1.9275715860   -0.2014330586   -1.2908349540