12

 N   -0.0263261202    1.3530454395    0.0101852395
 C    1.2718315055    1.8280567440   -0.0002385596
 C    2.1801143709    0.7868662761   -0.0148205615
 C    1.3815889869   -0.3903479679   -0.0130784307
 C    0.0437319561   -0.0169173321    0.0022129625
 N   -0.7753430823   -1.0906776511    0.0046675098
 N   -0.0079294821   -2.1504446202   -0.0086279891
 N    1.2979986822   -1.7456920351   -0.0194106434
 H   -0.8587236000    1.9145112264    0.0214206121
 H    1.4583338096    2.8908540645    0.0035473009
 H    3.2528295937    0.8863540654   -0.0249760278
 H    2.0146141398   -2.4509806095   -0.0302073527