17

 C    0.0232068824    1.4085352593    0.0557087847
 C    0.0463095872   -0.0445327404    0.0200937771
 C    0.0718189685   -1.2492517509   -0.0019212128
 C    0.0873155614   -2.6738307595   -0.0455647039
 O    0.9033609838   -3.4496898899    0.8989321715
 C    0.2515362445   -4.4553772682    0.0735537380
 C   -1.1083903645   -3.7004817888   -0.0233398002
 C   -1.1368611093   -3.7995208272   -1.5623583759
 C    0.3666636782   -3.6467732601   -1.2536871475
 H    0.6734434012    1.7867117528    0.8520979529
 H    0.3726393335    1.8365257180   -0.8902334896
 H   -0.9874404802    1.7871952030    0.2435855125
 H    0.4551933830   -5.5060979979    0.2718500528
 H   -1.9209163169   -3.7149390052    0.7026376110
 H   -1.4521663302   -4.7582731939   -1.9822268384
 H   -1.6110451705   -2.9713382996   -2.0947034577
 H    1.2259648480   -3.6003572615   -1.9221911544