17

 C   -0.3119155930    1.4229793071    0.1283361951
 C    0.1154446960   -0.0207979455   -0.0633242532
 N    0.0721226590   -0.7790111455    1.1178710231
 C    0.3846917874   -2.1150176505    1.3242707157
 O    0.7695597001   -2.9095118872    0.5108750446
 N    0.4880558003   -0.5520511079   -1.1517790034
 C    0.5261237844    0.2292600768   -2.3638551103
 C    0.5755262922   -0.6944943866   -3.5762284187
 O    0.3219892841   -0.3367210382   -4.6961444361
 H   -0.5491784040    1.6623082566    1.1675021867
 H    0.4825174540    2.0981712553   -0.2033293535
 H   -1.1967695953    1.6402574034   -0.4783849883
 H   -0.2352858637   -0.2888008268    1.9428544770
 H    0.2257168916   -2.3684208429    2.3937492728
 H   -0.3121164899    0.9279029909   -2.5017295390
 H    1.4448238077    0.8395248926   -2.4057703023
 H    0.8817290591   -1.7337585318   -3.3298398899