23

 C   -0.2479773832    1.5186775708    0.0054057666
 C    0.0430878205    0.0200062635    0.0199606539
 C    0.8187992746   -0.5029779184   -1.2028590199
 C    1.2868786015   -1.9027366765   -0.7711928450
 C    1.5834973157   -1.7472190822    0.7263298469
 C    1.6935899109   -2.9658653344    1.6219396155
 C    2.9188676813   -2.1556710674    1.2826163368
 O    3.8638718555   -2.6639436328    0.3849655107
 C    0.9141898321   -0.4502729642    1.2072693526
 H    0.6825147133    2.0962990090   -0.0487606312
 H   -0.8629750110    1.7968096046   -0.8573125422
 H   -0.7822563436    1.8333325952    0.9085531282
 H   -0.9124119317   -0.5221481037    0.0639539224
 H    0.2182815664   -0.5140691277   -2.1178074708
 H    1.6859125392    0.1448417246   -1.3889704741
 H    0.4781206177   -2.6283881253   -0.9228498287
 H    2.1577178299   -2.2625911733   -1.3227946778
 H    1.2963618395   -2.9143410769    2.6315374861
 H    1.6039722700   -3.9378935505    1.1450576495
 H    3.3383082751   -1.5234547235    2.0675893190
 H    4.3029450897   -3.4101816291    0.8056196712
 H    1.6745836177    0.3112428243    1.4279325521
 H    0.3287113988   -0.5890431060    2.1220750083