13

 O   -0.2495266043    1.3907748043    0.2001482439
 C   -0.0614019200    0.0678463723    0.0609150373
 C    0.0786736233   -0.6324080054   -1.0948522504
 C    0.0787337804   -0.2700570584   -2.5378597807
 C    1.3742147654   -0.4812284952   -3.1990054332
 N    2.3910108312   -0.6548886549   -3.7183266819
 O    0.2431196960   -1.9544053226   -0.7310188362
 C    0.1909971279   -1.9506449301    0.6094609589
 N    0.0091578532   -0.7832222367    1.1440654299
 H   -0.3052866746    1.5728765326    1.1461580421
 H   -0.6831573097   -0.8350810974   -3.0898899951
 H   -0.1889349964    0.7884862675   -2.6194038583
 H    0.3020824579   -2.9001034859    1.1086127338