12

 C    0.1449238188   -1.1747637300   -0.0055770100
 C    0.0529543530    0.0255117889    0.0021282744
 C   -0.0749564361    1.4214003965    0.0115092836
 C   -1.1797588630    2.2491241138    0.0317130988
 C   -0.6806523183    3.5937938518    0.0318922218
 C    0.6707387242    3.4849593174    0.0120465164
 O    1.0527431622    2.1821427165   -0.0004519344
 C   -2.5336022450    1.8380550519    0.0487628025
 N   -3.6464350410    1.5186967544    0.0628861955
 H    0.2195539922   -2.2346124602   -0.0121874245
 H   -1.2665068712    4.4980112530    0.0451328763
 H    1.4717866240    4.2050764962    0.0045295996