14

 O   -0.0257517022    0.0495551935    0.0049926405
 C   -0.0179326864    1.2465473312    0.0109864551
 C   -1.2987333323    2.1422802532    0.0330399760
 C   -0.6751282695    3.4889325183    0.0308951969
 C    0.6816292959    3.5127862469    0.0123245872
 C    1.2628041222    2.1355645513   -0.0022829798
 C    0.9746300206    4.9006647128    0.0148465812
 N   -0.1206008258    5.6284945230    0.0333523654
 O   -1.1932704807    4.7143767648    0.0438097427
 H   -1.9221792223    1.9255493667   -0.8416607020
 H   -1.8976632299    1.9170524332    0.9226051251
 H    1.8810430925    1.8857796524    0.8678794740
 H    1.8570036112    1.8942539024   -0.8913721446
 H    1.9267072969    5.4124104402    0.0041502623