18

 O    0.6170390750    0.1112220905   -0.7928812385
 C   -0.1807815950    0.4090312029    0.3447462731
 C   -1.5141693178   -0.2405273870    0.1615305368
 C   -2.2643823739   -0.3953666038   -1.1392026521
 C   -3.7331500159   -0.1137869297   -0.8893081969
 N   -3.9017645233   -0.5796716067    0.4952552210
 C   -2.9907394738   -1.7141719498    0.7343886736
 C   -1.8713726039   -1.6242404755   -0.3412961999
 C   -2.6456414847   -0.3546195550    1.2302484094
 H    1.4743159495    0.5301917978   -0.6743456635
 H    0.2926106674    0.0369665633    1.2689764560
 H   -0.3101399088    1.4987508384    0.4653402118
 H   -1.7585514317   -0.1802163381   -2.0711600824
 H   -3.9850647886    0.9500014740   -0.9515888180
 H   -4.3996367411   -0.6760701537   -1.5513640809
 H   -3.3546173643   -2.5980023130    1.2421528913
 H   -1.2265677530   -2.4156331788   -0.6935234304
 H   -2.6673017459    0.0901645243    2.2175838596