17

 C   -0.1397344626    1.5683047617   -0.1690452916
 C    0.0153408582    0.0618714467   -0.0478504680
 C    0.6797570328   -0.6944515142   -1.2085017849
 N    2.0620113919   -0.1699410382   -1.3164527040
 C    1.7528403070   -1.2260872194   -0.3301442872
 C    1.1557759664   -0.5272553302    0.9066644094
 C    1.9962034460    0.3804272638    1.6605372601
 C    2.6798629358    1.1345130170    2.3011555808
 H    0.7993356263    2.0236618038   -0.4901089530
 H   -0.9164064492    1.8161933710   -0.9011727987
 H   -0.4255576937    2.0111410078    0.7901301381
 H   -0.9351890105   -0.4075717080    0.2214855176
 H    0.1915015034   -1.1511548612   -2.0608401608
 H    2.4988959268   -0.6264882478   -2.1162417343
 H    2.2724540058   -2.1761212343   -0.3443240329
 H    0.7111917253   -1.2670912151    1.5794161294
 H    3.2938401902    1.8002588967    2.8551340501