15

 C   -0.0254806004    1.4316354405    0.2664675735
 C   -0.1073793367    0.0299596942   -0.2806066366
 O    0.3365864148   -0.3584974208   -1.3220831362
 O   -0.7860595296   -0.7697629012    0.6076157087
 C   -0.8538211654   -2.1120889913    0.3234693528
 C   -1.8705694868   -2.7668842730   -0.3158137661
 N   -1.4893844598   -4.0915576552   -0.2803262632
 C   -0.2925011981   -4.1561071386    0.3643124902
 N    0.1180117081   -2.9666104174    0.7463959838
 H    0.5981352229    1.4350762654    1.1654909193
 H    0.4075233053    2.0906819956   -0.4847895448
 H   -1.0179180113    1.7848681756    0.5580333465
 H   -2.7819713212   -2.4306331816   -0.7775271553
 H   -2.0043371424   -4.8649947997   -0.6660210565
 H    0.2270903206   -5.0874181624    0.5293422239