18

 C   -0.0366588327    1.4717506665    0.0184876507
 C    0.0010642047    0.0174380003   -0.0076358967
 C    0.0391846293   -1.1893503859   -0.0299054588
 C    0.0483243873   -2.6040541160   -0.0532797137
 C    1.1611075916   -3.4221835162   -0.1525099393
 N    0.7319154400   -4.7177178239   -0.1400683621
 C   -0.6397984260   -4.7544250790   -0.0345047005
 C   -1.1050504729   -3.4642410766    0.0221866618
 C   -2.5281980813   -3.0170525072    0.1394956718
 H    0.5341251920    1.8751041199    0.8633241680
 H    0.3832623120    1.9029900885   -0.8980051185
 H   -1.0648398479    1.8393034975    0.1123929778
 H    2.2060681131   -3.1707574205   -0.2293476316
 H    1.3291960085   -5.5229610116   -0.1991992957
 H   -1.1712666419   -5.6924616053   -0.0084190419
 H   -2.6879685135   -2.4181783054    1.0433907318
 H   -2.8235476578   -2.3898702830   -0.7093921784
 H   -3.2089481746   -3.8723497220    0.1783444052