16

 C   -0.1787057826    1.6189104463   -0.0346315158
 C    0.0403367966    0.1020814916   -0.0369635397
 C   -1.2847007989   -0.6738040658    0.0909759226
 C    0.7928554811   -0.3663079143   -1.2478831988
 N    1.1053285050    0.4088108165   -2.2531747881
 O    1.7841028696   -0.4463246268   -3.1361296081
 C    1.7974171738   -1.6414500446   -2.5476270262
 N    1.2147851138   -1.6789186198   -1.3947536169
 H    0.7678944299    2.1612675959   -0.0993595677
 H   -0.7955058890    1.9271220796   -0.8839281895
 H   -0.6885311272    1.9195816884    0.8852964596
 H    0.6639622390   -0.1688664728    0.8256824874
 H   -1.9576175571   -0.4297991537   -0.7378731259
 H   -1.1100263790   -1.7523099589    0.0853264557
 H   -1.7870720716   -0.4071772846    1.0255450293
 H    2.2849415465   -2.4459465571   -3.0790629478