27

 C    0.0451250096    1.5987634479    0.0037643654
 C    0.0066917284    0.0700020970    0.0797463052
 C   -1.4081195195   -0.5057337769   -0.0439314069
 C   -1.4571264142   -2.0354266809    0.0293030565
 C   -2.8734684263   -2.6093251348   -0.0988691982
 C   -2.9265829530   -4.1286633110   -0.0136449316
 C   -2.6265357464   -4.8300077926    1.3449986827
 C   -3.7598371167   -5.8429508783    1.0299545891
 C   -4.3102255438   -4.8393288934   -0.0187546383
 H    1.0673172910    1.9796476009    0.0945534499
 H   -0.3603927320    1.9577819765   -0.9488829647
 H   -0.5505720076    2.0501442228    0.8052084854
 H    0.6392122758   -0.3522690414   -0.7125133748
 H    0.4501867631   -0.2613450897    1.0281649568
 H   -2.0414775649   -0.0832642709    0.7489800289
 H   -1.8529768518   -0.1727131930   -0.9924061402
 H   -0.8226319080   -2.4575414601   -0.7628259839
 H   -1.0147570349   -2.3676025767    0.9786368573
 H   -3.5118000792   -2.1842795787    0.6892176699
 H   -3.3125527234   -2.2841363222   -1.0529447784
 H   -2.2898517106   -4.5627859446   -0.7951211436
 H   -1.6202137214   -5.2222573599    1.5120972966
 H   -2.8896716814   -4.1820818769    2.1885972674
 H   -3.3717416782   -6.7500616964    0.5573861143
 H   -4.4209270548   -6.1372897061    1.8485921576
 H   -5.0853465357   -4.1946105542    0.4095842757
 H   -4.6780954740   -5.2367597466   -0.9683713580