17

 O    0.0693342156    1.3322061615    0.5592273636
 C   -0.0263671446    0.1469680858   -0.2235102379
 C   -1.3771652123   -0.3891125199   -0.1518604447
 C   -2.4882477835   -0.8562503875   -0.1042853863
 C   -3.8041143903   -1.3814483948   -0.0647982129
 C   -4.5256414404   -1.7954689736    1.2184358457
 C   -4.3453153344   -2.8027195747    0.1394116553
 O   -5.3316748160   -2.6546075477   -0.8746290273
 C   -4.8414032163   -1.3251454440   -1.1929487628
 H    0.9746560285    1.6515692029    0.4849019434
 H    0.2231071564    0.3459522949   -1.2788697487
 H    0.6828417006   -0.6202391815    0.1292215574
 H   -3.8664201060   -1.8926425761    2.0742728096
 H   -5.5188579035   -1.4077305024    1.4284421987
 H   -3.8408104355   -3.7575204496    0.2310607050
 H   -5.6228366726   -0.5601841950   -1.1214132795
 H   -4.3865178655   -1.3116091083   -2.1882934286