17

 O   -0.0513867246    1.2245810077   -0.8555247248
 C    0.0578289219    0.1940830597    0.1109243922
 C   -1.2749448588   -0.4888155360    0.3197252713
 N   -1.7435909868   -1.2867286854   -0.8328759337
 C   -1.4769360739   -1.9576518977    0.4457749659
 C   -0.3517185215   -2.9841520269    0.4734953067
 C   -0.8281674280   -4.3264046187    0.1549895483
 C   -1.2458166540   -5.4242711482   -0.0986254700
 H   -0.4128160955    0.8054556848   -1.6458777939
 H    0.8254247252   -0.5382319984   -0.1763336078
 H    0.3874291329    0.6731697160    1.0389563192
 H   -2.0151615013    0.1379717692    0.8149812361
 H   -2.7417389711   -1.1688996832   -0.9787145629
 H   -2.3424024690   -2.2618264586    1.0318145850
 H    0.4249282514   -2.6930491875   -0.2402662367
 H    0.1127134190   -2.9870248288    1.4685440503
 H   -1.6011912160   -6.3975861780   -0.3300069950