17

 C    0.0041012176    1.5114321748    0.0664730610
 C    1.4461771925    1.9231202481   -0.1402099407
 C    2.1431210724    0.8161175384   -0.8574471450
 C    1.2431263911   -0.4155375976   -0.7705039738
 C    1.7227118925   -1.2069560117    0.4744526574
 C    2.0587633623   -0.0218726216    1.3452258124
 C    0.6251821308   -0.5139228115    1.2368749390
 N    0.0219230568    0.0420471233    0.0211267704
 N    2.4903848527    1.1273963186    0.5413070056
 H   -0.4136874487    1.8356113504    1.0267463991
 H   -0.6256789745    1.9231033573   -0.7317637824
 H    1.6986051471    2.9704586108   -0.2868678947
 H    2.8949542534    0.9456814334   -1.6304705688
 H    1.0133713378   -0.9336866436   -1.7012241858
 H    2.1229372358   -2.2081016204    0.5421034949
 H    2.5943664220   -0.1636980357    2.2764578239
 H    0.0166524482   -0.8374484431    2.0751684075