20

 C    0.1280459835    1.5128528978   -0.0386000577
 C    0.0180010077   -0.0072736519   -0.0116432198
 C   -1.4389492733   -0.4565082339   -0.1443555894
 C    0.9632614374   -0.7806496850   -1.0027522766
 C    1.4903104385   -1.6446041290    0.1632280071
 O    2.8876768114   -1.4411458748    0.4775397561
 C    2.8879013805   -0.4621244519    1.4179359107
 N    1.7934280561   -0.0032642823    1.8680864495
 C    0.7285121779   -0.7459624111    1.1802365591
 H    1.1586503850    1.8428736092    0.1128165271
 H   -0.2219075518    1.9014066655   -1.0020915614
 H   -0.4821609807    1.9674653409    0.7491651874
 H   -1.8676864935   -0.1099217522   -1.0914342245
 H   -1.5318244309   -1.5482684137   -0.1180414283
 H   -2.0492663269   -0.0505680810    0.6701077593
 H    0.4591944865   -1.3245418721   -1.8057966706
 H    1.7517208398   -0.1627215758   -1.4394036783
 H    1.3070330599   -2.7179103752    0.1203417699
 H    3.8769583439   -0.1432515141    1.7289024728
 H    0.0560476189   -1.1997929595    1.9138738678