19

 C   -0.0110266346    1.6498961093    0.1222052600
 C    0.1731330179    0.1545103317   -0.1277678052
 N    0.5965788563   -0.5323914806    1.0824614758
 C   -0.3409192904   -0.7356858984    2.2098809682
 C    0.1118013454   -2.2170164364    2.3090408699
 N   -0.6843138352   -3.1479311153    1.5111468835
 C   -0.0379536423   -2.8815116169    0.3121260989
 O   -0.2734423626   -3.1993861527   -0.8221500901
 C    0.9806340652   -1.9548746604    1.0403834108
 H    0.9172321741    2.0987033541    0.4874001291
 H   -0.3087336725    2.1589879816   -0.7993158174
 H   -0.7915353309    1.8333731291    0.8687369259
 H   -0.7564276634   -0.2722164118   -0.5452130590
 H    0.9522092912   -0.0071779590   -0.8819096098
 H   -0.1095458171   -0.1059905763    3.0757403905
 H   -1.4077057149   -0.6275366089    1.9652239866
 H    0.4918715509   -2.6035170916    3.2529304080
 H   -1.6466188887   -3.4318831957    1.6472400733
 H    2.0456800316   -2.1633732717    0.9235245312