23

 C    0.2162187900    1.6609537154   -0.5148104189
 C    0.3080331853    0.1715724919   -0.2441311961
 C    1.5385194326   -0.6778619818   -0.3822665925
 C    2.7842136299    0.0152374405    0.1926430543
 C    2.1170019978    0.0140333971    1.6128870976
 C    2.7643663544   -1.0436812761    2.5142883287
 C    2.0160150628    1.3385764224    2.3622258257
 O    3.3368610942    1.7643598348    2.6842793349
 C    0.8289649594   -0.5491763476    0.9779598242
 H    1.1579765453    2.1852814697   -0.3419664258
 H   -0.0584364422    1.8311340826   -1.5620462799
 H   -0.5509869124    2.1349173954    0.1078488129
 H   -0.5682670046   -0.3568515476   -0.6199194159
 H    1.5681920039   -1.5342424290   -1.0460064712
 H    3.6833471482   -0.6029984043    0.1591803511
 H    3.0319581972    0.9935920521   -0.2299849614
 H    3.7587879953   -0.7196370099    2.8306070356
 H    2.1590916493   -1.2117303276    3.4135577796
 H    2.8546465821   -1.9997330699    1.9891664910
 H    1.5039071293    2.0947487228    1.7555174153
 H    1.4131888788    1.1879927374    3.2741393275
 H    3.2769056786    2.6032206454    3.1497422419
 H    0.2077708149   -1.2856208335    1.4789310114