17

 O   -0.0955277382    1.4650981826   -0.0302488077
 C    0.0535366807    0.0706734799    0.0423808428
 C   -0.0134885604   -0.6341169176    1.4197604714
 C   -1.5484633639   -0.2096576594    1.4827160505
 C   -1.2761613130   -0.7472863439    0.0452170641
 O   -1.9071334768   -1.2189759130   -1.1018076470
 C   -1.0587630040   -2.3337534708   -1.4828807575
 O   -0.0328210792   -2.5467556307   -0.4909613695
 C   -0.5500084326   -1.9026922878    0.6645526205
 H    0.7730164417    1.8656270574    0.0705480604
 H    0.8278797929   -0.2965081859   -0.6356886487
 H    0.6972814275   -0.5839112678    2.2419345741
 H   -2.1948038246   -0.8176532211    2.1185317968
 H   -1.7288529589    0.8566256574    1.5898117904
 H   -1.7000428529   -3.2200878951   -1.5733617786
 H   -0.5597802979   -2.1188323446   -2.4335898390
 H   -1.1272292202   -2.5949068296    1.2858979570