16

 N    0.0430413151    1.2000059809    0.3462741046
 C   -0.0123455537   -0.0467168483   -0.1699037766
 O    0.9565629366   -0.5832384075   -0.7070504596
 C   -1.3258843193   -0.7625455469   -0.0393590541
 C   -1.6476955771   -1.7445852486   -1.1893318069
 C   -1.1883718144   -2.3252502832    0.0933134821
 O    0.0392455141   -2.9116099589    0.2579064373
 C   -2.4053693810   -0.1073389177    0.6327330338
 C   -3.3085209498    0.4493763101    1.2040812885
 H    0.9203355623    1.6919612689    0.3185174390
 H   -0.7577941624    1.6144166899    0.7925618016
 H   -2.6928248477   -1.8233210155   -1.4647487651
 H   -0.9366858676   -1.7243490036   -2.0079996901
 H   -1.9339096785   -2.7696504187    0.7441397759
 H    0.6847283993   -2.3395038029   -0.2011098652
 H   -4.1125998259    0.9270240519    1.7071784948