13

 O    0.1431948668    1.3868972542   -0.0673670800
 C    0.0883490900    0.0034506164   -0.0482868443
 C    1.0288536952   -0.5348378886   -1.0263297486
 N    1.7635113081   -0.9909073570   -1.7912650722
 C    0.0306175456   -0.7010849956    1.3626349566
 N   -1.3717573616   -0.0920292014    1.4451158445
 C   -1.3391706668   -0.6652199840    0.0256804781
 C   -0.6649838837   -1.8961548541    0.6725887851
 O   -0.7930212051   -3.0726720679    0.7722082876
 H   -0.4995681581    1.6772617156    0.5989753463
 H    0.7476566150   -0.6308044380    2.1769542844
 H   -1.9836392084   -0.6349489006    2.0574605820
 H   -2.1682156571   -0.5544609389   -0.6690259496