21

 C    0.0447663630    1.5703403275    0.0795245004
 C    0.0435156023    0.0497060251    0.0372037813
 C    0.6507500645   -0.5105989599   -1.2551801027
 C    0.7369816514   -2.0575593517   -1.2166337626
 C    1.4440391996   -2.4840996971    0.0934776008
 C    0.7895230474   -1.8107775794    1.2998656177
 O    0.7820447525   -0.3990091098    1.1710397553
 C   -0.5825209816   -2.6762625539   -1.3464147404
 C   -1.6675049343   -3.1843767970   -1.4534561292
 H    1.0667294281    1.9546643186    0.0008964335
 H   -0.5461948713    1.9801395780   -0.7450501156
 H   -0.3804763789    1.9229806868    1.0229288886
 H   -0.9935412232   -0.3181908398    0.1205924030
 H    0.0620661614   -0.1859616766   -2.1188778336
 H    1.6649436084   -0.1088927352   -1.3688103233
 H    1.3445908340   -2.3917744897   -2.0667953858
 H    1.4187569287   -3.5723828550    0.2065473126
 H    2.4937100171   -2.1741559299    0.0370875121
 H   -0.2387740777   -2.1879682910    1.4240575073
 H    1.3434278881   -2.0318308995    2.2169788101
 H   -2.6230611394   -3.6363546405   -1.5543739396