15

 C   -0.0587809453    1.5033430129    0.0906646709
 C    0.0348449625   -0.0136904928   -0.0604521548
 C    0.7592652480   -0.4074357214   -1.3258063673
 O    1.2171743252    0.3312174406   -2.1452796956
 N    0.8830322355   -1.8412714975   -1.5195516279
 N    1.4865053541   -2.3961706694   -2.5738824780
 C    1.3468478368   -3.6783066237   -2.3067380232
 N    0.6845275689   -3.9097132653   -1.1354281061
 N    0.3972615833   -2.7427169777   -0.6488703366
 H    0.9342963184    1.9575035390    0.1281163959
 H   -0.5940328950    1.9506029569   -0.7503086327
 H   -0.5894956040    1.7541157171    1.0123992354
 H    0.5517556399   -0.4779939156    0.7870089854
 H   -0.9548639158   -0.4844347210   -0.0749656406
 H    1.7174771677   -4.4624999722   -2.9467590747