23

 C   -0.2094864775    1.4956664066    0.0368688588
 C   -0.0591582817   -0.0251647527   -0.0434924061
 C    0.7674376495   -0.4833164154   -1.2474900496
 O    2.1006120333    0.0291365081   -1.2239457509
 C    0.8086022602   -2.0059471806   -1.3530034089
 O   -0.5076267204   -2.5888616926   -1.4873779145
 C   -0.1315059376   -3.2870995264   -2.6938206096
 C    1.2901612259   -2.6805140513   -2.6690360475
 C    1.6973253413   -1.8074676748   -3.8489762562
 H    0.7696286329    1.9828077980    0.0467204353
 H   -0.7622204310    1.8814077750   -0.8267882931
 H   -0.7514140772    1.7932742788    0.9394502625
 H    0.4190601700   -0.4054468927    0.8721758155
 H   -1.0392670444   -0.5109212208   -0.1013568221
 H    0.3242731713   -0.0695762515   -2.1603704244
 H    2.5053586301   -0.2521125572   -0.3950431486
 H    1.3165503718   -2.3990599158   -0.4558600712
 H   -0.1931456774   -4.3754331179   -2.5706215889
 H   -0.7558356577   -2.9907635093   -3.5468555000
 H    2.0653264107   -3.4278308815   -2.4811380081
 H    0.8993179356   -1.1145140750   -4.1346947697
 H    2.5838990531   -1.2148163107   -3.6094620284
 H    1.9202069393   -2.4286558003   -4.7230718641