22

 C   -0.0473248664    1.4952172142   -0.0626094164
 C    0.1034854477   -0.0027116673   -0.0142634563
 C    0.3201037958   -0.7526011378   -1.3185811457
 C    0.7247126310   -2.1777734415   -0.9003670955
 O    1.5743830529   -2.7302970971   -1.8965805733
 C    1.4010045087   -2.0103119885    0.4832937509
 C    0.7626386397   -0.7685990270    1.0856685210
 C    1.3808765293   -0.1637719592    2.3189760565
 N   -0.7187644913   -0.8017693663    0.9365903488
 H    0.7938494756    1.9585570423   -0.5902609012
 H   -0.9635630649    1.7745525162   -0.5960734718
 H   -0.1006068048    1.9352151604    0.9379368720
 H   -0.5613202235   -0.7453397875   -1.9672791914
 H    1.1512037969   -0.3009712119   -1.8741228445
 H   -0.1783797763   -2.7883102937   -0.7867703866
 H    1.7096150415   -3.6596445178   -1.6880646000
 H    1.2851212656   -2.8957512176    1.1188395526
 H    2.4738710423   -1.8381763533    0.3310870907
 H    2.4473740782    0.0368269750    2.1669479809
 H    0.8984579373    0.7773165725    2.6005255555
 H    1.2934019930   -0.8480387146    3.1712719356
 H   -1.1239759883   -0.1660072294    1.6223396581