16

 C   -0.0581644673    1.4771960206    0.0563797388
 C    0.0346812357   -0.0486411964   -0.0303610638
 C    0.7500693194   -0.5014247284   -1.2929354801
 O    0.7872317965   -1.9376785328   -1.2839309500
 C    1.4005052044   -2.5042063578   -2.3510869554
 N    1.4238460471   -3.8647970349   -2.2051308128
 O    1.8820376380   -1.8930985174   -3.2760965072
 H    0.9357822251    1.9374807670    0.0642830405
 H   -0.6085755029    1.8925723074   -0.7947533263
 H   -0.5748781965    1.7863600378    0.9692217552
 H    0.5674613639   -0.4460687071    0.8412320139
 H   -0.9683029766   -0.4907094300   -0.0125095074
 H    0.2325287742   -0.1587659830   -2.1956593361
 H    1.7738600119   -0.1143292038   -1.3379596680
 H    0.8054706567   -4.2877245905   -1.5339133545
 H    1.6526824204   -4.3917004305   -3.0302645067