18

 C   -0.0173426174    1.5339941668    0.0952711624
 C    1.5224577507    1.4798955328   -0.0319010813
 C    2.2065017570    0.7824341834    1.2119766488
 C    1.1768533336    0.3163710742    2.2668197871
 C    0.6756746967   -0.7048242211    1.2198872992
 C   -0.0083679786   -0.0073632636   -0.0239896706
 C    1.3943728508    0.0765425725   -0.7284396957
 C    2.0648741900   -0.6071107791    0.4908134526
 H   -0.4697593659    2.0043385896    0.9743012551
 H   -0.4549241044    1.9796106548   -0.8042325155
 H    2.0608856034    2.3260857497   -0.4600553300
 H    3.1575245163    1.2079376055    1.5340962383
 H    1.6848323013   -0.2021305968    3.0867419133
 H    0.4751233414    1.0409241966    2.6924910847
 H    0.2246353950   -1.6414874533    1.5492567004
 H   -0.8720061228   -0.5233343001   -0.4448952661
 H    1.5752253440   -0.1152245183   -1.7852851838
 H    2.8238452890   -1.3883510736    0.4852444613