21

 C   -0.1341996730    1.6160162011   -0.0095077905
 C    0.0225897272    0.1037455669    0.0008757662
 O   -1.2492816789   -0.5219304377   -0.0772667568
 C    1.0689032530   -0.6115802674   -0.8987045071
 C    2.3797707708    0.1721746470   -1.0185240432
 C    3.0536956678    0.2644964832    0.3799299122
 C    2.0513000159    0.1453757852    1.5630253579
 C    0.8146909791   -0.6319722668    1.1061334343
 O    1.2335213197   -1.6289937316    0.1283601795
 H    0.8104472709    2.1492346524    0.1133360466
 H   -0.5757017916    1.9439549811   -0.9591843491
 H   -0.8121272717    1.9211562199    0.7935113088
 H   -1.6489352801   -0.2798358862   -0.9199192971
 H    0.7098666541   -1.0290360208   -1.8455756515
 H    3.0543734308   -0.3379850218   -1.7135349915
 H    2.1825911999    1.1609668459   -1.4482424450
 H    3.7576854016   -0.5660098657    0.4605206656
 H    3.6451639995    1.1805979504    0.4645583239
 H    2.5315223403   -0.3810117238    2.3938070002
 H    1.7501665668    1.1252374810    1.9503182798
 H    0.2232530077   -1.0650045525    1.9170156968