15

 C   -0.0650169139    1.4571798342    0.0085238938
 N   -0.0000471791    0.0076051412    0.0036855708
 C   -1.0678016786   -0.6657619131    0.0090294618
 O   -2.3283835972   -0.0257043043    0.0197515001
 C   -3.4560267420   -0.7623434665    0.0251132351
 O   -4.5643344714   -0.0163494777    0.0350098901
 C   -3.4366137615   -2.1127998558    0.0207470314
 N   -2.2369048009   -2.7941891633    0.0104280778
 C   -1.1386078271   -2.1198930720    0.0050040866
 H    0.9493910769    1.8610376630    0.0007575332
 H   -0.5992403371    1.8471514502   -0.8690246916
 H   -0.5833763575    1.8416827036    0.8979292552
 H   -4.3034814666    0.9140330505    0.0362416236
 H   -4.3554248225   -2.6813559988    0.0252450962
 H   -0.1853146814   -2.6396029712   -0.0031400141