23

 C   -0.0126521371    1.5312793886    0.4240745679
 C   -0.0097640273    0.0334000094    0.0911397870
 C   -1.3814292057   -0.5171706009   -0.2367010357
 C   -2.3067615804   -0.9329353170    0.8858897888
 C   -1.7360294933   -1.9789488491   -0.0459071295
 C   -2.5942637720   -2.4296274651   -1.2163032588
 C   -3.1110535133   -1.1287476957   -1.8792120291
 O   -4.3651244038   -0.6978958703   -1.3459075747
 C   -2.0622599839   -0.0553047051   -1.5252028555
 H    0.9931614642    1.8820101492    0.6760128580
 H   -0.3698180636    2.1281347315   -0.4216275841
 H   -0.6675745586    1.7408761154    1.2762427713
 H    0.6679044539   -0.1503430267   -0.7546713841
 H    0.4036304128   -0.5245716151    0.9406624929
 H   -1.8972792531   -0.9017120604    1.8912239334
 H   -3.3604249490   -0.6915778690    0.8136804941
 H   -1.0051779667   -2.6752207053    0.3533196266
 H   -1.9806465237   -2.9903847195   -1.9323369863
 H   -3.4278715982   -3.0831229500   -0.9287820950
 H   -3.2045729488   -1.2494065012   -2.9675855192
 H   -4.9971439315   -1.4136186719   -1.4682055782
 H   -2.5464949338    0.9229434685   -1.4490736107
 H   -1.3137968072    0.0077778797   -2.3251068789