14

 O    0.3202560055    1.2461607053    0.6119224100
 C    0.0088018376    0.0036858584    0.0881493168
 C   -1.4788412822   -0.3425486430   -0.1212708395
 O   -2.4231124945    0.0290756396    0.5143482847
 C   -1.4726085245   -1.3396321322   -1.2670955874
 C   -1.3060966569   -0.7916647771   -2.6459510246
 N   -0.1395350360   -1.3126266905   -1.9160025905
 C    0.5996881467   -0.2714753146   -1.2890061367
 O    1.5086354855    0.3463654235   -1.7751199492
 H    1.0479157226    1.5894802230    0.0714571852
 H    0.3603136420   -0.8272519574    0.7371531687
 H   -1.9430906831   -2.3061542163   -1.1224461944
 H   -1.6225905974   -1.3961851732   -3.4892400029
 H   -1.3732211455    0.2827065244   -2.7969640001