21

 C    0.0149473009    1.5176141056    0.5042849978
 C    0.0225725345    0.0897388203   -0.0566864035
 C   -1.3604732369   -0.5131485872   -0.1776887025
 C   -2.0891748276   -1.0197727588    1.0673181277
 C   -1.6927509593   -1.9921130879    0.0057607013
 C   -2.7728945706   -2.4003403363   -0.9949428350
 C   -3.3706395108   -1.0733912746   -1.5059082036
 C   -2.2775076005   -0.0218171346   -1.2581339525
 O   -2.1374136089    0.9997815000   -1.8883524642
 H    1.0329851192    1.9128342335    0.5759584832
 H   -0.5663265669    2.1766416250   -0.1442005272
 H   -0.4273388245    1.5446512859    1.5060611781
 H    0.4949343498    0.0908397273   -1.0462633576
 H    0.6356441685   -0.5587773598    0.5815823822
 H   -1.5007146307   -1.0008670413    1.9787186602
 H   -3.1370115722   -0.7773794373    1.2133108428
 H   -0.8945607853   -2.6940439281    0.2224423800
 H   -2.3122495225   -2.9465706688   -1.8248644755
 H   -3.5221252313   -3.0616965337   -0.5477630820
 H   -3.6429406887   -1.0841653792   -2.5626448175
 H   -4.2704101262   -0.7824823500   -0.9507174623