23

 C   -0.1792109183    1.4585678234   -0.0463501121
 C    0.0140784746   -0.0563759356   -0.0055680659
 C    0.7788151572   -0.4875556315    1.2556834283
 O   -1.2963405908   -0.6234087422   -0.0012899024
 C    0.7481206628   -0.5225790923   -1.2714294067
 O    0.7485483420   -1.9408183391   -1.2867351636
 C    1.4529743567   -2.5030271769   -2.3812012845
 C    1.2184903892   -4.0039331909   -2.3540928192
 O   -0.1434398540   -4.3285671322   -2.5513742881
 H    0.7831432561    1.9785561452   -0.0733467278
 H   -0.7618569943    1.7467025513   -0.9258760051
 H   -0.7235122850    1.7865269929    0.8434127480
 H    0.1989646401   -0.2268266841    2.1449197016
 H    0.9461053991   -1.5681694513    1.2504060853
 H    1.7545764959    0.0060114373    1.3189373228
 H   -1.1783699026   -1.5694152730   -0.1432678155
 H    0.2311515689   -0.1384699711   -2.1641309474
 H    1.7814048931   -0.1413590936   -1.2813014117
 H    1.0794615769   -2.0847477333   -3.3288929391
 H    2.5286553438   -2.2759006929   -2.3043106060
 H    1.7807953497   -4.4755623984   -3.1665166926
 H    1.5978348986   -4.4082691708   -1.4019794400
 H   -0.6407870597   -3.7950247410   -1.9221593182