15

 O    0.0304351497    1.3509139563    0.0208799749
 N    0.0314573072   -0.0259222227   -0.0724491972
 C   -1.1252547937   -0.5712119734   -0.0142052961
 C   -1.1186255770   -2.0823862846   -0.0529928260
 N   -2.1234867589   -2.5771819435   -0.9871870483
 C   -3.3234102243   -1.9397821752   -1.0330675632
 C   -3.5498629037   -0.7072164230   -0.5085731929
 C   -2.4849470080    0.0975641245    0.0757102816
 O   -2.6485875291    1.2100585380    0.5443590968
 H    0.9658607728    1.5601637225   -0.0848147025
 H   -0.1262116720   -2.4350990594   -0.3395343755
 H   -1.3404628220   -2.4612340124    0.9603102060
 H   -2.1125608307   -3.5645496150   -1.1841703150
 H   -4.1121207894   -2.4827909492   -1.5459148277
 H   -4.5288062011   -0.2527707730   -0.5879993950