18

 C   -0.0595903722    1.6012208837    0.0015787003
 C    0.0511578515    0.0698307619    0.0033910169
 C    0.7903232501   -0.5197927060   -1.1786719820
 C    1.5963175002   -1.5206617807   -0.8341929565
 C    1.5588446534   -1.7939443558    0.6501302746
 C    0.8111376004   -0.5570340763    1.2288431555
 C    1.8236148994    0.4091000576    1.8087955805
 O    1.7165351375    0.9615139116    2.8737028616
 H    0.9210851574    2.0822293283   -0.0711627588
 H   -0.6564629376    1.9381406094   -0.8519671981
 H   -0.5429454968    1.9631675542    0.9140170310
 H   -0.9749203620   -0.3274004065    0.0087806300
 H    0.6218253638   -0.1680444893   -2.1912262620
 H    2.1920700874   -2.1132753013   -1.5195551471
 H    1.0179961099   -2.7229709217    0.8727266714
 H    2.5595139622   -1.9157768984    1.0857168196
 H    0.1188966256   -0.8118253386    2.0340998540
 H    2.7205592198    0.5754394279    1.1664715191