17

 C    0.4024655594    1.4051820548    0.7132052946
 C   -0.0507666326    0.1243623237    0.0464495203
 C    0.4623974495   -0.2672132860   -1.2749881167
 O    0.9489537723   -0.8870387517   -0.0775538380
 C   -1.3941736413   -0.3828139722    0.5197516553
 C   -2.6528047047    0.4049257629    0.1008642541
 C   -3.0218064106   -0.8950939464   -0.6136778053
 O   -3.9118863861   -1.3200111836   -1.2737488229
 O   -1.8752299718   -1.5489490233   -0.2280212383
 H    1.4057975893    1.6677420371    0.3711905984
 H   -0.2726554579    2.2371737168    0.4877166768
 H    0.4362550591    1.2828336203    1.8014853660
 H   -0.1284257349   -0.9146560281   -1.9174145456
 H    1.1704812048    0.3872714985   -1.7816341559
 H   -1.3475946141   -0.6338585157    1.5837919318
 H   -3.3396273122    0.6972585725    0.8959908238
 H   -2.4863666984    1.2473509803   -0.5731535283