23

 C    0.0022894546    1.4203153333   -0.0460618249
 O    0.1734328461    0.0214751102   -0.0854146559
 C    0.4513130753   -0.5439040299    1.1930653218
 C    0.5212376855   -2.0460716183    1.0563862189
 C   -0.7594127637   -2.6734604374    0.5242964751
 O   -0.9728935955   -2.4336671714   -0.8541302521
 C    1.8269359535   -2.6795436838    0.6333042351
 C    1.3362422529   -2.8569820934    2.0482112547
 C    2.0763548189   -2.2647152051    3.2298487198
 H    0.9074171524    1.9247850840    0.3251408885
 H   -0.1965138129    1.7557969975   -1.0663935205
 H   -0.8423800615    1.7097619948    0.5978490127
 H    1.3917008042   -0.1255503949    1.5800536730
 H   -0.3496959283   -0.2595078221    1.8974305954
 H   -0.7169897527   -3.7618480727    0.6453841110
 H   -1.6125464283   -2.3153760273    1.1284846572
 H   -0.7928207373   -1.4941239711   -0.9898048549
 H    1.7824840963   -3.5158535856   -0.0554141322
 H    2.6754245009   -2.0200371670    0.4781934019
 H    0.9027070679   -3.8306471380    2.2661992780
 H    2.5878382722   -1.3320298405    2.9760277041
 H    1.4021414182   -2.0601675970    4.0692926285
 H    2.8413360212   -2.9640174442    3.5848619646