21

 C   -0.4124317534    1.4966218909    0.1543608026
 C    0.0106128186    0.0774163542   -0.0955485942
 C   -0.2064435862   -0.5674212646   -1.2461473174
 C    0.2653763924   -1.9895030603   -1.4348335622
 C   -0.0609497032   -2.8228644792   -0.1842363596
 C    0.9789397859   -3.8514564089    0.3088620960
 O    1.2915736298   -3.0503958307    1.4679438323
 C    0.2504840495   -2.0965165450    1.1436146849
 C    0.7485780861   -0.6504249928    1.0120107640
 H    0.4513153687    2.1306857609    0.3935988746
 H   -0.9184046671    1.9273389103   -0.7141828144
 H   -1.0909904386    1.5630886135    1.0148589790
 H   -0.7155368227   -0.0713925332   -2.0680993503
 H   -0.1800313269   -2.4388803631   -2.3275487826
 H    1.3535011589   -1.9997169445   -1.5994049059
 H   -1.0821251592   -3.2039635389   -0.2470713136
 H    0.5726540856   -4.8325560043    0.5873648893
 H    1.8547365592   -4.0008295143   -0.3360053755
 H   -0.5643314403   -2.1512684267    1.8772227734
 H    1.8213938058   -0.6974187879    0.7804173134
 H    0.6582809171   -0.1173623053    1.9637809662