19

 C   -0.0092759363    1.5195426771   -0.0420596290
 C   -0.0528685488   -0.0004356316    0.1300910329
 C   -1.4528185233   -0.5731974783   -0.0847454517
 N   -1.4533762898   -2.0165841529    0.0957355281
 C   -2.6333355983   -2.7130698301    0.0473838462
 N   -3.8272826386   -2.1439534966    0.1847555860
 N   -4.6526768742   -3.2336787046    0.1262889277
 C   -3.9367283088   -4.3543011452   -0.0506723335
 N   -2.6492930963   -4.0752559873   -0.1080439370
 H    1.0025396741    1.9056585953    0.1120437848
 H   -0.3296988208    1.8159167001   -1.0468137615
 H   -0.6693041246    2.0180285204    0.6760839605
 H    0.6419627469   -0.4695529336   -0.5805590480
 H    0.2941387913   -0.2796184708    1.1317671414
 H   -2.1515256886   -0.1449721354    0.6416104892
 H   -1.8294747599   -0.2858720802   -1.0808874814
 H   -0.6904008895   -2.5162463744   -0.3370804389
 H   -5.6473991519   -3.1103669052    0.2038919483
 H   -4.3808765125   -5.3353763467   -0.1312862142