13

 C   -0.0490883180    1.5500650708    0.0400976397
 C   -0.0070523349    0.0229997096    0.0063757291
 C    0.7476094903   -0.5258994153   -1.2403856538
 C    2.1514755888   -0.0892473969   -1.2605196730
 N    3.2421662738    0.2892308641   -1.2609084620
 C    0.6605325354   -1.9909977947   -1.3090035215
 N    0.5510317788   -3.1394921890   -1.3477904927
 H    0.9572724014    1.9770192836    0.0763288674
 H   -0.5590904325    1.9546452493   -0.8405830856
 H   -0.5916399266    1.8902754997    0.9258588639
 H    0.4773135714   -0.3742110764    0.9030099842
 H   -1.0184366186   -0.3930912295   -0.0249302706
 H    0.2676816608   -0.1243317851   -2.1430801451