24

 C   -0.4542768529    1.5233120477    0.1269364946
 C   -0.3391322128    0.0080763895    0.3301783513
 C    0.8241945999   -0.4884120345    1.2326860229
 C    2.1922591097   -0.0396019977    0.6825280357
 C    0.6823578936    0.0875105551    2.6553934280
 N    0.7883782623   -1.9776791654    1.2501181108
 C    1.3279603293   -2.7202348236    0.1150151274
 C    0.1189779222   -2.7018570867    2.1962381631
 O   -0.0064292835   -3.9125782503    2.1980931675
 H    0.4341583205    1.9422239730   -0.3551696281
 H   -1.3098378132    1.7500410414   -0.5166163774
 H   -0.6075198205    2.0559316858    1.0704417975
 H   -1.2724887774   -0.3718814997    0.7628561233
 H   -0.2426301487   -0.4705815352   -0.6511916028
 H    2.2835011669    1.0471441366    0.7444449732
 H    3.0039988653   -0.4780353325    1.2708103104
 H    2.3330830684   -0.3244394664   -0.3629225619
 H   -0.3272102624   -0.0187873585    3.0603896206
 H    1.3853738741   -0.3885057414    3.3449029265
 H    0.9090751393    1.1561531199    2.6332148350
 H    2.4221888482   -2.6984305917    0.0994000041
 H    0.9982090374   -3.7530630894    0.2219424642
 H    0.9591832471   -2.3214851555   -0.8354655989
 H   -0.3100590327   -2.0783699805    2.9940970132