19

 C    0.1048088204    1.5771913542   -0.0184864508
 C    0.0371947403    0.0492447674    0.0288821634
 C    0.7068359952   -0.6434830553   -1.1872207738
 C    1.2023929047   -2.0305364765   -0.6883472907
 C    2.4486282154   -2.4843467926   -1.4165587664
 O    2.5393202736   -3.4937257706   -2.0669141938
 C    1.4433456390   -1.7944929123    0.7997337244
 O    2.1824450023   -0.5950709821    1.0752771522
 C    0.7530056363   -0.5702069546    1.2157595585
 H    1.1467444746    1.9126212871   -0.0084232815
 H   -0.3694265739    1.9649304266   -0.9255513627
 H   -0.4040685763    2.0252504169    0.8412247279
 H   -1.0143288662   -0.2643830182    0.0907373896
 H    0.0325405813   -0.7378057197   -2.0409360194
 H    1.5643803792   -0.0460709711   -1.5128662143
 H    0.4368815039   -2.8039424492   -0.8116450212
 H    3.3095937073   -1.7862779587   -1.3061880243
 H    1.6391621749   -2.6298300722    1.4668369802
 H    0.3908846779   -0.4182287392    2.2300139527