22

 C    0.3558433811    1.5515857941   -0.1513708353
 C    0.0867390551    0.0777552896    0.0409737753
 O    0.8758914789   -0.7766383902   -0.8459681385
 C    1.2651805772   -1.6366965118    0.2411774044
 C    2.6479372975   -1.3153496537    0.8578738400
 C    3.7932126997   -0.9092706236   -0.0506359801
 N    2.0140151929   -0.2170216085    1.6409804292
 C    2.3464275969   -0.0974332268    3.0421311007
 C    0.6550428714   -0.6649270371    1.2727460666
 H    1.3869618086    1.7829344334    0.1233640734
 H    0.1877468582    1.8306852914   -1.1961764840
 H   -0.3210300085    2.1467018770    0.4719174526
 H   -0.9800634176   -0.1498914286   -0.1015566626
 H    0.9899312933   -2.6803761130    0.0762959802
 H    2.9467350638   -2.1495460639    1.5166485245
 H    3.4437410607   -0.1830738269   -0.7877976953
 H    4.6074436011   -0.4601280617    0.5275330327
 H    4.1964397366   -1.7797081892   -0.5796279239
 H    3.4042079831    0.1658401327    3.1489176003
 H    1.7585158460    0.7050668803    3.5001435614
 H    2.1694574988   -1.0245756419    3.6210792546
 H   -0.0109205648   -0.9356595216    2.0957218139