18

 C   -1.4390897220   -0.6959231560    0.1358902120
 C   -0.0216197434   -0.1264137064   -0.0212345625
 N    0.7714913198   -0.6238386963   -1.1573562855
 C    1.1100097469   -2.0401155696   -1.0981350367
 C    1.8749271524   -2.3700769839    0.1095742580
 N    2.4662750910   -2.6530245828    1.0602100010
 C    0.2485573188   -0.2751818675   -2.4722405207
 C    0.1435560842    1.1771107209   -2.6521173896
 N    0.0406423918    2.3165377678   -2.8088809287
 H   -2.0741703659   -0.4733607622   -0.7274937922
 H   -1.4365527685   -1.7797451895    0.2895684084
 H   -1.9139081358   -0.2453314771    1.0123348497
 H   -0.0693534694    0.9619431133   -0.1225863636
 H    0.5607725588   -0.3290873771    0.8825429244
 H    0.2366880335   -2.7168036217   -1.1372798282
 H    1.7330645001   -2.2884292665   -1.9656237218
 H    0.9367011597   -0.6568307234   -3.2359130829
 H   -0.7411735919   -0.7133713019   -2.6970796312