15

 O    0.4497706910    0.8768638714    0.7022290734
 C   -0.0594496711   -0.2123805481   -0.0144501302
 C   -1.5315527192   -0.0658914432   -0.3073387766
 C   -2.0689706290   -0.7929361251   -1.2799527990
 C   -1.1921761501   -1.7069444327   -2.0847826431
 O    0.1504953121   -1.2055720822   -2.2587678506
 C    0.6942753012   -0.4028426890   -1.3241755973
 N    1.7976578564    0.2002696780   -1.4774537279
 H    1.2807077036    1.1056232995    0.2517158067
 H    0.0815695785   -1.1461477257    0.5666257425
 H   -2.0920751381    0.6270127472    0.3099777393
 H   -3.1256222729   -0.7626044585   -1.5231964954
 H   -1.1256198507   -2.7036032592   -1.6240577071
 H   -1.5745679499   -1.8421670002   -3.0999362934
 H    2.2104786382    0.0209912678   -2.3918194514