19

 O    0.0398075326    1.4658709340    0.0264129970
 C    0.0820287001    0.0587333447    0.0245631428
 C    0.1724816459   -0.6005085785    1.4261465599
 N   -1.2983777565   -0.7701214963    1.3914487474
 C   -1.2976453335   -0.6426344510   -0.0840668926
 C   -1.8847953342   -1.9199418540    1.9943738627
 C   -2.2922146628   -1.8343361223    3.4421133221
 C   -3.3449352290   -1.8645007815    2.3606881869
 H   -0.6281586766    1.7311150557    0.6692490908
 H    0.8402975949   -0.2249519796   -0.7056654619
 H    0.7230062310   -1.5551016613    1.4058717385
 H    0.5563235476    0.0191756758    2.2437160018
 H   -2.1213921092   -0.0575531945   -0.5070139019
 H   -1.2357580805   -1.6112292166   -0.6063029441
 H   -1.5044490453   -2.8893883336    1.6511647178
 H   -2.1610579245   -2.7122108404    4.0645409154
 H   -2.1199788068   -0.8887106936    3.9426891676
 H   -3.8667877432   -0.9387637457    2.1482506061
 H   -3.9388422599   -2.7631515213    2.2382810535