17

 C   -0.0371982404    1.3909112355    0.2531594180
 O   -0.0199516552   -0.0167966063    0.3509475356
 C   -1.0884881963   -0.6212877920   -0.3472083915
 C   -1.0006686592   -2.0995958631   -0.1508791399
 N   -1.0344001621   -2.9366157740   -1.1501144283
 O   -0.9483713754   -4.1810479181   -0.5984246395
 N   -0.8486772870   -4.1113524251    0.7664454077
 C   -0.8819318275   -2.8416249101    1.0688623911
 C   -0.7993163391   -2.3415510373    2.4715929296
 H    0.8172104980    1.7645788707    0.8211492874
 H    0.0535527219    1.7252690392   -0.7913006019
 H   -0.9617331003    1.8164619591    0.6735061500
 H   -2.0546270783   -0.2473005770    0.0349327862
 H   -1.0509122631   -0.3950580894   -1.4227461601
 H    0.0058242520   -1.6090084550    2.5644193196
 H   -1.7302510153   -1.8414638552    2.7607405761
 H   -0.6242254527   -3.1712252621    3.1581487601