20

 C   -0.1273753595    1.5271874804    0.1157909842
 C    0.0183269329    0.0077277441   -0.0115327466
 C   -1.3267278745   -0.6460699027   -0.3705269567
 C   -1.8633240159   -0.2003452008   -1.7117139334
 O   -2.9535674517    0.2770778250   -1.8992488431
 C    1.2535151404   -0.3964889022   -0.8854983763
 C    2.0816150244   -0.5899966757    0.4122455445
 C    0.7558096111   -0.6113472189    1.2193025474
 H    0.8232176007    1.9940993422    0.3928231193
 H   -0.4572388685    1.9795578088   -0.8261267979
 H   -0.8643201337    1.7861877099    0.8841902847
 H   -1.1868519323   -1.7356582871   -0.4234574679
 H   -2.0854399930   -0.4387589911    0.3917011663
 H   -1.1558866123   -0.3479691981   -2.5616904815
 H    1.0926600810   -1.3432363654   -1.4104266213
 H    1.6106648721    0.3414811075   -1.6089531146
 H    2.7119595442   -1.4796973036    0.4699858701
 H    2.6994260701    0.2804569174    0.6465442966
 H    0.7184959220   -0.0396127806    2.1507268663
 H    0.4174935325   -1.6310033190    1.4267271499