19

 C    0.1260040464    1.6055049237    0.1490763655
 C    0.1631078741    0.1150779166    0.0100744706
 C   -0.9034714084   -0.8393641225    0.4678923644
 C    0.5102985886   -1.0168532630    0.9758443397
 C    1.3761054885   -1.6421857604   -0.1214397038
 N    0.9923725126   -0.5233178169   -1.0174353647
 C    0.6168947696   -0.5821642996   -2.3454165189
 N    1.2501744325   -1.5827234212   -3.0702870731
 O   -0.1979392115    0.1785443657   -2.8351207380
 H    1.1379938534    2.0218910166    0.1861991960
 H   -0.3948375859    2.0451290160   -0.7062311037
 H   -0.4022023953    1.8929988996    1.0631094223
 H   -1.6008970791   -0.4357664796    1.1954820641
 H   -1.3378169188   -1.5565668703   -0.2237605906
 H    0.7764801464   -0.9607909181    2.0223622250
 H    2.4485450733   -1.6447999089    0.1029706173
 H    1.0752925011   -2.6345249364   -0.4780093216
 H    2.1635621795   -1.8798255057   -2.7618169952
 H    1.1686954731   -1.4535914453   -4.0675167751