21

 O   -0.1266508907    0.0433613975    0.2607544981
 C    0.0083941904    1.1946557129   -0.0759639265
 C    1.2725401586    1.9653215518    0.0021276558
 C    1.0966554198    3.4632081241    0.2109887896
 C    1.4780403782    2.9715096000   -1.1463171252
 C    2.8826869789    3.1962301211   -1.7102357511
 C    3.9026656058    2.1302809160   -1.2789220663
 C    3.8187426268    1.8517095937    0.2247314906
 C    2.4643294494    1.2271026114    0.5881946190
 H   -0.8512615749    1.7746868865   -0.4910533331
 H    0.0905471752    3.8389752532    0.3694943141
 H    1.8562625315    3.9571480646    0.8082416493
 H    0.6804448982    2.9877265705   -1.8839457915
 H    2.8257194717    3.2283149028   -2.8027484751
 H    3.2409791546    4.1844590354   -1.3954564088
 H    3.7126255539    1.1962145140   -1.8239102420
 H    4.9098729386    2.4575010433   -1.5580648695
 H    4.6188225490    1.1715857039    0.5349224826
 H    3.9783569765    2.7852681580    0.7812971967
 H    2.3518638558    1.1523883020    1.6760095386
 H    2.4283807027    0.1982699773    0.2123888345