23

 C    0.0556620399    1.5093741625   -0.0097053204
 C    0.0131366221   -0.0098473744   -0.0372606612
 C    0.7185493233   -0.6287299099   -1.2634178183
 C   -0.0454137255   -1.9606860011   -1.4979938918
 C   -0.7759027049   -2.1549663949   -0.1606041329
 C    0.3080544072   -2.2108820419    0.9658818300
 C    0.2861043038   -0.7205264635    1.3529086248
 C   -1.2277618880   -0.5400702930    1.6621582779
 C   -1.3637476985   -0.7431659025    0.1383400576
 H    1.0939334348    1.8621510085    0.0045501920
 H   -0.4184166531    1.9306608139   -0.9037788664
 H   -0.4431146631    1.9358270755    0.8649455974
 H    0.6526409513    0.0374708093   -2.1296762951
 H    1.7859232965   -0.7886130317   -1.0732982896
 H   -0.7631585822   -1.8562062176   -2.3199887399
 H    0.6133425909   -2.7997285225   -1.7430912505
 H   -1.4900218907   -2.9806192836   -0.1478206616
 H    0.0242716483   -2.8481267352    1.8087594129
 H    1.2746372925   -2.5628509335    0.5926460660
 H    1.0612290043   -0.3591118882    2.0321175125
 H   -1.6943392293   -1.2727367295    2.3278520713
 H   -1.4977568428    0.4661159881    1.9859532302
 H   -2.2546773567   -0.4497780547   -0.4209620952