16

 C    0.0347376318    1.5718890033   -0.0711213501
 C    0.0010518333    0.0792594485   -0.1112546490
 C    0.5898357181   -0.9032402296   -1.1644944804
 C   -0.4725288404   -1.8801932828   -0.7071433284
 C    0.8932955158   -1.7647444288    0.0184049026
 N    0.6605077238   -0.7141481742    1.0557216658
 C   -0.7137734870   -1.0404882920    1.5321486985
 O   -1.1224352499   -1.2556239173    2.6253956795
 C   -1.2634896163   -0.8413780494    0.1191204467
 H    1.0668469895    1.9339001762   -0.1102329958
 H   -0.5152145456    1.9971096795   -0.9171727573
 H   -0.4195120633    1.9403937408    0.8549553911
 H    1.0973568562   -0.7667068833   -2.1089162770
 H   -0.8279709112   -2.7889793459   -1.1708778786
 H    1.5873285973   -2.5820300756    0.1557819797
 H   -2.2962816020   -0.6019422094   -0.1222426873