20

 C    0.0324525716    1.4404337222   -0.3026889463
 C    0.0016979095   -0.0501865043    0.0875541729
 C    0.6944862886   -0.2790064787    1.4450819899
 C   -1.3905521650   -0.6145564721    0.0597157847
 C   -1.9325090945   -1.6176191946   -0.7213968287
 C   -3.2980614864   -1.7624217866   -0.3466153492
 O   -4.2203371409   -2.6342062307   -0.8545913176
 C   -3.5641771049   -0.8529415044    0.6484905898
 N   -2.3887628775   -0.1629929732    0.8817347147
 H    1.0617964619    1.8127428525   -0.3373367357
 H   -0.4263587912    1.5999545495   -1.2823598713
 H   -0.5133320242    2.0535517468    0.4240539121
 H    0.5655363814   -0.6049017685   -0.6717492969
 H    0.7058981266   -1.3406759074    1.7066844936
 H    1.7277719595    0.0830710541    1.4208879947
 H    0.1785031411    0.2565598567    2.2506134473
 H   -1.4039860185   -2.1819292723   -1.4765024050
 H   -3.7921724843   -3.1609016509   -1.5348911069
 H   -4.4689258550   -0.6467525270    1.1938402151
 H   -2.2869601078    0.5681830789    1.5623457529