19

 C    0.3437696120    1.1004716481   -0.7038066697
 C   -0.2136470746   -0.3247891987   -0.7655942127
 N    0.7107654080   -1.4319814674   -0.9519558201
 C    1.9452460624   -1.2324333422   -1.0389774826
 O    2.7893732096   -2.2941325362   -1.1551572003
 C    4.1170594811   -2.0152947045   -1.5790100739
 C    4.3350982658   -2.2047664610   -3.0857155848
 N    3.2783445551   -2.7392165632   -3.7467512124
 O    5.3916280363   -1.8920943038   -3.5966429093
 H    1.0373411164    1.2324406478    0.1335783347
 H    0.8661745944    1.3754009848   -1.6264246215
 H   -0.4788325167    1.8083814197   -0.5660463642
 H   -0.7772490823   -0.5347166929    0.1529978288
 H   -0.9526972768   -0.3910114972   -1.5748103780
 H    2.4631010729   -0.2658763476   -1.0137024123
 H    4.4230199058   -0.9953934446   -1.3196831572
 H    4.7788938144   -2.7078613850   -1.0516709589
 H    2.4622118680   -3.0487879265   -3.2457525292
 H    3.3775164581   -2.9469400995   -4.7264634266