15

 O    0.0283240685   -0.0064215044   -0.0068745784
 C   -0.0120122838    1.1938594338   -0.0533726318
 C   -1.2645869462    2.0752965472   -0.1266980585
 C   -0.8244253039    3.3660805043   -0.8512111845
 C    0.6886902774    3.4348080365   -0.6251697384
 N    1.0514227975    3.2614847892    0.7929052429
 C    1.1878510228    2.1075371043   -0.1294541069
 C    1.5055798876    4.2664167207   -1.4646359968
 N    2.1511937071    4.9540517989   -2.1344701770
 H   -2.0736745405    1.5428772735   -0.6281972385
 H   -1.5859003224    2.2874842480    0.8979342093
 H   -1.0198959533    3.2962935959   -1.9251933981
 H   -1.3201169767    4.2633253496   -0.4737418217
 H    1.9772357829    3.6513322757    0.9616248274
 H    2.1668103530    1.7129901369   -0.3726513390