13

 O   -0.0855498227   -0.0428260385   -0.0020824672
 C   -0.0369064027    1.1551631316    0.0078445885
 N    1.1593596265    1.8824695442    0.0007786581
 C    2.4372804524    1.3334415779   -0.0183906012
 C    3.3335596235    2.3562492100   -0.0194685126
 C    2.5825921784    3.5888259704   -0.0003003134
 C    1.2500912495    3.2585865193    0.0117837340
 C    3.1138687251    4.9028039759    0.0052163075
 N    3.5593704796    5.9717133622    0.0095579620
 H   -0.9181473509    1.8194937476    0.0235538718
 H    2.5552007359    0.2636393023   -0.0290801993
 H    4.4084476684    2.2731646019   -0.0322399028
 H    0.3703747371    3.8806554051    0.0271007046