15

 C   -0.0615209221    1.4185112423   -0.0113739532
 N   -0.0260581987   -0.0184861521    0.1538698342
 C    0.7691651845   -0.6336238978    1.0589399399
 O    1.5356137598   -0.0960474503    1.8311479988
 C    0.5751471372   -2.1645867207    0.9869926567
 O   -0.1887010820   -2.7016612274    0.2176971755
 O    1.3450464883   -2.7934902806    1.8659864810
 C    1.2315318375   -4.2245848522    1.8712948960
 H    0.6415522753    1.8499756735    0.7025722041
 H    0.2343982547    1.7080312282   -1.0255906083
 H   -1.0629993230    1.8156258256    0.1871241587
 H   -0.6041655911   -0.6228114872   -0.4111327099
 H    0.2077101395   -4.5251143850    2.1071162227
 H    1.5041179345   -4.6324432413    0.8948270920
 H    1.9213717257   -4.5709301749    2.6396653218