15

 O   -0.3923108632    0.2280897895    0.1067773551
 C    0.0262598593    1.3193671395    0.3803621087
 C    1.3673521921    1.8587324744   -0.0680116353
 O    2.1831966759    0.9271564762   -0.7895990847
 C    2.1247584381    1.6916093422   -1.9981751348
 C    3.2531986654    1.7997486494   -2.9806868446
 C    1.9805393158    1.0874090760   -3.3662931302
 C    1.3102376527    2.7598235027   -1.3457452950
 O    0.8348271066    3.8103204227   -1.6444071271
 H   -0.5582096274    2.0530242502    0.9792109192
 H    1.8890915550    2.3295507249    0.7762279277
 H    3.4580225360    2.7788007073   -3.4002429646
 H    4.1250921614    1.1930985489   -2.7620695813
 H    1.9961356352    0.0038414745   -3.3998005161
 H    1.2941250672    1.5682188816   -4.0546715171