18

 C    0.0329742686    1.5007733163   -0.0967429952
 C    0.1244866698   -0.0058873857    0.0030096974
 C    1.4417037995   -0.7260640458   -0.0088474229
 C    0.5987104353   -0.7417516181    1.2603435111
 C    1.0860561392    0.0554997161    2.4746132570
 C    2.1532319085   -0.6296241230    3.2067837770
 N    3.0048786407   -1.1611272706    3.7783353520
 C   -0.0855699618   -1.9610939078    1.5985653518
 C   -0.6662165099   -2.9702435011    1.9000471505
 H    0.9031932961    2.0044734875    0.3334741457
 H   -0.0186808331    1.7993318688   -1.1491356140
 H   -0.8637166023    1.8848657509    0.4011247541
 H   -0.6874944916   -0.5257084785   -0.4968159509
 H    1.5366486901   -1.6548618659   -0.5576784049
 H    2.3458869505   -0.1256600354    0.0226340855
 H    1.4642067675    1.0338388588    2.1659242783
 H    0.2522818731    0.2364464933    3.1616792732
 H   -1.1667851002   -3.8685883997    2.1646257643