20

 N    0.1224525699    0.9879181933    0.6872652261
 C   -0.1538166736    0.3025159553   -0.4621954858
 O    0.5613162067    0.3845411670   -1.4453945436
 C   -1.3970001085   -0.5764923603   -0.3952771827
 C   -2.0670151079   -0.8350092463   -1.7832013471
 C   -1.9823808216   -2.3743632634   -1.8235796003
 C   -2.4044240186   -2.7625649816   -0.3770474361
 C   -1.0686192518   -2.0513351087   -0.0165074263
 C   -0.5199367549   -2.6281378330   -1.3544041881
 H    0.9816322104    1.5107304127    0.7352241207
 H   -0.4214641231    0.8737915449    1.5239392689
 H   -2.1023971712   -0.1517166128    0.3273691817
 H   -3.0966178662   -0.4679384141   -1.8177884290
 H   -1.4934030448   -0.3636257601   -2.5835520361
 H   -2.4015781662   -2.8707189073   -2.6990083585
 H   -3.3369027906   -2.3497273595    0.0224931542
 H   -2.3610627943   -3.8395420344   -0.1973232223
 H   -0.5638376819   -2.2113979472    0.9375580424
 H   -0.2854311487   -3.6920295422   -1.2729366866
 H    0.2841544970   -2.0863173623   -1.8541376817