18

 C    0.0510326002   -1.0771057243    0.5218382419
 C    0.0300796507    0.0379270825    0.0752165257
 C   -0.0172914848    1.3992356557   -0.4504949031
 N    1.2597052707    2.0820349447   -0.2523910942
 C    1.3409351186    3.5360874133   -0.2773946424
 C    0.0866319413    4.3906312808   -0.0709429979
 C   -0.3812103429    4.0148384208    1.3192005223
 C    0.4609453159    3.1641663404    1.9136847633
 C    1.5810945222    2.7799759854    1.0052568897
 H    0.0742521179   -2.0655153510    0.9087372797
 H   -0.1984026575    1.3709041568   -1.5323878853
 H   -0.8761914452    1.9186233334    0.0024179428
 H    2.1475666307    3.9367059077   -0.8845045229
 H    0.3386601101    5.4563779440   -0.1387792669
 H   -0.6828865734    4.2115466001   -0.8338478453
 H   -1.3079977167    4.3854576783    1.7434898833
 H    0.3470238950    2.7552586171    2.9105227239
 H    2.5649615170    2.5569441944    1.4064396954