11

 N   -0.1119520154    1.3125451399    0.0080487516
 C   -0.0123674910    0.0439894830    0.0009520027
 C   -1.2245494353   -0.7826838524    0.0030476636
 N   -1.2602779416   -2.0613945439   -0.0033789646
 O    0.0029214894   -2.7054572348   -0.0130940841
 C    1.1127369958   -1.9383286938   -0.0145757764
 N    1.2017531976   -0.6658494777   -0.0088012215
 C    2.3000528099   -2.7595616450   -0.0256194883
 N    3.2527049784   -3.4123916071   -0.0344193914
 H    0.8211534310    1.7320583526    0.0054428002
 H   -2.1953716588   -0.2959272406    0.0105239783