22

 C   -0.0424238374    1.5752396981   -0.0554973377
 C    0.0404084200    0.0452526287   -0.0309302645
 C    0.6627557448   -0.5221279756   -1.3206144698
 N    0.7045473993   -1.9842829513   -1.3683178401
 C    1.4107126648   -2.5594969983   -0.2182066295
 C    0.9111454356   -2.0327337603    1.1291757632
 O    0.6513483956   -2.7688752394    2.0538554801
 C    0.7624028124   -0.5127756852    1.2283944303
 C    2.1503761396    0.1083698564    1.4975965905
 H    0.9418173669    2.0335988109   -0.1960900390
 H   -0.6816127583    1.9131179982   -0.8778835393
 H   -0.4640652222    1.9667579995    0.8763941738
 H   -0.9894448947   -0.3405413816    0.0107114814
 H    0.1001523643   -0.1659764070   -2.1907274163
 H    1.6894977559   -0.1504042245   -1.4421468528
 H   -0.2458694672   -2.3439334513   -1.3822370631
 H    1.3160661213   -3.6479316543   -0.2230975033
 H    2.4795826272   -2.3203816926   -0.3166597293
 H    0.1384667807   -0.3268359355    2.1096770044
 H    2.8334848944   -0.0069791953    0.6506640105
 H    2.0620866512    1.1765302763    1.7116449014
 H    2.6125511758   -0.3673522557    2.3676115891