19

 C    0.0115152846    1.5801822315   -0.1705973914
 C   -0.0125887964    0.0889677053   -0.0066882556
 C   -1.0026033836   -0.8572800935   -0.6842638728
 O   -1.0474735771   -1.7216461354    0.4834168474
 C   -0.1999078926   -0.8157684341    1.1950932117
 C    1.1528820136   -0.7261086406    0.5435193220
 C    1.8148079742   -1.8972852485   -0.1618423997
 C    2.6817753981   -2.6934080982    0.7893574247
 O    3.8323100540   -2.9881568123    0.5916693990
 H    0.5998953444    2.0542617120    0.6210457711
 H    0.4595894308    1.8686303740   -1.1289722613
 H   -0.9995813124    2.0009785664   -0.1343181695
 H   -1.9829715151   -0.3964567113   -0.8530220958
 H   -0.6847453067   -1.3872565566   -1.5901592539
 H   -0.4220148579   -0.6313506779    2.2405802424
 H    1.8377800213   -0.0865678681    1.0990103763
 H    1.0323301731   -2.5761944222   -0.5252031241
 H    2.4266494293   -1.5789231727   -1.0110150156
 H    2.1630054182   -2.9994212977    1.7274943952