17

 C   -0.0289377973    1.5022543482    0.0446355246
 C   -0.0188025599    0.0102115485   -0.0317004089
 C   -0.0507452266   -0.8011127813   -1.1271478456
 C   -0.0224545305   -2.1735230162   -0.6833594778
 N   -0.1184279464   -3.2792028212   -1.5318096697
 C    0.0264875694   -2.1589499078    0.6811662147
 N    0.0237831979   -0.8194958828    1.0932297454
 C    0.0707003409   -0.4149468491    2.4138865000
 O    0.1118471824   -1.1716759167    3.3536472647
 H    0.8689083588    1.9068223419    0.5264822542
 H   -0.0693704637    1.9081669031   -0.9687088744
 H   -0.8972622127    1.8901544222    0.5898908893
 H   -0.0992306516   -0.4665189392   -2.1534995373
 H    0.3599957847   -3.1498500689   -2.4132057737
 H    0.1795961333   -4.1446905372   -1.1023479483
 H    0.0573405290   -2.9414755827    1.4186112022
 H    0.0667937222    0.6829593490    2.5163376905