20

 C    1.1100575603    1.4292854385   -1.5545931007
 C    1.1768048400   -0.0629576433   -1.7582992293
 N    2.0468865022   -0.7364872042   -2.3935498475
 O    0.1249151451   -0.6564391418   -1.1551763492
 C    0.0147327553   -2.0851615843   -1.2122968635
 C    0.9889845032   -2.7586612355   -0.2596129045
 C   -1.4536684644   -2.5267923677   -1.0579909351
 O   -1.3720515787   -3.3232523959   -2.2552762202
 C   -0.1075943242   -2.7185120432   -2.6150328832
 H    1.9450702482    1.9296628140   -2.0472557443
 H    0.1695500696    1.8213359546   -1.9531925532
 H    1.1305359110    1.6638880425   -0.4860201258
 H    2.7545981234   -0.1231856632   -2.7904607035
 H    0.8474811259   -2.3773352989    0.7568652761
 H    0.8057102600   -3.8372601338   -0.2508601705
 H    2.0189461461   -2.5797740624   -0.5717712564
 H   -1.7029864605   -3.1247661032   -0.1743471153
 H   -2.1610304598   -1.6928633794   -1.1551608460
 H   -0.2163741592   -1.9852182624   -3.4210082925
 H    0.6488025164   -3.4582015404   -2.8904378653