18

 O   -0.8744412789    1.1457204049   -0.5628308555
 C    0.1431797700    0.8997284166    0.0346442135
 C    1.3665832479    1.8057417453    0.0765546844
 C    1.2484681456    3.0631151587   -0.8144885459
 C    0.8798242052    3.8376867946    0.4734419279
 N    1.4041929205    2.7062971186    1.2694091482
 C    0.7420382881    2.3369108851    2.5139507111
 C    0.9400068754    3.3619659711    3.5354684860
 C    1.0822674354    4.2147797056    4.3693984311
 H    0.2330836657   -0.0314224171    0.6408689768
 H    2.2674841720    1.1838532947   -0.0118280766
 H    2.2026777208    3.3645224381   -1.2468268108
 H    0.4793531560    3.0100342363   -1.5832146389
 H    1.3848963285    4.7877260564    0.6681283989
 H   -0.2058337059    3.9813357193    0.5778025227
 H   -0.3458108654    2.1709664288    2.3932575935
 H    1.1688667024    1.3868426369    2.8627040106
 H    1.2140281767    4.9640012960    5.1103193531