21

 C   -0.0259887036    1.4745941253   -0.0041550846
 C   -0.0012002304   -0.0461154397   -0.0272001372
 C   -1.3253786630   -0.6892223951   -0.4659054104
 O   -1.4578811508   -1.9028006770    0.2732426242
 C   -0.8533909277   -1.7150897165    1.5557405635
 C    0.3227008912   -0.7639395835    1.3317308366
 C    1.6344126207   -1.2978022952    0.7227248626
 C    1.3997540428   -2.1195337021   -0.5172222120
 C    1.3142045150   -0.6210832668   -0.6104643058
 H    0.9170114721    1.8771190005    0.3801584625
 H   -0.1700171623    1.8824872748   -1.0121195942
 H   -0.8384779148    1.8505736681    0.6272885881
 H   -2.1689635497   -0.0134694816   -0.2449309282
 H   -1.3600738928   -0.9483160646   -1.5285162152
 H   -1.5788406648   -1.2744200363    2.2593290885
 H   -0.5675329593   -2.7034416114    1.9277758066
 H    0.4864051511   -0.0823555841    2.1686375607
 H    2.5790642188   -1.3324322420    1.2521735702
 H    2.3048347339   -2.5379736398   -0.9477882563
 H    0.5211822706   -2.7442905501   -0.6228450357
 H    1.9746065127   -0.0526364630   -1.2561119940