15

 O   -0.3291689457    1.3397335952   -0.8919832840
 C    0.0876328264    1.6423598043    0.2049482092
 N    1.3742176047    1.4844180380    0.6229160108
 C    2.4152197879    0.9824778040   -0.2639860909
 C    3.5396561553    1.9058888695   -0.3920547163
 C    4.4687689651    2.6643235533   -0.4715652796
 C    5.5966531810    3.5862320588   -0.5813596533
 C    6.2659647607    3.8264648576    0.7043613217
 N    6.7946340778    4.0216840908    1.7119271908
 H   -0.5492946482    2.0781872648    0.9983903300
 H    1.6364933342    1.8134303652    1.5384305533
 H    2.7778318595    0.0063217612    0.0837248699
 H    1.9295621499    0.8212963211   -1.2318375747
 H    6.3399456724    3.1972332575   -1.2890537965
 H    5.2677503990    4.5527654888   -0.9840415603