18

 C   -0.0356372108    1.4833865731    0.0097276879
 O    1.2208514354    0.7760004871   -0.0067570426
 C    0.0433457469    0.0255577864    0.0018253836
 C   -0.5003752816   -0.9619584141    1.0452451630
 C   -1.6829377961   -1.1177848514    0.0141947758
 C   -0.5220270106   -0.9518230829   -1.0396298013
 C    0.2662784445   -2.2449694822   -0.7539290457
 N    1.5396870953   -2.0460899682   -0.0237812338
 C    0.2816896789   -2.2521898185    0.7306724993
 H   -0.2567102542    2.0160837259    0.9341614125
 H   -0.2758071601    2.0250159303   -0.9046974532
 H   -0.6596366947   -0.6833712937    2.0857195803
 H   -2.2050012354   -2.0767891774    0.0149546760
 H   -2.3910693599   -0.2866447139    0.0255908011
 H   -0.7028318615   -0.6631447450   -2.0738138205
 H    0.1117534309   -3.1333325389   -1.3552520807
 H    2.0581040785   -2.9229264938   -0.0334233109
 H    0.1395882444   -3.1463738828    1.3264061593