17

 C   -0.0552411357    1.6433620353   -0.0111393858
 C    0.0708950122    0.1266272045    0.0590626598
 C    1.1352822935   -0.6064335264   -0.7790418703
 O    1.4221274596   -0.6542484397   -1.9342816550
 N    1.6766970366   -1.3709738367    0.3328463075
 C    2.1731431859   -0.3244991153    1.2870449721
 C    0.7261766011   -0.5822232227    1.2574065826
 C   -0.0257349972   -1.2635962367    2.3605343691
 H    0.8851785941    2.1432104009    0.2378751300
 H   -0.3364580089    1.9484344884   -1.0234560959
 H   -0.8243860544    2.0065320341    0.6777809800
 H   -0.8978320662   -0.3403577247   -0.1593571334
 H    2.7522837100   -0.7571467021    2.0968182031
 H    2.5950315271    0.5897016724    0.8772037806
 H   -0.4477237967   -0.5262360224    3.0529164677
 H   -0.8507956945   -1.8634021265    1.9626695274
 H    0.6325463636   -1.9245350327    2.9311061505