25

 C   -0.2417717910    1.3241442817   -0.1405245826
 C   -0.0785598101   -0.1795196328    0.1020313061
 C    0.8344148689   -0.5377546706    1.3031955727
 C    0.2013230727   -0.1861992252    2.6583071712
 C    1.1598655360   -0.3573686864    3.8411330040
 C    1.1345643579   -2.0381375167    1.2101139576
 O    0.3730702033   -2.8645965641    1.6623992919
 C    2.4183985374   -2.4358775351    0.4944434776
 C    2.5441752582   -3.9346573360    0.2362095860
 H    0.7277019578    1.8038916901   -0.3153465582
 H   -0.8662475252    1.5066037320   -1.0207340263
 H   -0.7148573216    1.8287992820    0.7067177107
 H   -1.0571211445   -0.6472339443    0.2630489473
 H    0.3291604798   -0.6371470974   -0.8086972815
 H    1.7791157406    0.0115803336    1.1837208314
 H   -0.1593953595    0.8474298620    2.6319711328
 H   -0.6733574968   -0.8301374081    2.7980731312
 H    0.6743596953   -0.0838018734    4.7828489056
 H    1.4942019887   -1.3956513898    3.9335070449
 H    2.0482559703    0.2752753123    3.7306231563
 H    2.4923141320   -1.8562989656   -0.4356002619
 H    3.2492514113   -2.0709638429    1.1167141012
 H    1.7429750904   -4.2870849933   -0.4192915024
 H    3.5028467221   -4.1698015366   -0.2345827944
 H    2.4665369562   -4.4954100855    1.1706437888