13

 C   -0.3015334558   -1.2442321319   -0.2307281894
 C   -0.0955515691   -0.0678622283   -0.1043963608
 C    0.1091378544    1.3591537407    0.0675457684
 C   -0.4715988195    1.9447148852    1.3999287189
 N    0.6893837988    2.4647511235    2.1281541884
 C    1.6917153703    2.2527393533    1.3801723887
 O    1.5387699711    1.6569865324    0.1725477705
 C    3.0422164570    2.6116392080    1.7142925863
 N    4.1287958847    2.9014923197    1.9766623283
 H   -0.4757396148   -2.2858279312   -0.3491312722
 H   -0.2534428721    1.9027851557   -0.8093567982
 H   -1.1840510056    2.7537186224    1.2149711389
 H   -0.9746653694    1.1794607304    1.9961201323