11

 O   -0.0656201696    1.2901210897    0.0098307435
 C    0.0040515656   -0.0381076775    0.0024097469
 N    1.1874321598   -0.5934083830   -0.0070650766
 C    1.2700449468   -1.9636631852   -0.0148582869
 O    2.2758836070   -2.6291465451   -0.0238578299
 N   -0.0044428544   -2.6196286782   -0.0113198147
 C   -1.1588473173   -1.9356864743   -0.0013347038
 N   -1.2260651646   -0.6382039048    0.0059457260
 H    0.8493845587    1.6093103111    0.0064954325
 H    0.0158167759   -3.6298975455   -0.0167952683
 H   -2.0774978378   -2.5184746872    0.0006161012