20

 C   -0.0303923839    1.4364138982   -0.3006559925
 C    0.0815896075   -0.0352404101    0.0344880120
 C    1.4127761294   -0.7543615970    0.0125631544
 C    0.6853677480   -0.5593504641    1.3223528040
 C    1.2591460229    0.3886316393    2.3571795096
 C    0.0038419457   -1.7916901835    1.9254905097
 C    0.9114793628   -2.6537897739    2.6788144616
 C    1.6713763523   -3.3529222553    3.2947127873
 H    0.8449406657    2.0025539382    0.0289672921
 H   -0.1189053873    1.5768928550   -1.3837383543
 H   -0.9134632414    1.8890717431    0.1645864814
 H   -0.7589452142   -0.6205077906   -0.3337448407
 H    1.4651960460   -1.7518408922   -0.4116943971
 H    2.3024982263   -0.1560801111   -0.1592673692
 H    1.7948489823    1.2224003472    1.8979559395
 H    0.4697993518    0.8073804485    2.9934968892
 H    1.9630717698   -0.1415109823    3.0068530329
 H   -0.8156427648   -1.4692275449    2.5832292386
 H   -0.4630205369   -2.3783680211    1.1245825994
 H    2.3360268479   -3.9772423533    3.8383424321