15

 C   -0.0090979886    1.4466180481    0.0080591983
 N   -0.0181508692   -0.0070537026    0.1011368595
 C   -1.2180812252   -0.6578055095    0.0289080271
 N   -2.3766714457   -0.1045065896    0.0528381103
 C   -3.3455564617   -1.1972138277    0.0387242346
 C   -2.5416286915   -2.5047172722   -0.0017187455
 O   -2.9073130717   -3.6531121688    0.0024577761
 N   -1.2239316142   -2.0567612261   -0.0376954702
 H    0.9996089080    1.8054121265    0.2230668603
 H   -0.3238740844    1.8117981976   -0.9778159726
 H   -0.6993185016    1.8511770044    0.7498554875
 H    0.7558994552   -0.4783910415   -0.3414337192
 H   -3.9910526148   -1.1872536994    0.9255647642
 H   -4.0078492082   -1.1380137823   -0.8334584962
 H   -0.4295412465   -2.6690983170    0.0553334859