20

 O    0.2336433340    0.1717135980   -0.6208741095
 C    0.2178621494    1.3275106010   -0.2582903796
 N    1.2423125254    1.9702997407    0.3850581142
 C    2.6692289073    1.9385988322    0.1477782027
 C    3.2189401205    1.3528420415   -1.1508688216
 C    3.2275441707    2.3565973487   -2.3163478683
 C    1.9083721138    3.1313786784   -2.4198050256
 C    1.6788365177    3.9913116576   -1.1657229737
 C    1.8855872975    3.2401464002    0.1376834681
 H   -0.6786681566    1.9730971625   -0.3456521574
 H    3.2459780533    1.7197004198    1.0444004937
 H    4.2362239023    0.9945355132   -0.9659601351
 H    2.6190132844    0.4752214358   -1.4114263707
 H    4.0476524290    3.0742074690   -2.1778334573
 H    3.4322913086    1.8252683450   -3.2515708426
 H    1.9163861781    3.7841609748   -3.2988329075
 H    1.0785768898    2.4294949247   -2.5661094909
 H    2.3914098244    4.8266959361   -1.1687973804
 H    0.6803895013    4.4448977607   -1.1803823058
 H    1.9595472290    3.8759368602    1.0193964072