12

 N   -0.2846659954    1.3058274880   -0.0168429145
 C   -0.0753706528    0.0744535162   -0.1788719430
 O    1.1584106498   -0.3805399098   -0.6386296507
 C    1.4936621535   -1.6864086007   -0.8625320612
 N    0.7638012776   -2.6598343353   -1.1856635754
 C   -0.6196355638   -2.4762973157   -1.4038791655
 O   -1.1506536927   -2.7447859311   -2.4430772434
 N   -1.3618127028   -2.0478849479   -0.2756954738
 C   -1.1234295782   -0.9072593299    0.2271193389
 H    0.5101725897    1.8695367885   -0.3238631628
 H    2.5708240700   -1.7964463246   -0.7636333278
 H   -1.7524713448   -0.5433910877    1.0391164394