16

 O    0.3031293451    0.9221667520    0.8007879124
 C   -0.0629438230    0.1474603009   -0.3298010106
 C   -1.3821428705   -0.4766369838   -0.2114433699
 C   -2.4796878111   -0.9651287091   -0.1141642535
 C   -3.7911092901   -1.5908391931    0.0617897281
 O   -3.7034136271   -2.9302009187    0.5105510390
 C   -4.6614297080   -0.7249407757    1.0167967482
 C   -6.0033635847   -1.2737109548    1.1894896600
 N   -7.0713926375   -1.6940233993    1.3189215210
 H   -0.3668171687    1.6037044203    0.9185553104
 H   -0.0263548878    0.7390349073   -1.2580325650
 H    0.7045734001   -0.6287261275   -0.4214281811
 H   -4.3053833447   -1.6474150785   -0.9043603846
 H   -3.0548716364   -2.9655321027    1.2229484452
 H   -4.1682259336   -0.6592994062    1.9928407475
 H   -4.7362618621    0.2940314987    0.6227625929