16

 C   -0.0933304287    1.5659505999    0.0985062826
 C   -0.0112311113    0.0723631342    0.0101946285
 C    0.0466092804   -0.7153897230   -1.1281491062
 C    0.0683384158   -0.3839382039   -2.5843866251
 O   -0.3642374553   -1.5354714975   -3.3004616145
 N    0.1339290892   -1.9993578241   -0.7025142364
 N    0.1171589761   -2.1210558551    0.6363135471
 C    0.0403079669   -0.8650837172    1.0684861212
 H    0.8889813430    2.0455436769    0.0039987379
 H   -0.7323319488    1.9852991760   -0.6869075202
 H   -0.5118612591    1.8757904092    1.0605376684
 H   -0.5835522517    0.4829598568   -2.7746097199
 H    1.0852095484   -0.0934821983   -2.8957298768
 H   -0.1747139197   -1.3995262345   -4.2330036623
 H    0.1195107480   -2.8142481367   -1.2925112050
 H    0.0153488268   -0.6638824626    2.1305299810