19

 O   -0.2640974678    1.4699393673    0.2410131114
 C   -0.0120187650    0.0812027492    0.1017789421
 C   -1.3661046735   -0.6028547587   -0.0554777398
 C   -1.2921722463   -2.1358401030   -0.1405104450
 C   -1.0474626760   -2.8437572361    1.2364318800
 N   -2.5085736465   -3.0161224704    1.3723249301
 C   -2.7023677312   -2.8121568387   -0.0787276117
 C   -0.4381089100   -2.5803530644   -1.2341421756
 N    0.2391897826   -2.9377292255   -2.1010146122
 H    0.5806997846    1.9284776914    0.2644122380
 H    0.6162399769   -0.1288421450   -0.7765757964
 H    0.5140950238   -0.3187986134    0.9840141243
 H   -2.0005690672   -0.3431583626    0.7977512975
 H   -1.8535248548   -0.2122379301   -0.9554495328
 H   -0.4772842251   -3.7741841809    1.1205591248
 H   -0.5846235740   -2.2339622821    2.0189288271
 H   -2.8075803231   -3.9168064434    1.7273578164
 H   -3.5496842850   -2.1712107246   -0.3431989149
 H   -2.7427298826   -3.7310066689   -0.6773185234