23

 C   -0.0470809852    1.4040775688   -0.0470513986
 O   -0.0306482047   -0.0016939534   -0.0433944412
 C    0.6495498485   -0.5415692964    1.0699506164
 C    0.6303514715   -2.0585254078    1.0031577307
 C   -0.5918313541   -2.7195241281    0.4078896706
 C    0.7074986861   -2.6997716929   -0.3635499604
 C    1.3104252155   -2.7879968264    2.1320733623
 C    2.5664804492   -2.3050691919    2.8183547840
 C    1.2596207649   -2.3476760479    3.5761891032
 H    0.9704352845    1.8250983449   -0.0807026312
 H   -0.5907228551    1.7227878838   -0.9397889853
 H   -0.5548231088    1.8097492467    0.8425353017
 H    1.6896697610   -0.1728651438    1.0817283582
 H    0.1700235812   -0.1926953615    2.0007857808
 H   -0.9208227382   -3.6567892718    0.8444180886
 H   -1.3869247321   -2.0754676879    0.0528997241
 H    0.7616554298   -2.0423774907   -1.2226295708
 H    1.2690231285   -3.6235147820   -0.4566627866
 H    1.2650382307   -3.8656919741    1.9942986247
 H    3.3301202647   -3.0369136089    3.0584993001
 H    2.9635161431   -1.3306908253    2.5568385074
 H    0.7880477176   -1.4017473822    3.8178856650
 H    1.1251226216   -3.1091189012    4.3368033964