19

 C    0.0192545703    1.5602903517    0.0062938537
 C    0.0571180057    0.0248666148    0.0057360757
 C    0.7342931213   -0.5281906029   -1.2710594178
 C    1.0011864952   -2.0121340878   -1.1128749795
 O    0.5202436724   -2.8620888539   -1.8222996618
 C    1.9256058729   -2.3531362082    0.0652826653
 O    3.2894627763   -2.1009675018   -0.3052335501
 C    1.5322335169   -1.5735533451    1.2904062305
 C    0.7181731902   -0.5157081455    1.2511821928
 H    1.0322439529    1.9773613937    0.0177109874
 H   -0.4917450126    1.9370550177   -0.8849381571
 H   -0.5112256173    1.9409083152    0.8851841280
 H   -0.9850934022   -0.3294632000    0.0067703773
 H    0.1211293734   -0.3565598024   -2.1582597880
 H    1.6951719983   -0.0150330649   -1.4100123975
 H    1.8581961129   -3.4320683611    0.2348618506
 H    3.4859620644   -1.1876392632   -0.0708958035
 H    1.9693783039   -1.8975466571    2.2317258372
 H    0.4864146551    0.0091125607    2.1764788467