20

 C    0.0293365172    1.5100642043   -0.0447391123
 C    0.0368337768    0.0024997945   -0.0151444123
 C    0.4421232511   -0.7741760859   -1.2583021830
 O    0.3168509825   -2.1341663097   -0.8176619240
 C   -0.1126290835   -1.9947601040    0.5237028673
 C   -0.3038496948   -3.3382475311    1.1703373467
 C    0.6213809033   -0.7891759555    1.2070405334
 N   -0.6017555890   -0.4118301740    2.0012296212
 C   -1.1311243518   -0.8089021904    0.6479591287
 H    1.0258070674    1.9050732001   -0.2730187204
 H   -0.6583346941    1.8861521373   -0.8107431588
 H   -0.2849690642    1.8997049456    0.9259942882
 H   -0.2224021040   -0.5914111371   -2.1127300057
 H    1.4747419156   -0.5723608989   -1.5713697769
 H    0.6340330625   -3.9014092458    1.1602706103
 H   -0.6344317475   -3.2388838897    2.2082228542
 H   -1.0531274071   -3.9193039208    0.6245893487
 H    1.6307686584   -0.7360352465    1.6209312602
 H   -0.8121399030   -1.1424804269    2.6864620475
 H   -2.1945694859   -0.7790944855    0.4005907068