18

 C   -0.0665310696    1.5643459904    0.0325403613
 C    1.4529334479    1.2079164642    0.0534655268
 C    1.2066007924    0.0233643217    1.0014186178
 C    2.1438582902   -1.1017382073    0.6014533510
 C    1.7487262161   -1.1250547995   -0.9169782581
 C    0.4715510355   -1.9614705233   -1.0270069429
 C   -0.5592781587   -1.2610424198   -0.5264035403
 C    0.0476368214    0.0390872042   -0.1245044381
 N    1.1789083808    0.2462959125   -1.1098233932
 H   -0.4892240711    1.9481384168    0.9626197033
 H   -0.4174712106    2.1066818023   -0.8465712900
 H    2.2992456108    1.8971647443    0.0391433798
 H    0.9589489069    0.1814531893    2.0523601996
 H    3.1984014659   -0.8415388744    0.7406318755
 H    1.9480278204   -2.0471323912    1.1142996051
 H    2.5499226298   -1.3793486379   -1.6106400027
 H    0.4554919975   -2.9940370960   -1.3535974382
 H   -1.5733536855   -1.5964811962   -0.3594677667