21

 C   -0.2289699896    1.5602387881    0.0615338285
 C    0.0347018264    0.0585619959   -0.0065538983
 C    0.8080460421   -0.4687101407   -1.2472504215
 C    2.2189365348    0.1346187971   -1.2776569449
 O    2.8777292089   -0.4576418916   -0.1306275430
 C    1.9281916509   -1.3881762257    0.4358073861
 C    1.1600698475   -1.9001107739   -0.7815977061
 C    0.8944858876   -0.5189529831    1.1904747073
 O    1.5293059940    0.4493456636    1.9942840284
 H    0.6928943304    2.1439219421    0.1183512555
 H   -0.7940036798    1.8955349440   -0.8149842556
 H   -0.8111601007    1.8066207833    0.9540893775
 H   -0.9353488083   -0.4528002225    0.0007526387
 H    0.2720529385   -0.3757577890   -2.1935024772
 H    2.7661107707   -0.1419929108   -2.1878437982
 H    2.2382195304    1.2245638715   -1.1830376578
 H    2.4817109017   -2.1008208517    1.0476205872
 H    0.2831416490   -2.4995079071   -0.5235756828
 H    1.7935302971   -2.4568511016   -1.4769478165
 H    0.2711417553   -1.1207614670    1.8594450207
 H    2.3558611332    0.6570876293    1.5346637921