19

 O    0.1055072933    1.1575385658   -0.5462149874
 C    0.0739416153   -0.1645873050   -0.0542445811
 C    0.4847346260   -0.3470467191    1.4138703087
 C   -0.2076116410   -1.6682464752    1.7545641359
 O   -1.3709604562   -1.7362947250    0.9180689891
 C   -1.3626413677   -0.7022454913   -0.0471210262
 C   -2.5240431891    0.3211112539    0.0557227017
 O   -3.0036983160   -0.0389915046   -1.2561507779
 C   -2.0160707175   -1.0768239049   -1.3909237153
 H    1.0240335178    1.4202137855   -0.6556482776
 H    0.6805960463   -0.8299677741   -0.6906156624
 H    1.5664869396   -0.3789377843    1.5684347574
 H    0.0742624383    0.4826635913    1.9992230390
 H    0.4407708931   -2.5289669595    1.5391351801
 H   -0.5192047735   -1.7358674941    2.8018905764
 H   -3.2393401377    0.0635439894    0.8465216515
 H   -2.2453266132    1.3769777004    0.1165931927
 H   -1.3924864061   -0.9399635063   -2.2836698260
 H   -2.4554139219   -2.0819495529   -1.3940291786