17

 C    1.0656472811    1.1158585885   -0.7076238992
 C    0.0952781960    0.1486764646   -0.0804892519
 N    0.6322541865   -1.1300902666    0.4058708186
 C    0.0745031355   -0.1804101575    1.3827610295
 C    1.0201986702    0.3827628976    2.3638810839
 C    2.3407135275    0.1283018461    2.5412207644
 O    2.7840342706    0.8902271209    3.5886922467
 C    1.6878992115    1.5678241790    3.9934116023
 N    0.6155463861    1.3175529253    3.3182530257
 H    2.0016361745    1.1499921262   -0.1457056269
 H    1.2956950629    0.8169268237   -1.7357071418
 H    0.6405347243    2.1247558810   -0.7333235495
 H   -0.8828600441    0.1138626983   -0.5596305512
 H   -0.0200043692   -1.8904295606    0.2384407120
 H   -0.9090602460   -0.3852147966    1.8011391928
 H    3.0554837925   -0.5155627544    2.0621868862
 H    1.8129520300    2.2395039843    4.8282803984