19

 C   -0.1058335844    1.5521304338   -0.0416163175
 C   -0.0400237572    0.0196632440   -0.0177453463
 C    1.1416264223   -0.5405919531   -0.8848378177
 C    2.0174593705   -0.6457013793    0.3868531149
 C    0.7255196265   -0.5552705576    1.2557935933
 C    0.7452464556    0.2182228187    2.4769938716
 C    0.7720564142    0.8778553217    3.4829248575
 C   -1.3460214729   -0.5661243167   -0.2602610031
 C   -2.4228416615   -1.0645883850   -0.4591950998
 H    0.8825720002    1.9874020812    0.1323304458
 H   -0.4697398579    1.8946363032   -1.0146114757
 H   -0.7803898310    1.9242799630    0.7331969253
 H    0.8992272894   -1.5180502650   -1.3062780647
 H    1.4905177119    0.1146504765   -1.6858500966
 H    2.6188398326   -1.5473771273    0.5125044736
 H    2.6588979540    0.2257062190    0.5313877544
 H    0.3439397704   -1.5605098254    1.4567424165
 H    0.7932178075    1.4512276122    4.3763392703
 H   -3.3746211401   -1.5014919139   -0.6343626518