22

 C   -0.0558195579    1.5814219132    0.0332764347
 C   -0.0264982084    0.0489677553    0.0130024455
 C    0.7447192229   -0.5382125801   -1.1712368006
 C    2.2567245302   -0.2269250081   -1.2116851948
 N    2.8624766456   -1.2417307211   -2.1074227789
 C    3.2319541487   -2.4878151660   -1.4256310349
 C    1.9296839257   -2.3972216317   -2.1263417814
 C    0.6951586881   -2.0868073901   -1.2884078350
 O    0.7901426576   -2.7540444745   -0.0319915818
 H    0.9513116149    2.0005541696    0.1240105508
 H   -0.4994075440    1.9810171346   -0.8853054948
 H   -0.6453842399    1.9529689477    0.8770355155
 H    0.4175349597   -0.3205529718    0.9452046065
 H   -1.0603849471   -0.3252705738   -0.0117834987
 H    0.3086246001   -0.1502039448   -2.1024982023
 H    2.4630348763    0.7672171136   -1.6171236884
 H    2.6948076902   -0.2708378363   -0.2054352278
 H    4.0522345617   -3.0353063738   -1.8823869884
 H    3.2098383576   -2.5125971562   -0.3399729023
 H    1.7864241699   -2.8817356162   -3.0875811667
 H   -0.2159409501   -2.4101379461   -1.8106255948
 H   -0.0134960918   -2.5657641935    0.4633350687