17

 O   -0.1080498866   -0.0052538115   -0.1457234969
 C   -0.0050249586    1.1750634053    0.0753603989
 C    1.2776805569    1.9412751423    0.0255812055
 C    1.5467824254    2.8527796131   -1.2038455043
 O    2.8499142370    2.2506890542   -1.3916291578
 C    2.6282000903    1.3030163616   -0.3132273030
 C    3.1864687170    1.6880902349    1.0737640015
 C    3.1220924334    3.1735249560    1.2740503678
 C    1.8515709736    2.3821368989    1.4027749758
 H   -0.8993154348    1.7881527798    0.3381201536
 H    0.8906552986    2.6556129751   -2.0609599241
 H    1.5990850192    3.9323192795   -1.0235649413
 H    2.7304827506    0.2622440904   -0.6225292282
 H    3.7936264470    1.0426425661    1.6961481044
 H    3.5258161599    3.5248479232    2.2181041843
 H    3.3020641643    3.8390465412    0.4373941541
 H    1.2813293568    2.3603087798    2.3239557394