17

 C    0.0495965738   -1.1073802219   -0.0277789869
 C    0.0010334412    0.0961392567   -0.0118250540
 C   -0.0677219047    1.5106697604    0.0368215372
 C    0.1275854948    2.4301980318   -1.1923606225
 C    1.0568754877    2.5435699665   -0.0137845944
 C    0.0398732924    3.5548103044    0.5909301182
 C   -0.7523710656    3.6305262392   -0.7717896750
 C   -2.0135322083    3.0621420022   -0.0760553672
 C   -1.0005134075    2.4124005797    0.8947924146
 H    0.0942906800   -2.1676558822   -0.0456580824
 H    0.3126786775    2.0175451988   -2.1748646260
 H    2.1251763493    2.4003986489    0.0756144755
 H    0.2418887505    4.3991705523    1.2436976353
 H   -0.7714157657    4.5085171394   -1.4160790499
 H   -2.5910323921    3.8518763691    0.4155768469
 H   -2.6816827024    2.4110702267   -0.6476133890
 H   -1.2598410209    2.0677384678    1.8941272194