16

 N   -0.0709520315   -1.0987573097    0.3199268619
 C   -0.0185164927    0.0426595101    0.1442420691
 C    0.0248909610    1.4629485327   -0.1109611614
 C   -1.0135467786    2.1010880790   -1.0324705199
 C   -0.3401650940    3.3499460081   -1.6118472266
 C    0.0973095439    4.4645466854   -0.7013261178
 C    1.0978874843    3.4102998238   -1.1171534319
 C    1.2813516728    2.2545805495   -0.1670029623
 O    0.4391114382    2.2824206713    0.9912728261
 H   -1.2569043001    1.3959973358   -1.8334739504
 H   -1.9393719191    2.3161992571   -0.4896990768
 H   -0.5742183781    3.6026466138   -2.6395191798
 H    0.2059174527    5.4470863930   -1.1467923655
 H   -0.2290512018    4.4588470021    0.3311449184
 H    1.9254999748    3.6628297377   -1.7679236294
 H    2.2577754183    1.8041785605   -0.0170194138