23

 C    0.0483769682    1.5087966165   -0.2362837826
 C   -0.1447233091    0.0171105377   -0.4473812378
 O    1.0930608282   -0.5420821253   -0.8588439664
 C    1.0222527099   -1.9119809203   -1.1060148996
 C    0.5081919162   -2.4816817025   -2.4016370673
 C    0.8616467464   -1.5477029618   -3.5642449358
 C    2.3661326437   -1.6221386176   -3.1608355545
 C    2.0113342477   -2.5714034939   -2.0035485708
 C    2.8527362791   -3.7430770019   -1.5827711913
 H    0.8100608105    1.6934410091    0.5266649068
 H    0.3713752713    1.9891245608   -1.1644184091
 H   -0.8879701597    1.9731049469    0.0876123733
 H   -0.4823836489   -0.4648662277    0.4852727431
 H   -0.9174465350   -0.1755704248   -1.2076801486
 H    0.7525863245   -2.5010243730   -0.2254623831
 H   -0.2463317806   -3.2610938528   -2.4236087611
 H    0.6703465866   -1.9986468158   -4.5401821705
 H    0.3996006093   -0.5564808687   -3.5394160808
 H    2.9757035955   -2.1136835862   -3.9233018829
 H    2.8440801567   -0.6831521107   -2.8713590411
 H    3.7891398789   -3.4091425768   -1.1185928716
 H    2.3289586596   -4.3712727982   -0.8547211361
 H    3.1155504412   -4.3731847632   -2.4404017122