23

 C   -0.3751523399    1.4098247184    0.1023450272
 C    0.0772409373   -0.0396069928   -0.0446240019
 C   -1.0644457127   -1.0618025629    0.2751780435
 C   -0.3609107043   -1.4301428841    1.6120238896
 C    0.8911492796   -0.6147256671    1.1715945399
 C    2.0724925124   -1.3706690887    0.5819892725
 C    1.8103389780   -2.5254620033   -0.3582864894
 C    2.1003064028   -1.1592678676   -0.9221563770
 C    0.9242852644   -0.2738953403   -1.3218234228
 H    0.4821131864    2.0929717460    0.1139097958
 H   -1.0279027920    1.7053257128   -0.7279801400
 H   -0.9360968708    1.5606012405    1.0316320752
 H   -2.0627094259   -0.6241827041    0.3671664641
 H   -1.1283570150   -1.8889365326   -0.4371272465
 H   -0.8607438844   -1.0052037405    2.4862679386
 H   -0.1934026523   -2.4935191166    1.7981405036
 H    1.2412407180    0.1243445023    1.8984059823
 H    2.9945730557   -1.3982485402    1.1527603217
 H    2.5907890920   -3.2743476932   -0.4442456022
 H    0.8089835230   -2.9341483787   -0.4415244336
 H    3.0402876949   -1.0182984947   -1.4453794841
 H    0.3232618631   -0.7078588336   -2.1304573227
 H    1.3077333498    0.6829205311   -1.6958509739