18

 C    0.3833200987    1.5536164932   -0.5289249177
 C    1.3926434381    2.2103890605    0.4710002901
 C    2.1843449769    1.1609453097    1.0956915919
 C    2.4816080741    0.0742667092    1.5231492932
 C    2.4526598327   -1.3444280691    1.8505574156
 C    1.0773340429   -1.9098500729    1.3748714290
 N    0.9863921339   -1.8326152948   -0.0749923575
 C    0.5516770961   -0.7991556740   -0.6473190082
 O   -0.0600079891    0.2806033554   -0.0676865408
 H   -0.4981588954    2.1919365017   -0.6361248374
 H    0.8572887097    1.4452939936   -1.5124141765
 H    1.9912726168    2.9498912051   -0.0735792442
 H    0.8371430291    2.7616927199    1.2391315375
 H    3.2625045341   -1.8906076808    1.3535275294
 H    2.5541814048   -1.5206507511    2.9274927379
 H    1.0178422715   -2.9638658527    1.6642427065
 H    0.2805137548   -1.3605890679    1.8887955144
 H    0.6033703102   -0.7279925748   -1.7384219730