16

 O   -0.0450077624    1.4574950981   -0.0053450614
 C    0.0303449532    0.0463057938   -0.0080907561
 C    0.6342895577   -0.5679410858    1.2862153229
 N   -0.2170579017   -1.7166414999    1.6655541144
 C   -1.2130107796   -1.9443861070    0.6468401284
 C   -1.6234630862   -1.4171917267    2.0177943424
 C   -2.1259716993   -0.1785442498    1.3239251944
 O   -2.9754181810    0.6201091053    1.5960372062
 C   -1.3845826507   -0.5412807150    0.0056068711
 H    0.8452411070    1.8115145939   -0.0931732880
 H    0.5749313804   -0.3109514984   -0.8960703058
 H    1.6517561920   -0.9411903864    1.1367359992
 H    0.6483678123    0.1781752429    2.0857906971
 H   -1.4017139558   -2.9210438330    0.2206151190
 H   -2.0504344259   -1.9235876572    2.8761337216
 H   -1.9619042501   -0.4080363046   -0.9075315055