17

 C    0.2002510312    1.5868806691    0.1577023159
 C   -0.1149279581    0.1132706553   -0.1466798045
 C    0.5846236017   -0.4024963718   -1.3630327818
 C    0.0611314157   -0.8524943988   -2.5386233263
 O   -1.1894902873   -1.0166091765   -3.0427566326
 N    1.1288974744   -1.2058663827   -3.3488075130
 C    2.2469924828   -0.9474319580   -2.6130871347
 O    3.4577420636   -1.1969681752   -3.1470973271
 N    1.9855741644   -0.4724727505   -1.4349671323
 H    1.2791061439    1.7234460079    0.2699311307
 H   -0.1354185809    2.2365850537   -0.6570157265
 H   -0.2879403886    1.9133577913    1.0816773199
 H    0.1634334559   -0.4980007573    0.7218794159
 H   -1.2003915879   -0.0139447823   -0.2654788738
 H   -1.8216842292   -0.7501157466   -2.3679164123
 H    1.0789027484   -1.5807169208   -4.2804652979
 H    4.1013584500   -0.9487555767   -2.4717046597