18

 C    0.0795507277    1.5317681048    0.0080433721
 O    1.2056230850    0.6472274552   -0.0268694837
 C   -0.1003656955    0.0756193538    0.0276264528
 C   -0.4806663510   -0.7615831954    1.2480897616
 C   -1.4791807388   -1.7515854874    0.6560141168
 C   -2.7275296141   -1.0555535959    0.0498480903
 C   -1.9885007851   -1.1226256705   -1.2778275368
 C   -0.5581883672   -0.7298331164   -1.1589109070
 N   -0.9610491121   -2.0977056705   -0.7500458401
 H   -0.0381092699    2.1035880182    0.9280617564
 H   -0.1045687892    2.0903768412   -0.9094539881
 H    0.4130054241   -1.2809355737    1.6106619598
 H   -0.8978384800   -0.1735285623    2.0704455053
 H   -1.6579583766   -2.6383214194    1.2620922306
 H   -3.5985143840   -1.7142305717    0.0496552961
 H   -3.0199996642   -0.0763274617    0.4432150854
 H   -2.4500716241   -1.2614378446   -2.2511844432
 H    0.0334044350   -0.6709565337   -2.0665601482