16

 O   -0.3705502883    1.6062111012   -0.0974180715
 C   -0.0933051963    0.2630977021    0.2677767032
 C   -1.3745117562   -0.5127887192    0.0982103903
 C   -1.7889033656   -1.1618274825   -1.2045911319
 O   -0.7751768213   -1.4033354767   -2.1550227565
 C    0.1137223378   -2.3024334955   -1.6560094892
 N    1.1304389274   -2.6713617795   -2.2934928992
 O   -0.2569384830   -2.6931827116   -0.3932990807
 C   -1.4437309539   -2.0179700810   -0.0275364205
 H    0.4582869558    2.0941646719   -0.0941443793
 H    0.7051329287   -0.1636171236   -0.3522624749
 H    0.2331813893    0.1918503025    1.3174267383
 H   -2.2137465613   -0.0911346151    0.6465724453
 H   -2.7659195364   -1.0336153189   -1.6505532848
 H    1.6646929863   -3.3419128513   -1.7467421639
 H   -2.1213053229   -2.6339030525    0.5490856753