16

 O   -0.1943278272    1.3769399828    0.4782691864
 C    0.1500691071    0.0817978577    0.0147752057
 C    0.7217555287   -0.7785955516    1.1437652331
 O   -0.4437705846   -1.2070770242    1.8568557467
 C   -1.4083225353   -1.5696423443    0.8616448877
 C   -1.0880353207   -0.7450076602   -0.4047261905
 C   -1.3507814530   -3.0828225857    0.6476633715
 O   -1.5127741874   -3.6347235927   -0.4086156707
 H   -0.6932872082    1.2616095029    1.2958592992
 H    0.8528971667    0.2313182178   -0.8077106686
 H    1.2863456120   -1.6386433856    0.7509284465
 H    1.3527658589   -0.2150505267    1.8335934592
 H   -2.3992497660   -1.3513762751    1.2818948702
 H   -1.9011377208   -0.0797315039   -0.6973217553
 H   -0.8769259123   -1.4169025836   -1.2404247077
 H   -1.1398546479   -3.6455707074    1.5840318365