15

 C    0.1248082471    1.4188392832    0.1999729875
 C   -0.0974437158   -0.0629270500   -0.0619462213
 O    0.5136852063   -0.4816099891   -1.3049812464
 C   -0.2375767207   -0.3930047964   -2.4047444854
 O   -1.3752543272   -0.0003524887   -2.4655262389
 C    0.5092172802   -0.8650057510   -3.6592525310
 O    1.6386456645   -1.2629955122   -3.6660285401
 C    0.4978257203   -0.9657376615    1.0112548935
 O    0.5476078524   -0.6645445712    2.1730955560
 H    1.1881348523    1.6633441205    0.1324738135
 H   -0.4316248677    2.0219100747   -0.5199686823
 H   -0.2197506739    1.6520007979    1.2098451238
 H   -1.1717517545   -0.2806983464   -0.1254798596
 H   -0.1308040040   -0.7904751881   -4.5604476031
 H    0.8651887105   -1.9422664918    0.6292688737