17

 O    0.1280041402    1.4468633381   -0.0936400117
 C    0.1179486883    0.0410201586    0.0220744838
 C   -1.3137580238   -0.5062698772    0.0355263758
 O   -1.8856265988   -0.0293254797   -1.1884979556
 C   -1.3681276978   -1.9994340876    0.1318066918
 C   -1.6834649119   -2.7773425314    1.2297036072
 N   -1.5741228299   -4.0673800281    0.8322421435
 N   -1.2168220088   -4.1967104961   -0.4596204191
 C   -1.0879749632   -2.9451790007   -0.8867804916
 H   -0.4604010815    1.6505199552   -0.8307893660
 H    0.6689849304   -0.4435953771   -0.8001260875
 H    0.6176448658   -0.2163062223    0.9607587666
 H   -1.8346879068   -0.0561787314    0.8945507061
 H   -2.7966242959   -0.3355042272   -1.2340736780
 H   -1.9674644921   -2.5125276136    2.2363735617
 H   -1.7370050887   -4.8966578036    1.3777769433
 H   -0.8114111956   -2.7506178459   -1.9122059901