18

 C   -0.0563586759    1.6358961158    0.0994538565
 C    0.1904115112    0.1304905382    0.2168811219
 C    0.6805845558   -0.5090639479   -1.0822491475
 C    0.5583524102   -2.0595952745   -1.1635513641
 C   -0.5025114884   -1.7738506213   -2.2006712541
 N   -1.2638573843   -2.4814723529   -2.8997842636
 O   -0.3648136662   -0.4023018684   -2.1340163212
 C    1.9440454376    0.0375919274   -1.5504946098
 C    3.0020754907    0.4735174591   -1.9173859270
 H    0.8664850920    2.1687427676   -0.1463458652
 H   -0.7888762589    1.8442268470   -0.6852784849
 H   -0.4409403988    2.0361253173    1.0415819759
 H    0.9335996569   -0.0802012379    0.9952429662
 H   -0.7339215744   -0.3826884341    0.5060243281
 H    1.4385855643   -2.5784530510   -1.5426640838
 H    0.2025851638   -2.5433990126   -0.2524680039
 H   -1.8547188771   -1.9077885888   -3.5040699519
 H    3.9332823314    0.8616713168   -2.2503777118