15

 O    0.2410034847    1.3471710255    0.1695150182
 C    0.1284578351    0.0081618200   -0.0229003382
 C    0.0897882650   -0.7899131266   -1.1373539066
 C   -0.0398558989   -2.1345764441   -0.6649336139
 C   -0.0726646541   -2.1048757110    0.7011115981
 N    0.0413843403   -0.7775257588    1.0988776550
 C   -0.0101925123   -0.2815738968    2.4537529360
 C   -1.3809861144   -0.1403866598    2.9757269705
 N   -2.4513040239   -0.0339448731    3.3958920368
 H    0.2823750866    1.7779899406   -0.6892362195
 H    0.1544686123   -0.4584598823   -2.1618996845
 H   -0.0945607177   -3.0213918785   -1.2769621832
 H   -0.1667263015   -2.8866219411    1.4365748343
 H    0.5459087577   -0.9570963954    3.1115899398
 H    0.4796300311    0.6947042113    2.4903301673