20

 C    0.0028437818    1.6166420335    0.0222258951
 C   -0.0692733883    0.0879902599    0.0407718521
 C    0.7014851086   -0.5549542518    1.2130570556
 C    0.5723977356   -2.0885126678    1.2184452129
 C    1.5349781107   -2.7395297223    0.2622104610
 C    2.6752159339   -2.1453970627   -0.0943559840
 C    3.0740959289   -0.8221767598    0.4497642240
 O    4.1793731176   -0.3402968295    0.2644254949
 N    2.1215640109   -0.2005018370    1.2235967428
 H    1.0301654708    1.9688805782   -0.1129948277
 H   -0.5929592651    2.0255095245   -0.7988445747
 H   -0.3817817371    2.0453655432    0.9552651269
 H   -1.1180341062   -0.2269252506    0.1155153112
 H    0.3147676648   -0.3161746533   -0.9032449753
 H    0.2721113972   -0.1701192618    2.1463069158
 H    0.7652193338   -2.4767484086    2.2287232941
 H   -0.4585011785   -2.3679995067    0.9766533837
 H    1.2919615905   -3.7334996591   -0.1051933831
 H    3.3991253108   -2.6052010633   -0.7567917072
 H    2.3784803594    0.7339432950    1.5063467218