16

 O   -0.7776280110    1.0391277898   -0.8898022603
 C    0.0353788076    1.1218226212   -0.0018722221
 C    1.2246044586    2.0551917517   -0.0160953896
 C    1.2358705535    3.0355341845   -1.1987720644
 C    2.5481492142    3.8429954408   -1.3078944033
 O    3.3544300347    3.1120838906   -2.2356284957
 C    2.5502710764    2.2861730449   -2.9862101817
 O    2.9533767404    1.6290459348   -3.9029795961
 N    1.2699698577    2.3808024270   -2.4911936395
 H   -0.0484719006    0.4858229820    0.9065098908
 H    1.2397308560    2.5972911959    0.9402013655
 H    2.1328174553    1.4336283223   -0.0169698195
 H    0.3704769848    3.7004542343   -1.1211735745
 H    2.3636411510    4.8478218531   -1.7038832146
 H    3.0885171712    3.9235552502   -0.3618633614
 H    0.5856913801    1.6826504369   -2.7333789535