20

 C    0.0132298362    1.5871257498   -0.1143609976
 C    1.5572201233    1.5118952409    0.0496627918
 C    1.3865642914    0.0967060285    0.6712176173
 C    1.2927005532    0.1248116796    2.2039712439
 O    0.3706293962   -0.8243645104    2.7126430955
 C   -0.9528497273   -0.5177344236    2.3071230612
 C   -1.1260728319   -0.6864207579    0.7945285848
 C   -0.0282018113    0.0361002976    0.0144216790
 H   -0.4650018913    2.0914775671    0.7303418682
 H   -0.3800648197    2.0211351949   -1.0368015966
 H    2.0662736547    1.4725571816   -0.9171160539
 H    2.0427307666    2.2746632681    0.6655592007
 H    2.0925709498   -0.6752876238    0.3540345394
 H    2.2601557416   -0.1098318816    2.6577359815
 H    1.0036031450    1.1326919555    2.5495976459
 H   -1.6106940817   -1.2011622528    2.8519184895
 H   -1.2083114866    0.5102038791    2.6184361390
 H   -1.0787518602   -1.7581737459    0.5665374327
 H   -2.1204874322   -0.3375230556    0.4879603878
 H    0.0564263142   -0.3984254612   -0.9869006302