20

 C   -0.0801761947    1.4494299554    0.1207930263
 N   -0.0813655609    0.0006234356    0.1937806651
 C    0.8175866087   -0.6997272099    0.9336035855
 O    1.6993558836   -0.1334012776    1.5871668500
 C    0.6773327669   -2.1893999203    0.9353762140
 C   -0.4669521110   -2.8334887535    0.1787315656
 C    2.0124514660   -2.9475437359    1.0060077784
 C    1.1668440184   -2.8670625514    2.2331165710
 O    1.5356302497   -2.1463645021    3.3487776349
 H    0.1138479931    1.7960907016   -0.9003758346
 H   -1.0386273708    1.8613380702    0.4546459620
 H    0.7127689025    1.8103257825    0.7756149195
 H   -0.7662087978   -0.5051612421   -0.3405423618
 H   -0.3933319906   -2.6661261380   -0.9039014005
 H   -0.4593661062   -3.9166406846    0.3303559228
 H   -1.4430780734   -2.4695905721    0.5212354046
 H    2.0751886978   -3.8804316074    0.4550374892
 H    2.9049447285   -2.3320611511    0.9888568462
 H    0.6053749701   -3.7536836509    2.5145856641
 H    1.8393983500   -1.2785717485    3.0205237377