17

 C   -0.0643911358    1.5384041586   -0.0170942950
 C   -0.0777943375    0.0274254665    0.0440498581
 C   -1.2533782522   -0.6400289241   -0.6337998395
 O    1.1867917024   -0.6035138020   -0.1653327442
 C    0.6321526477   -0.6784040877    1.1685760979
 C    1.3276852562    0.0762462920    2.1871425590
 C    1.8950891174    0.6851062069    3.0538457183
 C    0.2007729697   -1.9884534700    1.6026521887
 C   -0.1537778911   -3.0688165897    1.9911637145
 H    0.8033100020    1.9493066271    0.4995006112
 H   -0.0347307994    1.8604861459   -1.0634642058
 H   -0.9725128677    1.9489046955    0.4357706540
 H   -1.2569255181   -0.3790996529   -1.6974773889
 H   -1.2022535969   -1.7250685439   -0.5405691773
 H   -2.1956098572   -0.2918888563   -0.1987363207
 H    2.4025490713    1.2216439419    3.8173403444
 H   -0.4618430607   -4.0266611577    2.3316661350