20

 C    0.1772021238    1.5257954950   -0.3690806146
 C    0.0688503367    0.0252529097   -0.0800497862
 C   -1.3701489838   -0.3733300833    0.2544379700
 C    0.6716874090   -0.8393764344   -1.2181682648
 C    2.0962409615   -1.1360539820   -0.7480573449
 O    2.9227050980   -0.0497016427   -1.1514129545
 C    1.8916933023   -1.2018567742    0.7684161003
 O    0.8949243591   -0.2488569871    1.0797201731
 H    1.2062891034    1.7803346478   -0.6296635690
 H   -0.4786178182    1.8126938155   -1.1981432460
 H   -0.1165718519    2.0985165707    0.5156988129
 H   -2.0306199029   -0.2056014188   -0.6032025844
 H   -1.4251737379   -1.4314020348    0.5288382353
 H   -1.7445729148    0.2174585693    1.0956312860
 H    0.1183886859   -1.7776593890   -1.3238490689
 H    0.6711619272   -0.3300056665   -2.1836580923
 H    2.4825491004   -2.0843712902   -1.1482686776
 H    3.7652268787   -0.1257832295   -0.6925427231
 H    1.5809351152   -2.2197774405    1.0600715043
 H    2.8020449682   -0.9578286350    1.3308218943