18

 C    0.0572342570    1.4943094061    0.0111079002
 C    0.0168501183    0.0072483034    0.0011549147
 C    0.0165498249   -0.8967351936   -0.9795351760
 C   -0.0090599435   -2.2411672429   -0.2517931616
 C   -1.0496198131   -3.2114236004   -0.8724521405
 O   -2.0928034911   -2.4201992849   -0.1694567744
 C   -1.0307091253   -2.0596898688    0.7982764287
 C   -0.0210037212   -0.8928733994    1.2286335121
 N    1.0866331156   -1.9253822292    0.8456227928
 H    0.9507356653    1.8666185849    0.5279552153
 H    0.0608631133    1.8962914736   -1.0055852621
 H   -0.8091083934    1.9137610322    0.5379319434
 H    0.0488714073   -0.7702462646   -2.0525623299
 H   -1.1881059363   -3.1806517430   -1.9565959946
 H   -1.0298613088   -4.2428193527   -0.5034429787
 H   -1.0571997486   -2.8176445596    1.5917782919
 H    0.0343291351   -0.4691095606    2.2328962346
 H    1.0619411046   -2.6734954606    1.5482000841