14

 N   -0.1309635918   -0.6800344646   -1.1393141751
 C    0.0089967710    0.1577762151   -0.3574053551
 C    0.1738332482    1.2242802665    0.6400569631
 C    1.4134410425    1.9777288423    0.4707300239
 C    2.4401264779    2.5911733561    0.3326562468
 C    3.6513230778    3.3444674930    0.1731155739
 C    4.5143546475    3.1129193066   -1.0256091448
 N    3.7599907820    4.3626206660   -0.9008477456
 H   -0.6981272520    1.8886487191    0.5781781587
 H    0.1385824517    0.7687290584    1.6382211613
 H    4.1323975107    3.6474338324    1.0994417552
 H    5.5907937530    3.2134436887   -0.9229245313
 H    4.1845540388    2.3649053929   -1.7401232108
 H    2.9259789926    4.3194628477   -1.4820138804