19

 C   -0.1781365086    1.3471389110    0.0204014966
 O   -0.0873561743   -0.0808578595    0.1070620070
 C    0.7108280018   -0.5512317596    1.0864811787
 O    1.3057638627    0.1590820726    1.8590506633
 C    0.7613506920   -2.0705638619    1.0608735485
 C    1.5496296902   -2.5519570629   -0.1711927118
 C    1.3612623722   -2.5900816598    2.3857844631
 C    1.3166272466   -4.0428744911    2.4923037501
 C    1.2647015784   -5.2418506259    2.5644524447
 H    0.8045951269    1.7857637918   -0.1704034573
 H   -0.8552025116    1.5516377463   -0.8089221240
 H   -0.5733838538    1.7648620116    0.9497216812
 H   -0.2692717602   -2.4301822277    0.9682228029
 H    1.0805369476   -2.2014629357   -1.0930570744
 H    2.5790213334   -2.1784914738   -0.1431526549
 H    1.5839577466   -3.6439066657   -0.1853307897
 H    2.3944069620   -2.2346359785    2.4729456587
 H    0.8229700961   -2.1406805204    3.2276757282
 H    1.2275289720   -6.2999089611    2.6444166591