18

 O   -0.0540043026   -0.0756050576    0.1295501836
 C   -0.0090217502    1.1404854213    0.0669834300
 C   -1.2998950595    1.9767198777   -0.0059187905
 C   -1.1310596014    3.3490750945    0.6124927153
 C   -2.3161634439    4.1995165121    0.9531465612
 C   -1.5043501234    3.5660383238    2.0656172592
 N    0.0482996130    4.0065721134    0.1026551842
 C    1.1860516941    3.2725451048   -0.0519670232
 C    1.2179508049    1.9155566363   -0.0336397403
 H   -1.5604100666    2.0768796934   -1.0694111375
 H   -2.1064899040    1.4231392821    0.4787708742
 H   -2.2296568489    5.2729924670    0.8117815711
 H   -3.3033901157    3.8064653423    0.7366609881
 H   -1.9359284485    2.7337883491    2.6109708385
 H   -0.8714500015    4.2152671051    2.6609366103
 H    0.1426818671    4.9942847905    0.2737484832
 H    2.0873393039    3.8571184624   -0.2128483895
 H    2.1544692034    1.3869938419   -0.1539075379