21

 C   -0.0401251325    1.5333376398    0.0600068444
 C    1.5043339295    1.4474294600   -0.0446350963
 C    2.1083196173    1.1612984513    1.3460361842
 C    1.7531412136   -0.2926507265    1.7096600484
 C    0.2658007422   -0.5754922962    1.4265294627
 C   -0.0488332695   -0.0165802466    0.0232248655
 C    1.3006948963    0.0726573659   -0.7641624947
 C    2.3318645389   -1.0086467724   -0.4894820501
 O    2.5500660826   -1.1749273457    0.9138405811
 H   -0.4628124816    2.0227778688    0.9447621193
 H   -0.4867971618    1.9655045875   -0.8397423087
 H    2.0314439656    2.2420290912   -0.5780412656
 H    3.1991018932    1.2527640767    1.3395528281
 H    1.7201466578    1.8676575150    2.0900073098
 H    2.0207333566   -0.5286628889    2.7426846729
 H    0.1110686243   -1.6580723522    1.4744290317
 H   -0.3817277838   -0.1136361891    2.1818495935
 H   -0.8964683705   -0.5178130286   -0.4501012606
 H    1.1368923520    0.1966719031   -1.8377423358
 H    2.0035574841   -1.9706061474   -0.9107181816
 H    3.2907216857   -0.7575097857   -0.9670842481