16

 C    0.1689822928    1.2882767115   -0.5588712901
 N    0.5342289348   -0.0169501063   -1.0780718363
 C    0.2165815335   -1.0274327585   -0.3942249514
 O    0.4764750967   -2.3096792330   -0.7250826554
 C    1.1302253129   -2.6656206636   -1.8696806647
 C    1.4284710884   -3.9497935909   -2.2720924437
 C    2.0959261199   -3.7584422427   -3.4993663009
 N    2.2013662286   -2.4734061705   -3.8280403453
 N    1.6009743127   -1.8170001913   -2.8119400872
 H   -0.3603245229    1.2455675591    0.4044127586
 H    1.0710292695    1.8962448507   -0.4329280005
 H   -0.4699855906    1.8034635605   -1.2837790638
 H   -0.3131922871   -1.0123895038    0.5625315188
 H    1.1958882150   -4.8640615384   -1.7534380436
 H    2.5041110816   -4.5116971064   -4.1571730566
 H    1.5195449042   -0.8125197264   -2.7723281478