16

 O   -0.8457866553    1.1220659469   -0.1922015259
 C    0.2512155220    0.9712614900    0.2780192660
 C    1.4398822036    1.8242476662   -0.0429910290
 N    2.5379688384    1.5494836974    0.5433154778
 C    3.6903466540    2.3138108770    0.1990264454
 C    4.1383521099    2.3422454813   -1.2576300016
 C    3.5169758071    3.5593674864   -0.6399704022
 C    2.0845117531    3.9258245834   -0.9500568152
 O    1.2022156114    2.7878510181   -0.9575472608
 H    0.5054206466    0.1734682715    1.0034445396
 H    4.4683347298    2.2837126662    0.9530108923
 H    5.2049127801    2.3488455061   -1.4512348740
 H    3.5513894560    1.7607914173   -1.9603819561
 H    4.1584423419    4.4090710472   -0.4262960239
 H    1.7148351932    4.6395653893   -0.2023871479
 H    1.9731542783    4.3770823558   -1.9396444745