21

 C    0.1324024295    1.5961037801    0.3384093896
 C   -0.0104146098    0.0920676781    0.0752725313
 C    0.6656999272   -0.4106307712   -1.2161852797
 C    2.2269459845   -0.4670410861   -1.1208497323
 C    2.1174062739   -1.9858902091   -0.8060148184
 C    0.6720472636   -1.9739978639   -1.3349161452
 O   -0.2365784824   -2.7249226672   -0.5698220397
 C    0.1064182793    0.3011663565   -2.4209106692
 O   -0.7292406740   -0.1719240961   -3.1534496621
 H    1.1819077709    1.9089218902    0.3512989055
 H   -0.3834034202    2.1974750415   -0.4170057874
 H   -0.2991202011    1.8537004844    1.3102000898
 H    0.4085274270   -0.4709086034    0.9163493349
 H   -1.0712268178   -0.1795495781    0.0363519166
 H    2.7158869163   -0.2685364099   -2.0792002879
 H    2.6925199821    0.1630668398   -0.3601419622
 H    2.8247921101   -2.6592009503   -1.2937736349
 H    2.1276414630   -2.1822955227    0.2689330236
 H    0.6249186953   -2.2583276229   -2.3931122251
 H   -1.0721912830   -2.7543439454   -1.0473231532
 H    0.5213483056    1.3167168357   -2.6179524143