16

 C   -0.0854786929    1.4819336263    0.0661277985
 C    0.0476515849   -0.0026418682    0.0605893918
 O   -1.1215086832   -0.7832438415   -0.1778283571
 C   -0.4980275297   -1.9241398171    0.5174583314
 C    0.6611300149   -1.0289902299    0.9859855406
 C    1.2852128325   -0.8177715718   -0.3700107874
 N    1.0862047044   -2.0060346373   -1.1499709946
 C    0.0354004389   -2.7631114078   -0.6572318680
 O   -0.4141808201   -3.7808474947   -1.1255624778
 H    0.8801884928    1.9511713479    0.2759744320
 H   -0.4315176192    1.8354368091   -0.9112084709
 H   -0.8044583150    1.8099854936    0.8231167221
 H   -1.1769876555   -2.4184370708    1.2074701244
 H    1.1511232657   -0.9865290872    1.9492408898
 H    2.2437793198   -0.3206659653   -0.4529861671
 H    1.3092510215   -2.0577037752   -2.1320967277