19

 C   -0.2518193720    1.5218216267   -0.0173624783
 C    0.0322321140    0.0272149006   -0.0278122280
 C   -1.1006752842   -0.9192179538    0.4520801398
 O   -0.2085115692   -1.5785959281    1.3817250292
 C    0.8514297361   -0.6219086496    1.1206723607
 C    2.0849709890   -1.3306968937    0.5084996986
 O    2.2006713860   -2.6662459479    0.9583514059
 C    1.8265933405   -1.1998753958   -0.9824184356
 C    0.7420533723   -0.4793275434   -1.2622910707
 H    0.6686312673    2.0979337947   -0.1576160970
 H   -0.9383195259    1.7949499219   -0.8269296659
 H   -0.7089513549    1.8330796870    0.9275110804
 H   -1.9181407102   -0.4140803293    0.9826730340
 H   -1.5157435058   -1.6142436668   -0.2858593087
 H    1.0696876419   -0.0200890997    2.0083814686
 H    3.0191643744   -0.8319716814    0.7962531310
 H    1.2890585890   -2.9802203961    1.0496599876
 H    2.4751870088   -1.6758059647   -1.7096555253
 H    0.3671466030   -0.2673339007   -2.2593555466