22

 C   -0.9208295173    1.0851826190   -0.7019879785
 C   -0.2016832781   -0.1116968899   -0.0819104577
 C   -1.1745135680   -1.1485684659    0.4773367331
 O    0.5878225178   -0.7415439513   -1.1059962306
 C    1.9988739024   -0.8142019823   -0.9339402763
 C    2.6611303222    0.5784636147   -0.8946826135
 C    2.4019106586   -1.6648600759    0.2881562489
 C    2.4695312104   -1.5119628668   -2.1539422264
 N    2.8773117377   -2.0522210018   -3.0895576674
 H   -0.2055247367    1.8221488565   -1.0765934962
 H   -1.5407153243    0.7556233054   -1.5413389160
 H   -1.5667379673    1.5736596374    0.0346379988
 H    0.4464961113    0.2427347216    0.7286680582
 H   -1.8020995072   -1.5448603315   -0.3266934019
 H   -0.6379838597   -1.9848676321    0.9332248200
 H   -1.8249294825   -0.7007024358    1.2354995564
 H    2.3570836703    1.1186991925    0.0057195223
 H    3.7499363877    0.4828133100   -0.8818692667
 H    2.3701461612    1.1578733087   -1.7733348165
 H    1.9303407321   -2.6482600700    0.2336588246
 H    3.4865302776   -1.7967845964    0.3199335896
 H    2.0925924219   -1.1715332260    1.2133386757