17

 C    0.0023431100   -1.2614687741    0.0291561883
 C   -0.0278272073   -0.0598274004    0.0508162889
 C   -0.0210698603    1.3972901796    0.0712074676
 C    1.4046407864    1.9939276955   -0.0680199687
 C    1.4091534454    3.4926311573   -0.0384026875
 C    1.4626136382    4.3660353210   -1.1082934854
 N    1.4120659713    5.6183118704   -0.5924885971
 N    1.3304207361    5.6349246578    0.7503117598
 C    1.3263164061    4.3489377265    1.0874991025
 H    0.0128404874   -2.3229358148    0.0131389285
 H   -0.6516207193    1.7844017772   -0.7385932558
 H   -0.4725154198    1.7579354048    1.0035980219
 H    2.0261706101    1.5961971080    0.7412033634
 H    1.8446699063    1.6316002497   -1.0023515098
 H    1.5386769491    4.1905514102   -2.1702843516
 H    1.4432390393    6.4920940187   -1.0893945146
 H    1.2714682711    4.0714573026    2.1309152298