20

 C   -0.0065371750    1.5070308379   -0.0167611504
 C   -0.0457882614    0.0025633148    0.0620063836
 C   -1.3306755033   -0.7271232929   -0.3230848898
 C   -1.1394098000   -2.1349095252    0.2301523372
 C   -2.0552101960   -3.2494295042   -0.0133686503
 O   -0.8248445488   -3.1565591295   -0.7369099067
 C   -0.1993877827   -2.0386782949    1.4290185211
 C    0.6372664501   -0.8082599996    1.1174180940
 N    1.2132611185   -0.7026915999   -0.2322120743
 H    0.9617332226    1.8813568018    0.3240711386
 H   -0.1528558028    1.8490506961   -1.0478374734
 H   -0.7936075650    1.9557596846    0.5999057706
 H   -2.1907103208   -0.2359390497    0.1508719928
 H   -1.5133172015   -0.7523119633   -1.4024145616
 H   -2.1152432649   -4.0675760125    0.7039477265
 H   -2.9574765098   -3.0894965727   -0.6031344816
 H   -0.7631854559   -1.8834382507    2.3579648481
 H    0.3852344047   -2.9574248646    1.5390796378
 H    1.2260326979   -0.3540785134    1.9095485290
 H    1.0539898841   -1.5541774020   -0.7671533612