18

 C   -0.0011112992    1.5054130928    0.0275008072
 C   -0.0220399062   -0.0080980752    0.0287457136
 C    0.2626069960   -0.7504256724   -1.3247845212
 C   -0.9103683297   -1.6812886042   -1.0260948681
 C   -0.8342914734   -2.1161113302    0.4237575833
 O    0.4121143084   -2.0658878323    1.0868829622
 C    0.7918558936   -0.6864519602    1.1362258025
 C   -1.3832767902   -0.7706461657    0.1163753279
 H    1.0121959482    1.8849284184   -0.1477427249
 H   -0.6470098370    1.9083588141   -0.7589324518
 H   -0.3472592512    1.9090481598    0.9860488717
 H    0.0566934659   -0.1018825013   -2.1805862523
 H    1.2529495689   -1.2040984460   -1.4437230265
 H   -1.5057307655   -2.2216545949   -1.7536968629
 H   -1.4661080959   -2.9311108891    0.7558478780
 H    1.8735927294   -0.6206773354    0.9744762736
 H    0.5547546553   -0.2590545392    2.1240475210
 H   -2.3553287675   -0.3735735489    0.3793461069