16

 O   -0.0235540117    1.4007364958    0.6518133093
 C    0.0682572431    0.0784329846    0.2091976323
 C   -0.5762208328   -1.0133257674    1.0258425035
 C   -1.2093766559   -0.5514755643   -0.2686252846
 C   -2.4978331722    0.2752874220   -0.2268179451
 C   -2.7772953839    0.9118335423   -1.5160797237
 C   -2.9834326182    1.4259414317   -2.5804952123
 C   -3.6365581393   -0.5539068696    0.2079270904
 N   -4.5143290140   -1.2122053495    0.5686599487
 H    0.5361789281    1.4982371041    1.4290335692
 H    0.9753043437   -0.1563603889   -0.3459294205
 H   -0.1224108862   -1.9972142419    1.0560257881
 H   -1.0609819210   -0.7078934812    1.9477666006
 H   -1.1446239786   -1.2175793341   -1.1213841464
 H   -2.3563999177    1.0613593163    0.5256804551
 H   -3.1735854636    1.8873328302   -3.5181496446