17

 C   -0.0386235103    1.6014982047    0.0971163726
 C    1.4444805663    1.1995548453   -0.0017650987
 N    1.1295417690    0.0969273143    1.0181057466
 C    0.0131723693    0.0464281702   -0.0209775734
 C   -1.1233136042   -0.8786495314   -0.3330789250
 N   -1.4866131490   -0.6725310728   -1.7475230199
 C   -0.7428202027   -0.0329636499   -2.5478910224
 O    0.4912725112    0.5471726157   -2.3740141743
 C    1.0598234402    0.1888218806   -1.1190118830
 H   -0.3562682406    1.9767037891    1.0697342931
 H   -0.4601727290    2.1542982066   -0.7405620013
 H    2.3355674494    1.8195427898    0.0948387958
 H    1.7656084447   -0.6959249801    0.8683482987
 H   -0.8433009958   -1.9303855895   -0.1912353345
 H   -2.0155707263   -0.7009710726    0.2757401579
 H   -1.0678664173    0.1309448529   -3.5735763664
 H    1.7516173951   -0.6493563127   -1.2604958858