18

 C   -0.0124501577    1.5819886165    0.3122237220
 C    0.0479003940    0.0656922401    0.0440485836
 O    0.8800697714   -0.5721979720    0.9787727691
 C   -1.3594380241   -0.5366304795    0.1581425060
 O   -1.6888446121   -1.0657524169    1.2036086311
 N   -2.2287849928   -0.4237878851   -0.9242340017
 C   -1.8163429189    0.0613045440   -2.2425870426
 C   -3.5579073640   -0.8437735648   -0.7658817644
 O   -4.3751833997   -0.8096158437   -1.6512240863
 H    1.0058128924    1.9774676207    0.3077441768
 H   -0.6006532326    2.1228665907   -0.4351336970
 H   -0.4498593072    1.7639631568    1.2983634932
 H    0.4624383822   -0.1149393611   -0.9541413529
 H    0.2823055700   -0.9265486073    1.6555928992
 H   -1.0362331671   -0.5752013000   -2.6679258079
 H   -2.6992961469    0.0190472297   -2.8793340205
 H   -1.4564965254    1.0908318985   -2.1961619363
 H   -3.7536400114   -1.1966293766    0.2536815986