14

 O    0.0649669291    1.2366706540    0.5070501405
 C   -0.0555271522   -0.0450628212    0.1216763970
 N   -1.2108304502   -0.5744267861    0.2415773057
 C   -1.5343617007   -1.9008074525   -0.0221564956
 N   -2.6856299701   -2.2751252531   -0.4355405060
 C   -0.5689776021   -2.9732562703    0.2919840536
 C    0.7664489829   -2.9001451509    0.1436041498
 C    1.4932815685   -1.7508162734   -0.3590418719
 N    1.1543607540   -0.5113200402   -0.4083763351
 H    0.9652132982    1.5061986607    0.2802678878
 H   -3.2636819335   -1.4488115445   -0.6086714948
 H   -1.0242956869   -3.9139271612    0.5875855120
 H    1.3650873769   -3.7897582846    0.3176829871
 H    2.4904623160   -1.9686232666   -0.7499207302