20

 C   -0.0965429654    1.4758014821   -0.1295857447
 C    0.0521009194   -0.0270582699   -0.0199510691
 N    1.1978463588   -0.8631990798   -0.3866048639
 C    2.5130006488   -0.2379725815    0.0525078255
 C    3.0756176424    0.8978802913   -0.7857109697
 C    2.0332659179   -0.0409525235    1.5147190260
 C    0.7410274492   -0.7326668910    1.0964611691
 C    0.1490030677   -1.8960287310    1.7803345936
 O    0.4253408306   -2.2349796205    2.9063849649
 H    0.6675522770    2.0334489620    0.4122859686
 H   -0.0733514519    1.7898113705   -1.1781018480
 H   -1.0697711830    1.7637772502    0.2812695791
 H   -0.8484256053   -0.5442598782   -0.3528463638
 H    3.2266885788   -1.0663739667    0.0217166443
 H    2.4714319541    1.8055355391   -0.7505386333
 H    4.0814702427    1.1508657474   -0.4330818895
 H    3.1574542617    0.5846206638   -1.8318199257
 H    2.5972665024   -0.6160199518    2.2491822620
 H    1.9305836496    0.9852522416    1.8776054069
 H   -0.5835220358   -2.4600951341    1.1597311976