21

 C    2.2373757937    1.7207059211   -1.3252169814
 C    2.2102793273    0.1923459741   -1.3993087436
 C    0.7832216241   -0.3761670854   -1.3896723155
 C    0.7538779781   -1.8949482602   -1.3774756834
 O    1.3153557350   -2.3222327207   -0.1732348594
 C   -0.4944567507   -2.7218406127   -1.8548423516
 C   -0.1858146710   -2.3902082610   -3.3284595597
 C    1.1360788722   -2.7658555368   -2.6314690180
 O    0.4160593749   -3.8990669842   -1.9775146110
 H    1.7080125514    2.1722633467   -2.1721740857
 H    1.7578583673    2.0797637113   -0.4078300241
 H    3.2635674373    2.1010292156   -1.3343287915
 H    2.7263933420   -0.1399647620   -2.3098351475
 H    2.7638412681   -0.2348378458   -0.5575912871
 H    0.2635227156   -0.0352760962   -0.4854968401
 H    0.2224730484    0.0198387072   -2.2410732761
 H    1.2811763423   -3.2898427394   -0.2182052263
 H   -1.4526343196   -2.8894033553   -1.3609452018
 H   -0.5412894426   -3.1431135315   -4.0312671433
 H   -0.3307147255   -1.3729485882   -3.6923644120
 H    2.1137587317   -2.9883097166   -3.0608519408