19

 C   -0.0605770974    1.5673406236   -0.0120270815
 C    0.0868953548    0.0670107577    0.1170847305
 N    1.2902574105   -0.7054936016   -0.2490094915
 C    2.4855851376    0.1181299022    0.1680599340
 C    2.0164594230    0.0724564248    1.6047112126
 N    2.5145818044    0.2702710004    2.7527755364
 O    3.7764641312    0.8876977879    2.6482044399
 C    0.7826858403   -0.6626245147    1.2172370937
 C    0.2080668994   -1.8339268614    1.9561259525
 H    0.7379634163    2.1248123001    0.4806444837
 H   -0.0891478920    1.8610985541   -1.0671661838
 H   -1.0059493085    1.8784369073    0.4438974152
 H   -0.7930946813   -0.4707103288   -0.2348865099
 H    3.4077095369   -0.4491399505    0.0171118020
 H    2.5789733844    1.0882163591   -0.3262617095
 H    4.0469070919    0.9531739201    3.5702494384
 H   -0.3422250724   -1.4952181118    2.8406666163
 H   -0.4811996509   -2.3917408676    1.3164618348
 H    0.9989769516   -2.5110436810    2.2923358261