15

 C   -0.0396843681    1.4574636252    0.0348291529
 N   -0.0012185204    0.0082494099   -0.0062620281
 C    0.0149107043   -0.7912510382   -1.1270121777
 C   -0.0034941724   -2.0815652255   -0.6592584351
 N   -0.0089177059   -2.1005940117    0.7264506481
 C   -0.0064279837   -0.8374696420    1.0755396347
 N   -0.0969892920   -0.3500846127    2.3743321935
 C   -0.0087367002   -3.2643495496   -1.4429083745
 N   -0.0114289151   -4.2164305141   -2.1023346444
 H    0.9651170718    1.8884073100    0.1091470829
 H   -0.5153158618    1.8343042793   -0.8722482251
 H   -0.6284140937    1.7719503652    0.8995985833
 H    0.0384777450   -0.3841380911   -2.1235022373
 H   -0.1232817399   -1.1246999350    3.0260255076
 H    0.6465075721    0.2893541303    2.6300098993