17

 C   -0.1012215192    1.6790275975   -0.1351706049
 C    0.0493006236    0.1665331376   -0.0560599297
 C   -1.3080520446   -0.5680169134    0.0157085233
 C   -2.1490292739   -0.1390834352    1.1309350776
 N   -2.8174893615    0.2104144239    2.0059197418
 C    0.9545415206   -0.4455097766   -1.1693254545
 N    2.0290043044   -1.1517914541   -0.4581619193
 C    1.8341415114   -0.9207547201    0.7716548140
 O    0.7803220101   -0.1639837101    1.1619074714
 H    0.8845079606    2.1511686137   -0.1415963823
 H   -0.6231752165    1.9600113252   -1.0557541752
 H   -0.6675027546    2.0645682387    0.7162657972
 H   -1.8542470420   -0.4044595688   -0.9204499150
 H   -1.1282076349   -1.6449410806    0.1009251078
 H    0.4087948450   -1.1409968027   -1.8164379293
 H    1.3829256429    0.3297160249   -1.8139713385
 H    2.4535071387   -1.2785248901    1.5865564057