19

 C    0.0860856340    1.4636172303    0.0224425149
 C    0.0370301503   -0.0398159684   -0.0232566915
 C    1.2555533217   -0.8800012564   -0.3761952790
 C    0.6808261246   -0.9613471362    1.0036871825
 O    1.4483974348   -0.5584927133    2.0897196908
 C   -0.4945278494   -1.9523669069    1.1998095412
 C   -1.7087274196   -0.9977270855    1.3651999073
 C   -1.3196527438   -0.7822407138   -0.1254107619
 O   -0.9407601530   -2.1928467615   -0.1668594452
 H    1.0283777240    1.8057407671    0.4627644238
 H    0.0058699349    1.9052736380   -0.9773706070
 H   -0.7305898733    1.8756340657    0.6282308106
 H    1.1642423651   -1.7204533727   -1.0523504090
 H    2.1842312453   -0.3219196030   -0.4409437289
 H    0.8801018652   -0.0896192634    2.7116961966
 H   -0.3335170240   -2.8526438901    1.7929820307
 H   -2.6523777258   -1.5328248711    1.4820667236
 H   -1.6373226047   -0.1540024331    2.0594899561
 H   -2.0319215163   -0.4894191457   -0.8978617156