18

 C    0.0030018520    1.5772391828   -0.3467384684
 C    0.0316415491    0.0784643770   -0.1027839152
 O    0.9010324646   -0.5370616680   -1.0432190312
 C    1.4653241232   -1.6862853888   -0.4498603599
 O    1.0743069182   -1.7115909564    0.9144568260
 C    0.6017211727   -0.4234736121    1.2473476048
 C    1.7455808504    0.4533263435    1.7813061352
 N    1.3943272814    1.2986084504    2.7954279659
 O    2.8594145662    0.4234005958    1.2989208465
 H    1.0088877837    1.9967039590   -0.2725259283
 H   -0.3831310178    1.7800125556   -1.3489044512
 H   -0.6483127791    2.0759218206    0.3776968196
 H   -0.9844527252   -0.3367028389   -0.2029445377
 H    1.0850363339   -2.6056259849   -0.9178834947
 H    2.5555138531   -1.6235366767   -0.5435784354
 H   -0.1872423858   -0.5393843189    1.9984119880
 H    0.5325455875    1.1919710635    3.3016149845
 H    2.1207715118    1.8608773464    3.2101432815