15

 C   -0.1280303297    1.4935127309    0.1152492992
 N    0.0221423766    0.0467336835    0.0396647672
 C    0.7633586657   -0.4773332693    1.1763648554
 C   -1.2522907835   -0.6189283571   -0.1558113118
 C   -1.7863942070   -0.3959123562   -1.5625873299
 O   -2.9525929871   -0.3787895315   -1.8557192020
 H    0.8580786684    1.9650509232    0.1616684302
 H   -0.6384926103    1.8680694696   -0.7778739511
 H   -0.7089656876    1.8216227710    0.9980871307
 H    0.2560659826   -0.3102692732    2.1452508023
 H    0.9185959307   -1.5538217732    1.0554047667
 H    1.7453757174    0.0035939318    1.2258585639
 H   -1.0987628855   -1.7035341502   -0.0602599376
 H   -2.0349813364   -0.3396421103    0.5730453747
 H   -0.9814528343   -0.2748123189   -2.3233159179