17

 N   -0.3832295224    1.3727549068   -0.1382352642
 C   -0.1231181859   -0.0396044946   -0.0523471975
 C   -0.3690861056   -0.6840822386    1.2991312894
 C   -1.3682419102   -0.8721184216    0.1822459855
 O   -2.5968073004   -0.2344190822    0.2131140774
 C    0.9882818332   -0.6056625869   -0.9309496925
 O    0.8053663836   -0.2862484543   -2.3034750238
 C    2.3053362061   -0.1358039908   -0.4546696153
 N    3.3140438721    0.2928705819   -0.0870747491
 H    0.3307318650    1.9268202635    0.3242696600
 H   -0.4468370263    1.6645805769   -1.1088432612
 H    0.2620547437   -1.5164751687    1.5932934834
 H   -0.6528587897   -0.0183999977    2.1065040551
 H   -1.4318826935   -1.8475527284   -0.2907918612
 H   -2.3940425294    0.7138821553    0.2492183617
 H    0.9732093909   -1.6998989943   -0.8650335881
 H    1.2487214287    0.5476372636   -2.4904764197