18

 O   -0.0239362444   -0.0110426260   -0.4331582595
 C    0.0158443858    1.1338186599   -0.0524162218
 C    1.2484175050    1.9438479638    0.0347882153
 C    1.1550656661    3.4505132740   -0.1919663012
 C    1.4548689604    2.9475206268    1.1787274218
 C    0.4858293895    3.1026094292    2.3092560761
 C    0.7505831868    2.4290033384    3.6336371445
 C    0.8767224935    3.9268821012    3.5128660634
 H   -0.9155307828    1.6654331587    0.2521087982
 H    2.1318671232    1.4313740425   -0.3301755130
 H    1.9382543706    3.9113225628   -0.7826999977
 H    0.1625444876    3.8538941801   -0.3713333496
 H    2.4948780201    3.0124475235    1.4901325846
 H   -0.5563940455    3.1741418288    2.0136840272
 H   -0.0918937256    2.0218836955    4.1813008410
 H    1.6629581812    1.8497077011    3.7298845503
 H    1.8737353923    4.3551070047    3.5287592177
 H    0.1200449162    4.5502419449    3.9758611628