22

 C   -0.3906277572    1.5875519572   -0.1040363012
 C   -0.1283052043    0.0808588271   -0.0797543663
 C   -1.4082606079   -0.7664392848    0.0451421783
 C   -1.1059939055   -2.2648832786    0.0140113940
 O   -0.3718871109   -2.5786770836    1.1949257190
 N   -2.1547227881   -0.4645093086    1.2593661889
 C   -3.3616630975    0.1714170106    1.2558309023
 C   -4.0198942203    0.3146832547    2.6208927601
 O   -3.8839906282    0.6023320123    0.2416639473
 H    0.5436907514    2.1432950996   -0.2295052400
 H   -1.0628377396    1.8617520534   -0.9233126053
 H   -0.8565333979    1.9217188359    0.8275277708
 H    0.3822158753   -0.2206605797   -1.0035947596
 H    0.5485334294   -0.1759921058    0.7429704917
 H   -2.0810670194   -0.5282972412   -0.7842694837
 H   -2.0505725471   -2.8265441610   -0.0214850883
 H   -0.5274092554   -2.5067649509   -0.8900903637
 H   -0.2469729607   -3.5307083248    1.2343624426
 H   -1.7999029811   -0.8682622352    2.1114205271
 H   -3.4202295484   -0.0825325955    3.4440382579
 H   -4.2205868117    1.3733819019    2.8037917082
 H   -4.9845884449   -0.1998929230    2.6016988899