23

 C   -0.0148282436    1.5925435884   -0.0147153210
 C    0.0256545325    0.0789093180    0.2320863760
 C   -1.3507139679   -0.5636420544    0.1017988092
 C   -2.0326995427   -0.8137021651   -1.2866265545
 C   -1.0725282476   -2.0191308389   -1.4995593273
 C   -1.5470106597   -2.1140936090   -0.0157228164
 C   -1.1647863393   -3.1550625226    0.9975168831
 O   -1.5365085035   -4.4279698772    0.4845556496
 C   -2.9782948949   -1.8037309076   -0.5493667038
 H    0.9726686703    2.0445259822    0.1210885614
 H   -0.3485878271    1.8178539039   -1.0331136650
 H   -0.7062349587    2.0883697156    0.6757629373
 H    0.7481359941   -0.3794615443   -0.4507883855
 H    0.4057988888   -0.1101439310    1.2451669499
 H   -2.0316440601   -0.1038070354    0.8312979083
 H   -2.3198198932   -0.0632972217   -2.0246792754
 H   -1.4299341190   -2.8108777561   -2.1619411785
 H   -0.0178777967   -1.8076445425   -1.6835457114
 H   -0.0800609308   -3.1033285171    1.1892591852
 H   -1.6763263547   -2.9423020410    1.9512670738
 H   -1.2847710172   -5.0954552577    1.1293370709
 H   -3.6837853767   -1.3711835412    0.1667185766
 H   -3.4447030926   -2.5813653854   -1.1581515226