19

 C   -0.1428669537    1.5588207816   -0.0309339085
 C   -0.0030426967    0.0353816144   -0.0013717152
 C    0.7534352251   -0.4709230248    1.2328122462
 O    0.1381720158   -0.0630412480    2.4441690950
 C    0.9350374968   -2.0066178497    1.1856437493
 C    1.6905989294   -2.5414360471    2.3063657670
 C    2.3255635529   -2.9929230021    3.2294096179
 C    3.0861011588   -3.4865901142    4.3465686039
 O    3.2420255744   -4.6574716518    4.6103512220
 H    0.8380976577    2.0415706324   -0.0971798289
 H   -0.7349331750    1.8839284746   -0.8911422181
 H   -0.6277440913    1.9190735570    0.8798846197
 H   -0.9981663484   -0.4340605079   -0.0183848224
 H    0.5136196261   -0.3148942566   -0.9037458002
 H    1.7477806097   -0.0095931754    1.2623639401
 H   -0.7579879185   -0.4189454108    2.4599310059
 H   -0.0541311847   -2.4863161777    1.1519986901
 H    1.4352653983   -2.2871629390    0.2493831580
 H    3.5361733434   -2.6896667049    4.9733623381