21

 C   -0.0225368376    1.5234497542    0.0215123966
 C    1.2696559805    0.7263188745   -0.0005860638
 C   -0.0510980838    0.0233885821    0.0156376841
 C   -0.5018077692   -0.9408872224    1.0885651387
 C   -1.9033226206   -1.4557621603    0.7789402643
 C   -2.8005916649   -0.6396354182   -0.1534447802
 C   -2.0064713407   -0.5884396157   -1.4888940516
 C   -0.5716090978   -0.9451026545   -1.0750287604
 C   -0.7242654720   -2.0227642060    0.0409648738
 H   -0.2867473794    2.0420841187    0.9379004177
 H   -0.3056977135    2.0513628383   -0.8842279072
 H    1.8472812483    0.7196408035   -0.9200645005
 H    1.8738914425    0.7090267442    0.9015414493
 H   -0.0726830953   -1.0325297072    2.0807317043
 H   -2.3553183391   -2.0513949311    1.5651516709
 H   -3.7740704289   -1.1230128860   -0.2813425352
 H   -2.9892126843    0.3635869051    0.2420347161
 H   -2.3877158116   -1.3366017285   -2.1936042898
 H   -2.0695086301    0.3884017137   -1.9788818628
 H    0.1137326593   -1.1479409515   -1.8994000218
 H   -0.4099114018   -3.0573163728    0.0197743174