21

 C   -0.2135552333    1.4498218646   -0.0542889357
 C    0.0338439937   -0.0322624985    0.0505863902
 O   -1.1943776058   -0.8056949961   -0.0066583951
 C   -0.8740613364   -1.4885879993    1.2312881186
 C    0.4982180054   -0.8032487159    1.3221822205
 C    1.6972744564   -1.4059881607    0.5211988866
 C    1.5174832912   -2.7595459732   -0.2185316777
 C    0.9594996081   -2.0070308098   -1.4684933678
 C    1.2200072032   -0.6467840955   -0.7659995252
 H    0.7190047015    2.0101719172    0.0695972056
 H   -0.6262729184    1.6921128358   -1.0405949870
 H   -0.9274550452    1.7838103826    0.7048545142
 H   -1.5684363655   -1.1993096015    2.0305854154
 H   -0.8995549360   -2.5783865907    1.1226497719
 H    0.7459376201   -0.3112046001    2.2632180730
 H    2.6706207575   -1.2234916361    0.9791451534
 H    2.4756074226   -3.2489319321   -0.4119734343
 H    0.8591896476   -3.4965317249    0.2485727183
 H    1.5476229068   -2.1576346963   -2.3763262860
 H   -0.0923073938   -2.1903462144   -1.6926628418
 H    1.8478174104    0.0760726549   -1.2908765969