20

 C    0.4928284194    0.2375545485   -1.4219318982
 C   -0.0432633585    0.0896205420    0.0093848699
 C   -1.4323168886   -0.5359373016    0.0713426924
 C   -2.5125140587    0.2745990933   -0.6279529416
 C   -1.6561841168   -2.0222240318    0.0200132984
 N   -1.9798430084   -1.1863114562    1.2738591057
 C   -0.8643943046   -1.8745022095    2.0134359745
 C   -0.5987676499   -2.7642521892    0.7838265957
 O    0.0226333053   -3.7691133486    0.5890354422
 H    1.5087952992    0.6425216513   -1.4064156393
 H    0.5263858949   -0.7318660165   -1.9294179455
 H   -0.1214482671    0.9128039913   -2.0238687968
 H    0.6774837131   -0.4968572918    0.5827050250
 H   -0.0930736002    1.0762643143    0.4885842451
 H   -2.3471991380    0.3157307598   -1.7080023166
 H   -3.4953632725   -0.1626999449   -0.4402283715
 H   -2.5189509295    1.3003293840   -0.2436044340
 H   -2.4151820286   -2.4686211485   -0.6144057744
 H   -0.0758792749   -1.2305616762    2.4076009625
 H   -1.2832001059   -2.4706429197    2.8297664665