21

 C    0.6594684568    0.9217163462   -0.4247992790
 O   -0.1583856063   -0.0163981012    0.2551104774
 C    0.5103157312   -0.6694632532    1.2867914073
 C   -0.1012488902   -1.9500628728    1.7797776972
 C   -1.4060943856   -2.4682444533    1.2109496087
 C    1.2096984050   -1.9864282444    1.0051506907
 C    1.2705283610   -2.5452314869   -0.4110970650
 C    2.5260942025   -2.2266136688   -1.0861763860
 C    3.5680769965   -1.9621861009   -1.6250808807
 H    1.5349150653    0.4426136501   -0.8817606861
 H    0.0436297462    1.3754998813   -1.2048074670
 H    1.0079303971    1.7115784844    0.2575964635
 H    0.9658861252    0.0063511639    2.0126342521
 H    0.0070205764   -2.1224788167    2.8477110127
 H   -1.5579412281   -2.1461994223    0.1796164411
 H   -1.4448006313   -3.5625366454    1.2431461187
 H   -2.2508952703   -2.0893384202    1.7954450463
 H    2.1022116678   -2.1896301007    1.5898638757
 H    1.1435901816   -3.6356092340   -0.3873341594
 H    0.4364781442   -2.1500530229   -0.9997348937
 H    4.4845360348   -1.7341737223   -2.1100859644