27

 C    0.2993842567    1.4314217276   -0.4176854608
 C    0.1361301874   -0.0895512273   -0.3484958720
 C   -1.2778541001   -0.5196914278    0.0671566648
 C   -1.4818688411   -2.0461350539    0.1567302819
 C   -0.8678053785   -2.6028057581    1.4449993864
 O   -0.8616329547   -4.0229180095    1.3640644906
 C   -2.9597260132   -2.4980925835   -0.0048721970
 C   -3.9358876055   -1.7597168316    0.9242267440
 C   -3.4244855998   -2.3986865063   -1.4648524996
 H    1.3108346230    1.7119079379   -0.7282260775
 H   -0.4030349553    1.8727006406   -1.1338243079
 H    0.1096987795    1.8954874798    0.5567517802
 H    0.3682812614   -0.5279578606   -1.3278912500
 H    0.8770655532   -0.5004770439    0.3482729218
 H   -1.5286560192   -0.0551821083    1.0311174809
 H   -1.9872744145   -0.0992754320   -0.6557419771
 H   -0.9207736281   -2.5119981261   -0.6659192496
 H    0.1561323176   -2.2186553771    1.5672795322
 H   -1.4474793497   -2.2593793486    2.3170515377
 H   -0.5427707055   -4.3709757468    2.2014077932
 H   -2.9747615097   -3.5585936507    0.2707953444
 H   -4.9395211072   -2.1899463588    0.8420813297
 H   -3.6387421468   -1.8265106202    1.9757082469
 H   -4.0144709302   -0.6976894093    0.6670823927
 H   -2.7691047291   -2.9713475041   -2.1295922984
 H   -4.4405143433   -2.7919426917   -1.5774394378
 H   -3.4379810472   -1.3620940396   -1.8210656497