13

 O   -0.1881781335    1.3639982757    0.0648843416
 C    0.0152531387   -0.0361605096   -0.0353264102
 C    0.7592505276   -0.4165517720   -1.2412961954
 C    1.3813557934   -0.7042980115   -2.2274390642
 C    0.6837984382   -0.5782605757    1.2020915627
 C    0.3097971067   -1.4805426861    2.1470562398
 N    1.3321414777   -1.5401202610    3.0651662790
 N    2.2626510849   -0.7610245260    2.7541180383
 O    1.8826937595   -0.1013634839    1.5239563109
 H    0.6784871462    1.7876099952    0.0420725334
 H   -0.9891147738   -0.4711460710   -0.0792157297
 H    1.9282583752   -0.9625739990   -3.1011581537
 H   -0.5832302809   -2.0737288151    2.2402388975