17

 O    0.0574544954   -0.0187274684    0.1926983741
 C    0.0256834214    1.2020714787    0.1329225172
 N   -1.1432274710    1.8968829872    0.1236943123
 C   -1.3299364137    3.3327355441   -0.0098048163
 C   -0.0448252035    4.0540246052   -0.2813807378
 C    1.1411517620    3.4532473587   -0.2611661227
 C    1.2890424994    2.0188255110    0.0531415559
 C    2.4090805387    1.5213823896    0.9227258657
 N    2.4571272714    1.3128367545   -0.5177894318
 H   -1.9656823117    1.3134557441    0.1768686771
 H   -2.0401769403    3.5288746218   -0.8268573362
 H   -1.8001494144    3.7402474627    0.8998731742
 H   -0.1328529437    5.1144384714   -0.4944795254
 H    2.0552510961    3.9994060942   -0.4727757935
 H    3.1210023715    2.2425136359    1.3152691592
 H    2.1837510463    0.6742689404    1.5636713866
 H    2.1481417661    0.3585893789   -0.7084000988