15

 C    0.0712157638    1.5615593244   -0.1668618019
 C    0.0057103843    0.0582042770    0.0165974963
 O    0.6421473660   -0.5474547263   -1.1285078673
 C    0.6645366301   -1.8988009794   -1.1216084740
 O    0.2110611852   -2.6035207753   -0.2654755193
 N    1.3097674101   -2.3142908785   -2.2896210635
 C    1.5549442496   -3.6199865350   -2.6944476686
 O    1.2534319892   -4.6212008302   -2.1075629083
 H    1.1079736538    1.9036602758   -0.2306806252
 H   -0.4508868991    1.8682432446   -1.0775356388
 H   -0.4029182070    2.0571443847    0.6852090259
 H    0.5257441135   -0.2686987513    0.9220632276
 H   -1.0247243207   -0.3042143875    0.0791876887
 H    1.6269828088   -1.5736233328   -2.8973599612
 H    2.0857394825   -3.6161450901   -3.6680765604