21

 C    0.0657136523    1.3295054113    0.3892317654
 O   -0.0258667746   -0.0727163543    0.3184736605
 C   -1.2553129497   -0.5120849965   -0.2216659182
 C   -1.2235677536   -2.0148317887   -0.3082271186
 C   -1.5693034788   -2.8681290241    0.8848871192
 C   -2.4765387166   -2.8639448308   -0.3252237665
 C   -3.8818129605   -2.2895985826   -0.2591610262
 C   -4.8652744265   -3.3090261068    0.2812331657
 O   -5.9024995161   -3.6131917534   -0.2483930563
 H    1.0450604968    1.5732925507    0.8079345986
 H   -0.0227991266    1.7971446632   -0.6046255836
 H   -0.7144817559    1.7596461828    1.0381053189
 H   -2.0904077375   -0.1653699073    0.4098533116
 H   -1.4082480213   -0.0713711310   -1.2226573157
 H   -0.4145731444   -2.3792983481   -0.9348873990
 H   -0.9712452871   -3.7481774686    1.0915763330
 H   -1.9186739097   -2.3514095558    1.7738689436
 H   -2.4086966296   -3.7423291016   -0.9621862048
 H   -3.9072567226   -1.4293827338    0.4229532620
 H   -4.2388120036   -1.9528645984   -1.2375582315
 H   -4.5479516743   -3.7819240161    1.2393816221