13

 C    0.1158536881   -3.7609631727   -0.0197095478
 C    0.0662080815   -2.5530287196   -0.0122758741
 C    0.0150292865   -1.1978861806   -0.0039961308
 C   -0.0410882319    0.0160077469    0.0035532775
 C   -0.0934250956    1.4134710735    0.0120201318
 C   -1.1488809702    2.3112126986    0.0309769100
 N   -0.6965622849    3.5987691368    0.0321657268
 C    0.6181967022    3.5090915127    0.0142757076
 N    1.0380410859    2.2191866849    0.0015347667
 H    0.1542503151   -4.8219099852   -0.0261675664
 H   -2.2011728525    2.0733388115    0.0435635199
 H    1.3080868558    4.3397640823    0.0097717515
 H    1.9879503799    1.8858695709   -0.0128115927