23

 C   -1.1654539838    0.7919024709   -0.2010858540
 C   -0.0779751154   -0.2573185428   -0.0100404958
 C    1.2094897097   -0.2249541665   -0.8993671289
 C    1.5795035028    1.1039132285   -1.5492230732
 C    2.0408691871   -0.6234237538    0.3776906384
 C    3.3189728053    0.0118682788    0.6194792585
 C    4.3770917583    0.5496161652    0.8197558496
 C    0.8070739623   -0.2450846399    1.2807163639
 C    0.9163398564    1.0707387191    2.0434622658
 H   -0.7808669204    1.8124112062   -0.1206808165
 H   -1.6342486718    0.6917736459   -1.1863149322
 H   -1.9547264742    0.6757507049    0.5499323142
 H   -0.5371964944   -1.2479400445   -0.1039542097
 H    1.2266551291   -1.0027691634   -1.6692249750
 H    1.6077902094    1.9311840168   -0.8351208375
 H    2.5716070543    1.0400051652   -2.0065707857
 H    0.8613433360    1.3623628469   -2.3345398532
 H    2.1778914403   -1.7099414908    0.3929506831
 H    5.3137645198    1.0169085517    0.9969690481
 H    0.5508480540   -1.0365761002    1.9919557704
 H    1.1949384389    1.9105358931    1.4014010140
 H   -0.0356873628    1.3174799835    2.5251631195
 H    1.6800290090    0.9954089651    2.8236063563