16

 N   -0.0926409862    1.1537592720   -0.6031010016
 C   -0.1284619226   -0.0172227287    0.2665519454
 C   -1.4771127198   -0.6569605197    0.2075719686
 N   -2.3052122086   -0.6837599220   -0.7927124734
 C   -3.3395496350   -1.4475973549   -0.2930813016
 C   -4.5559324170   -1.7387935293   -1.1206925867
 O   -4.2041809717   -2.1334920561   -2.4301672417
 N   -3.1635234217   -1.8713434488    0.9268838634
 O   -1.9105696187   -1.3314031641    1.2749631860
 H    0.8652049951    1.4698438729   -0.7107461432
 H   -0.4323614751    0.8982307773   -1.5251196114
 H    0.6109094182   -0.8026544134    0.0239229166
 H    0.0672116850    0.2809129717    1.3023202883
 H   -5.1226673282   -2.5544851648   -0.6662227179
 H   -5.1989669984   -0.8438241154   -1.1246110469
 H   -3.5709247955   -1.4840350667   -2.7581986939