16

 C    0.0101272495    1.5057262123    0.0600574592
 C    0.0210192377    0.0081492986    0.0175704436
 C   -0.0051531632   -0.8043312560   -1.0998387905
 N    0.0189041239   -2.1060546694   -0.6880880033
 C    0.0593517839   -2.1709882915    0.6913827321
 N    0.0887940748   -3.4247571470    1.3419484142
 C    0.0612789222   -0.8682405799    1.1410354621
 O    0.0969138427   -0.5301405875    2.4693653447
 H    0.9098722660    1.9168837820    0.5379262363
 H   -0.0344622276    1.9237394574   -0.9495514439
 H   -0.8553799742    1.9012221121    0.6090786951
 H   -0.0384233707   -0.5434178295   -2.1456539262
 H    0.0089134200   -2.9240218902   -1.2712139459
 H   -0.7062491195   -3.5354352525    1.9643859231
 H    0.9199818799   -3.5213925600    1.9177515336
 H    0.0923324046    0.4291267913    2.5351998860