19

 C   -0.0403283231    1.4722220467    0.0104646421
 C   -0.0896867930   -0.0188619750   -0.0427657229
 C   -0.1036108364   -0.8334873055   -1.1126164832
 C   -0.0003770879   -2.2521350729   -0.5813470938
 O    1.3345844129   -2.4342226829   -0.0377132090
 C    1.4102601388   -1.5802756860    1.1151206256
 C    0.0081247587   -0.9170207128    1.1872109776
 C   -0.8392576082   -2.1387317437    0.7139769028
 O   -2.2174322653   -1.9333873281    0.5744430075
 H    0.8912797500    1.8198783537    0.4749878477
 H   -0.1044651266    1.9131829308   -0.9880256999
 H   -0.8585499308    1.8755577429    0.6198691414
 H   -0.0635016793   -0.5415531075   -2.1548455552
 H   -0.2066489636   -3.0758421847   -1.2620490281
 H    1.6136873558   -2.1878717999    2.0058394046
 H    2.2222461371   -0.8531043281    0.9930627139
 H   -0.2455916935   -0.4712156392    2.1490628108
 H   -0.7182303762   -3.0158990082    1.3546065086
 H   -2.3277219392   -1.1896350397   -0.0320102904