18

 C   -0.1024009900    1.5878518722   -0.1092018295
 C    0.0637246437    0.0854421844    0.0315741823
 N    1.0931632376   -0.6436267815   -0.8526714677
 C    2.4220450869    0.0118816426   -0.5088673108
 C    2.2661944777   -0.5874699722    0.8705255440
 O    3.1682951485   -0.7836916797    1.9049110236
 C    1.3263488564   -1.6236441408    0.3190024775
 C    0.7541740740   -0.5503777262    1.2122347160
 O    0.3292245832   -0.5902926543    2.5195793684
 H    0.7773423166    2.1467827604    0.2195357435
 H   -0.3115781303    1.8503627186   -1.1517582520
 H   -0.9493349706    1.9214193117    0.4986280416
 H   -0.8922451407   -0.4096431352   -0.1713722510
 H    3.2091227129   -0.4695931416   -1.0963233397
 H    2.4663062072    1.0962048372   -0.6510625615
 H    3.3869035737    0.0781305198    2.2810623290
 H    1.3171485430   -2.7021565645    0.2544163717
 H    1.1074513302   -0.7747597811    3.0643186145