19

 O   -0.0722026564    1.3373131747    0.1279480224
 C    0.0585654993   -0.0414955084    0.0494173908
 C   -0.4031481787   -0.8801417556   -1.1302889786
 C    0.5000522460   -2.0942465369   -1.2373250947
 C    0.8076519127   -2.2351659230    0.2497708310
 C   -0.5139782511   -2.0577051301    1.0820013621
 C    0.3339730233   -1.2701796978    2.1251422184
 C    1.1167219019   -0.8236198499    0.8579834870
 C   -1.1325578043   -0.9487067901    0.2123549265
 H    0.6084238662    1.7344713362   -0.4263258760
 H   -0.8780031911   -0.4088552004   -1.9826476395
 H   -0.0100493329   -2.9742812373   -1.6461523594
 H    1.3986191206   -1.9064324045   -1.8373443005
 H    1.4649490065   -3.0428972507    0.5699716339
 H   -1.1432211796   -2.9036212882    1.3599604554
 H   -0.1637778748   -0.4966432117    2.7166376560
 H    0.9189849457   -1.9268488958    2.7757853854
 H    2.1260024770   -0.4105371774    0.9004722075
 H   -2.1345412405   -0.5646374630    0.3467417123