18

 C   -0.0060117799    1.6224667660    0.1274114814
 C    0.0095474785    0.1089742391    0.0099256209
 C    1.0539759642   -0.5647632183   -0.9684676926
 C    1.6539164675   -1.2803884967    0.2472177451
 O    2.0533154113   -0.2639203320    1.1792004140
 C    0.6842577970   -0.6668825284    1.1628645203
 O   -1.3075743776   -0.4350478153   -0.1255503102
 C   -1.9665865264   -0.2161336294   -1.2809947644
 N   -3.1561604113   -0.6191255771   -1.4096290055
 H    0.9925255333    1.9740482737    0.3965379947
 H   -0.2956724936    2.0985200534   -0.8148094271
 H   -0.7152450185    1.9328733508    0.9006886284
 H    0.5628674223   -1.2470615504   -1.6650566249
 H    1.7332170066    0.1001450603   -1.5070808532
 H    2.1706843138   -2.2307379994    0.2987602032
 H    0.2290104460   -1.0115819994    2.0835533164
 H   -1.3746712324    0.3087185779   -2.0412704535
 H   -3.5013730608   -0.3864254649   -2.3386124628