18

 O    0.2073708418    0.1827361567   -0.6068052745
 C    0.1135206236    1.2899581035   -0.1362897179
 N    1.1032369025    1.9314342101    0.5893795062
 C    2.5275088788    1.8114208699    0.2622874863
 C    1.8247737728    3.1183121218    0.2158573164
 C    1.5712938327    4.1595174803   -0.8862157057
 C    0.6895160630    4.9100938173    0.1651877648
 C    1.9595575612    4.4591743978    0.9542440835
 C    2.7909129544    4.9245627384   -0.2827026780
 H   -0.8157286667    1.8899406383   -0.1830113193
 H    3.1804950859    1.5676751604    1.0962800775
 H    2.7627684963    1.3070139442   -0.6719662845
 H    1.3513055892    3.9794419219   -1.9384171097
 H    0.5783084515    5.9864747278    0.0128717156
 H   -0.2567099105    4.4427385483    0.4465414778
 H    2.1824327474    4.6188857050    2.0083735863
 H    3.7762336435    4.4734187687   -0.4194907008
 H    2.8076911625    6.0016761997   -0.4624674139