17

 C   -0.0876744173    1.5178840624    0.0380631829
 C    0.1103028352    0.0348806243    0.0163214073
 N   -0.7775692880   -0.9059351388    0.7278993223
 C    0.6805548959   -0.9212234226    1.0072525267
 C    1.3531687624   -1.7671036492   -0.1023189283
 C    0.7628676531   -0.7845049925   -1.1539590076
 N    0.0364163703   -1.9101660535   -1.7356793138
 C    0.4332805398   -2.8304029044   -0.7673785352
 O    0.1470886817   -3.9783268000   -0.5821751233
 H    0.8033920832    2.0396209643   -0.3274356801
 H   -0.9314177912    1.8144166633   -0.5966982734
 H   -0.2905562958    1.8743934802    1.0538282735
 H   -1.2238827180   -0.3886028449    1.4847024541
 H    1.0549952470   -0.7577520123    2.0099297164
 H    2.4190589650   -1.9609441030   -0.0104604151
 H    1.3863026188   -0.2100194304   -1.8400760962
 H   -0.8468602422   -1.9077823329   -2.2278721801