12

 N   -0.0369716851    1.2315975730    0.3717562002
 C   -0.0340456906    0.0358755935   -0.0221874946
 C   -1.2510796523   -0.8371642110   -0.2029104966
 C   -0.6954370352   -2.1659043037   -0.6889448739
 O   -1.2974721727   -3.1665021865   -0.9653049267
 C    0.8236627098   -1.9959041825   -0.7663506730
 O    1.1053723869   -0.6626225991   -0.3521067367
 H    0.9152765711    1.6005230220    0.4097090269
 H   -1.8036263858   -0.9616902834    0.7329235979
 H   -1.9493297517   -0.4140798698   -0.9309623968
 H    1.3280005256   -2.7114313894   -0.1068516007
 H    1.1801757601   -2.1572124232   -1.7901480258