17

 C   -0.1575626610    1.1597543845    0.0503438579
 C    1.2980737921    0.9204348058    0.0540573661
 C    1.8021816913    0.1749555932    1.2922411002
 O    1.8237021126    0.7198325261    2.5898993104
 C    1.7453460081   -0.4003994848    3.4828053462
 C    0.4631438626   -1.2583725969    3.2990307526
 N   -0.0791721547   -1.3500514363    1.9302979292
 C    0.6114464486   -0.7141832132    1.0980079047
 N    0.3004554499   -0.2286261785   -0.2378097403
 H   -0.6880290305    1.3401354739    0.9804837216
 H   -0.5730819273    1.6555983199   -0.8210195565
 H    1.9482525078    1.2919468276   -0.7287836479
 H    2.7578776802   -0.3177600477    1.0516896572
 H    2.6405491552   -1.0275328399    3.3459350088
 H    1.7745555232    0.0108874540    4.4944369815
 H    0.6570567606   -2.2670165883    3.6814378748
 H   -0.3512439388   -0.8504568695    3.9098343934