15

 O   -0.0696681149    1.3979622530   -0.0184937452
 C   -0.0170990735    0.0114239938    0.0248590503
 C    0.3371855063   -0.8350839041    1.2989462211
 C   -0.3684272206   -1.9148340534    0.4458749359
 C   -1.3341443318   -0.8069027126   -0.0434302471
 O    0.5271351839   -2.0989409543   -0.6704146060
 C    0.8182237496   -0.7375126862   -1.0342864343
 H    0.8292642637    1.7423581195    0.0262542282
 H    1.3887020008   -1.0020335941    1.5460365551
 H   -0.2362025580   -0.5226445253    2.1728658812
 H   -0.6909133398   -2.8807494034    0.8261120896
 H   -2.0555302049   -0.4938738272    0.7126286462
 H   -1.8091817129   -0.9441489889   -1.0172301514
 H    0.4903127365   -0.5269945129   -2.0591450308
 H    1.8958286456   -0.5397163540   -0.9538916927