17

 O   -0.0892339723    1.4347725728    0.0356572221
 C    0.0166927925    0.0239769023   -0.0466621923
 C   -1.3802123914   -0.5817686459    0.0114627296
 O   -2.3260788712   -0.1881804447   -0.9861187562
 C   -1.7452301112   -1.4926736245   -1.0850453792
 C   -0.6402352634   -1.6669960209   -2.1258010250
 C   -0.1079000156   -0.2975168575   -2.5919832632
 C    0.7468295817   -0.4492619726   -1.3206081397
 O    0.6091472504   -1.8965804013   -1.3957912901
 H    0.7960082267    1.7958477144    0.1500325488
 H    0.5674138252   -0.3887743135    0.8140709505
 H   -1.8102494919   -0.7089639301    1.0028378837
 H   -2.4318902523   -2.3184269562   -0.9122019016
 H   -0.8406692588   -2.4577662631   -2.8511964996
 H    0.4954180342   -0.3910640300   -3.4956254599
 H   -0.8032484896    0.5361542511   -2.6540951679
 H    1.7934570272   -0.1266420604   -1.3318776900