23

 C    0.0307437611    1.3631642584    0.1790333465
 O   -0.0208935537   -0.0091382249   -0.1306557536
 C   -1.3162433256   -0.5861611281   -0.0686381283
 C   -1.2452189340   -1.9382029635   -0.7705746429
 C   -2.6301658791   -2.5960071033   -0.8296004650
 C   -3.3681524505   -2.4880020366    0.4785769554
 C   -3.0139056416   -1.6785635464    1.4798172832
 C   -3.7715188245   -1.6232088875    2.7789286659
 C   -1.8145519672   -0.7595435935    1.3742024344
 H    1.0525702562    1.6991986860   -0.0160279864
 H   -0.6589331487    1.9485063795   -0.4502661382
 H   -0.2065186621    1.5723079726    1.2324962004
 H   -2.0263512378    0.0623714535   -0.6123754924
 H   -0.8281902588   -1.8054796129   -1.7732888065
 H   -0.5494074118   -2.5776634671   -0.2139123785
 H   -3.2318959960   -2.1392434898   -1.6301813146
 H   -2.5291876080   -3.6512957028   -1.1129429082
 H   -4.2468105505   -3.1196667862    0.5961213207
 H   -4.6024753756   -2.3336460803    2.7944788767
 H   -3.1147581745   -1.8491889952    3.6294344992
 H   -4.1764680846   -0.6189549103    2.9605524660
 H   -0.9845718778   -1.1515226772    1.9808728423
 H   -2.0693639649    0.2140797558    1.8123878439