16

 N   -0.0446822221    1.2851909455    0.1193129326
 C   -0.0109169611   -0.0927329578    0.0493177792
 N   -1.1107630126   -0.8316157657   -0.0522305544
 N   -0.5555604598   -2.0944330651   -0.0947252109
 C   -1.0636854795   -3.4264213621    0.1390012672
 C    0.2514780422   -4.2320367452   -0.0799126682
 N    1.3211819911   -3.2683000131    0.2752028917
 C    0.7714632881   -2.0146291650    0.0765284216
 N    1.1909751943   -0.7688216637    0.1351699564
 H    0.8104215136    1.7166288101   -0.1983983649
 H   -0.8714947432    1.6922634107   -0.2923521901
 H   -1.4474351275   -3.5349052920    1.1621241149
 H   -1.8494096398   -3.7100362316   -0.5647427472
 H    0.3022294960   -5.1212652658    0.5513432627
 H    0.3238524103   -4.5415427188   -1.1308551613
 H    2.2327835401   -3.4353167606   -0.1267656691