22

 C   -0.1458548694    1.5600766887   -0.0246929373
 C   -0.0209731757    0.0342086295   -0.0816686831
 C    0.8295835251   -0.5016477531   -1.2492726023
 C    2.2996943268   -0.0683270033   -1.1506514898
 C    0.7265330147   -2.0246000989   -1.3291708137
 C   -0.6255309166   -2.6477822865   -1.7487290190
 O   -0.0144568471   -3.3545044337   -2.8464658595
 C    1.2609720416   -2.7308069853   -2.5970259660
 H    0.8198773421    2.0450185945    0.1468037319
 H   -0.5559837715    1.9580231217   -0.9597952854
 H   -0.8136651949    1.8666740470    0.7863870082
 H    0.4008195295   -0.3361735681    0.8631784100
 H   -1.0275480790   -0.3978561291   -0.1525520800
 H    0.4139957814   -0.0930273289   -2.1836161552
 H    2.4062194994    1.0196210969   -1.1737027739
 H    2.7502488589   -0.4286107016   -0.2177971338
 H    2.8889967338   -0.4710518426   -1.9810630216
 H    1.1217720539   -2.4684903179   -0.4092573183
 H   -1.1009107242   -3.3309493881   -1.0349152902
 H   -1.3751322508   -1.9222562073   -2.0964512921
 H    1.5499185394   -2.0515999994   -3.4120385049
 H    2.0582864226   -3.4699285945   -2.4546883937