17

 C    0.2488720201    1.3719368941   -0.0001408838
 N    0.0854589891   -0.0655242501    0.1281475932
 C   -1.0168740219   -0.6452763420    0.0624240165
 C   -1.3896649729   -2.1003038777    0.0792894226
 C   -2.5125914668   -2.3552043560    1.0782144226
 C   -2.8215529835   -1.6845773829   -0.2223080892
 N   -2.4145923598   -0.2754050931   -0.1744222377
 C   -3.2278444434    0.7934018656    0.0955527737
 O   -2.8791953977    1.9225589550    0.3539484497
 H    0.8408197536    1.5723032318   -0.9009646858
 H   -0.6905229782    1.9306441223   -0.0401087330
 H    0.8429183057    1.7282394595    0.8483795985
 H   -0.8022572448   -2.8961708969   -0.3533811251
 H   -2.8092371311   -3.3965400094    1.1590053248
 H   -2.5628049377   -1.7897885882    2.0036167730
 H   -3.4909748443   -2.0463482732   -0.9908333495
 H   -4.2932649364    0.4970665112    0.0145647993