22

 C    0.5912838220    0.3449154202   -0.9773727408
 N   -0.5450376560    1.0726715078   -0.3879325765
 C    0.4491620184    0.4494872030    0.4957541133
 C   -0.0201838903   -0.7108910749    1.3341049370
 C    1.1068532775   -1.6994406812    1.6656078867
 C    0.6036376636   -2.7915839370    2.6206184812
 C   -0.0768674222   -2.1567792271    3.8410842447
 C   -1.1278889584   -1.1440010603    3.3827784829
 O   -0.5722854722   -0.1607894489    2.5260602667
 H    0.3224153732   -0.5776996671   -1.4857214886
 H    1.3913799554    0.9034906533   -1.4559723129
 H   -0.3869159837    2.0750560889   -0.4421535013
 H    1.1465356720    1.1062852077    1.0137022560
 H   -0.8140492000   -1.2371037934    0.7753502216
 H    1.4958968720   -2.1377623895    0.7398433674
 H    1.9306933851   -1.1459432481    2.1350776868
 H   -0.1209539487   -3.4268334649    2.0924545016
 H    1.4271952033   -3.4447890267    2.9279880898
 H   -0.5463279363   -2.9199708571    4.4724993482
 H    0.6694271874   -1.6379516748    4.4555357195
 H   -1.9520106649   -1.6686054443    2.8678539920
 H   -1.5566053672   -0.6010305357    4.2304978750