16

 C    0.0033148483    1.4528154077    0.0297798135
 N    0.0013087153    0.0047560981    0.0040369979
 C   -0.0731327685   -0.7721460704   -1.1598082578
 O   -0.1448087082   -0.3393369674   -2.2846107139
 C   -0.0445233858   -2.1967290998   -0.7064112204
 C    0.0405816966   -2.2369767452    0.6272041927
 C    0.1010595672   -3.3784338982    1.5789026216
 C    0.0727951295   -0.8088376499    1.1267844875
 O    0.1460276672   -0.4317053859    2.2726838396
 H    0.9221733832    1.8305947224    0.4866429559
 H   -0.0627778796    1.7968919972   -1.0032378970
 H   -0.8495563493    1.8310153824    0.6001440666
 H   -0.0896276823   -3.0160392546   -1.4101860838
 H    0.0677057502   -4.3379727600    1.0591201229
 H    1.0169775312   -3.3287687279    2.1778996186
 H   -0.7313025850   -3.3284144285    2.2894247861