15

 C    0.0530078400    1.4717652003    0.0726713917
 C    0.0021561706   -0.0200174525    0.0671328539
 N    0.0081480041   -0.6805252952   -1.0637993065
 O   -0.0561804754   -2.0395470835   -0.7209761385
 C   -0.0920591489   -2.1442757621    0.6054346349
 C   -0.0527219506   -0.9148933571    1.1908008782
 C   -0.1063014765   -0.5277362702    2.6173957750
 N    0.1168191555   -1.5419372963    3.5184018347
 O   -0.3676948162    0.6084551049    2.9698784663
 H    0.9400576804    1.8243496497    0.6067659355
 H    0.0743173678    1.8459492808   -0.9523230855
 H   -0.8112359875    1.8775131922    0.6029626287
 H   -0.1704968231   -3.1482164746    0.9957386639
 H    0.6509424833   -2.3504618624    3.2459675440
 H    0.1992268165   -1.2528042538    4.4813484237