21

 C    0.1383726212    1.5530621974    0.0627549948
 C   -0.0302093882    0.0333393793   -0.0084327247
 C   -1.4950887314   -0.4914187175   -0.0234870422
 C   -2.2627466044    0.0345857613   -1.2565001157
 C   -1.4592473737   -2.0470249439   -0.0062156196
 C   -2.8172324357   -2.7495621459    0.0670530374
 C   -2.1751750346   -0.0229854709    1.1966801449
 N   -2.7040714534    0.3413311414    2.1584966615
 H    1.1992637393    1.8091386488    0.1382131985
 H   -0.2556647806    2.0544552767   -0.8259200152
 H   -0.3688269452    1.9677299387    0.9392143162
 H    0.4574372951   -0.3550484323   -0.9109565871
 H    0.4828714777   -0.4259673857    0.8440587174
 H   -1.7643640115   -0.3088892538   -2.1688963425
 H   -3.2929284944   -0.3265606045   -1.2688899774
 H   -2.2951057529    1.1257366771   -1.2705621189
 H   -0.9224642372   -2.3641375018   -0.9087103530
 H   -0.8457455799   -2.3598900792    0.8462419045
 H   -2.6755544316   -3.8315713783    0.1441341851
 H   -3.3856479232   -2.4235379851    0.9434078815
 H   -3.4272436052   -2.5630633718   -0.8214879054