22

 C   -0.0392695283    1.5471679035    0.1708286417
 C   -0.0979057304    0.0255424391    0.0099356802
 C    0.6621242046   -0.5288497591   -1.2145298372
 C    0.5574014244   -2.0597961344   -1.2562122397
 C    0.1136872283    0.0547823549   -2.5272297096
 O   -1.2819122394   -0.2013990372   -2.5924219346
 O    2.0249773884   -0.0814008176   -1.2440410346
 C    2.8875313762   -0.5539212205   -0.2348593922
 H    0.9924346916    1.9090457156    0.1418194174
 H   -0.5961127797    2.0548531896   -0.6224403400
 H   -0.4810914236    1.8510563741    1.1247930424
 H    0.2981347400   -0.4566936846    0.9116650217
 H   -1.1391570160   -0.2993318936   -0.0761742463
 H   -0.4678300656   -2.3426484487   -1.5068757621
 H    1.2251715552   -2.4648882930   -2.0233854607
 H    0.8107557100   -2.5194246389   -0.2964907320
 H    0.3312927421    1.1305972191   -2.5524766676
 H    0.6516833809   -0.4141570972   -3.3637139244
 H   -1.6086575039    0.1311778352   -3.4325494324
 H    2.5591272549   -0.2681006553    0.7743109167
 H    3.0122973978   -1.6450343842   -0.2615589864
 H    3.8611947725   -0.0924363768   -0.4205745704