23

 C    0.0029380416    1.5466872244    0.0189095309
 C    0.0458959420    0.0448466721   -0.0104358942
 C   -0.8833289369   -0.8225751121    0.7945427264
 C    0.5978941045   -0.9656495193    1.0066541608
 C    1.2551753713   -1.7996148021   -0.1091806524
 C    2.7799498066   -1.6838081847   -0.0660351919
 C    0.8228257323   -3.2573331358   -0.2451750564
 C    0.6341353869   -0.7790421499   -1.1524641149
 O   -0.3400564782   -1.2435602114   -2.0658859175
 H    0.9724055075    1.9835074455   -0.2479391710
 H   -0.7414999744    1.9344119285   -0.6867674268
 H   -0.2651460445    1.9139385983    1.0151236856
 H   -1.4113177697   -0.2990594768    1.5861681085
 H   -1.4655191711   -1.6034329766    0.3164444700
 H    1.0618053574   -0.7585109524    1.9656775993
 H    3.1932519778   -2.2379195014    0.7845915222
 H    3.2331733027   -2.0886619238   -0.9786874753
 H    3.0971492886   -0.6400571661    0.0339166300
 H   -0.2607014010   -3.3579830339   -0.3335532070
 H    1.2711108802   -3.7182661396   -1.1343948567
 H    1.1506321740   -3.8392426540    0.6236800709
 H    1.4301232471   -0.2333693897   -1.6798972958
 H    0.1050369652   -1.7644757693   -2.7419644047