16

 C   -0.0327071235    1.4272997455    0.0751629935
 N   -0.0126230254   -0.0243153466    0.0769065175
 C   -1.0920246300   -0.6690036855    0.0147122356
 O   -2.3573588870   -0.1258118460   -0.0586875019
 C   -3.3319178252   -1.1664337789   -0.1148710698
 C   -2.5442691424   -2.4379348855   -0.0688136821
 C   -1.2363813367   -2.1463525486    0.0068740155
 C   -0.1392669330   -3.0343085167    0.0707130303
 C    0.7943591738   -3.7910919164    0.1250433623
 H    0.5644084349    1.7900677691   -0.7696000685
 H   -1.0334043372    1.8694513053    0.0150155161
 H    0.4591473406    1.7907842043    0.9849855893
 H   -4.0232053871   -1.0618548871    0.7332055175
 H   -3.9205800204   -1.0624295415   -1.0372125158
 H   -2.9892467568   -3.4225548496   -0.0943053235
 H    1.6267590754   -4.4486114019    0.1734735340