21

 C    0.2683429640    1.4645971174    0.0334003202
 C    0.0608005473   -0.0424177901   -0.0517383786
 C   -1.4246311845   -0.4118791613    0.0134281295
 C    0.7598310975   -0.6991996488   -1.2744567700
 C    1.2975629594   -2.0167655904   -0.7306563405
 C    2.5377583937   -1.9272432593    0.1517606591
 O    3.2886820978   -0.7579336697    0.2041368326
 C    1.1675493095   -1.9259128307    0.7723487066
 O    0.7301363326   -0.6311413623    1.1045333326
 H    1.3344572826    1.7089736746    0.0132153219
 H   -0.2114204893    1.9633486455   -0.8142866609
 H   -0.1631930233    1.8649348480    0.9554205842
 H   -1.9764686965    0.0449805588   -0.8144594125
 H   -1.5560136465   -1.4967621613   -0.0479126775
 H   -1.8612260499   -0.0660286804    0.9546658012
 H    0.0587800281   -0.8586443172   -2.0970837471
 H    1.5748369861   -0.0654628937   -1.6377223341
 H    1.1029644202   -2.9421289050   -1.2596661045
 H    3.1443958553   -2.8245568432    0.2393204234
 H    2.8059725315   -0.1659726735    0.7994150749
 H    0.7995659243   -2.7182992472    1.4163813994