18

 O   -0.1395351790   -0.0417656272    0.2400697283
 C   -0.0619739707    1.1199789369   -0.0974794123
 N    1.1039152663    1.8123144897   -0.2291055211
 C    2.3911311473    1.1987569124   -0.0518248423
 C    2.6912152047    0.5107587666    1.3086109650
 C    4.0037053443    1.3472307143    1.4435118263
 C    3.7163060418    2.0054176593    0.0750252787
 O    4.3005807356    1.2878567879   -1.0277332489
 C    3.0853802056    0.5366681801   -1.2635074970
 H   -0.9459978094    1.7503745840   -0.3208642741
 H    1.0641864846    2.7365404996   -0.6315835716
 H    1.9440639763    0.7460658680    2.0664503849
 H    2.7994440058   -0.5733421500    1.2568088333
 H    3.9874444200    2.0497494647    2.2807936380
 H    4.9418902546    0.7898254040    1.4637405651
 H    3.8121283083    3.0908549144   -0.0303741420
 H    3.2415482412   -0.5466558861   -1.2104975229
 H    2.6336349328    0.7950542812   -2.2298296875