19

 C    1.2790873962    0.9278549896   -0.3518331074
 C   -0.0022506286    0.2702313307    0.1784369584
 O   -0.6475257131   -0.6290952927   -0.7174087378
 C    0.1375862629   -1.5764743720   -1.4184965521
 C    0.5934783977   -2.7313149101   -0.5353795602
 O    1.4363063415   -2.2974807763    0.5186622270
 C    0.7672690537   -1.7967177930    1.6531533228
 C    0.2606794070   -0.3507020536    1.5602537466
 O    0.0733178995    0.2851512545    2.5704562956
 H    2.1104668067    0.2217051591   -0.4124623574
 H    1.0995367616    1.3572300891   -1.3420569100
 H    1.5663062025    1.7345761644    0.3279771939
 H   -0.7471300250    1.0516732319    0.3553965139
 H   -0.5063757853   -1.9630433230   -2.2166910890
 H    1.0089134554   -1.1060766147   -1.8911319940
 H   -0.2829454265   -3.2584766214   -0.1285540691
 H    1.1763488009   -3.4419653204   -1.1325423126
 H   -0.0965804636   -2.4293822741    1.9176073713
 H    1.4687203064   -1.8356482582    2.4912237802