21

 C   -0.2646959435    1.7175113818    0.1030020888
 C   -0.1625466823    0.2328593534    0.4701166728
 C   -1.3209473129   -0.5916965324   -0.0771293181
 C   -1.4169884305   -0.8409432963   -1.6215015030
 C   -1.9335159438   -2.2328957912   -1.2608434686
 O   -2.7278654279   -2.9924047881   -1.7445331239
 C   -1.3800813414   -2.1510069162    0.1703496771
 C   -0.0218017184   -2.8294081749    0.3518535680
 O   -2.2730568456   -2.5980890622    1.1643886586
 H    0.5740041765    2.2850140952    0.5175998786
 H   -0.2593316385    1.8612656200   -0.9829141837
 H   -1.1899987887    2.1574304685    0.4905821678
 H    0.7880914583   -0.1693496362    0.0992071387
 H   -0.1364036687    0.1281354243    1.5621380714
 H   -2.2721754536   -0.1823968756    0.2794152924
 H   -2.0810212236   -0.2198182737   -2.2249975364
 H   -0.4297096603   -0.8756915824   -2.0954982725
 H    0.7055510702   -2.5195771823   -0.4042640226
 H    0.3814287843   -2.5891672940    1.3398549866
 H   -0.1478009394   -3.9136332536    0.2874944331
 H   -2.9737060103   -3.0867692143    0.7138280747