20

 C   -0.0595229998    1.6108133712   -0.0353167117
 C    0.0487212721    0.0877714648   -0.0135917714
 N    0.8385879100   -0.4447538493   -1.1198475879
 C    1.6162894968   -1.5387740369   -0.8341104850
 O    2.2539980450   -2.1845443624   -1.6378387876
 C    1.5393237426   -1.7677220867    0.6782721420
 C    2.8104426854   -1.3106372344    1.4397567165
 C    2.1457744863    0.0805801052    1.6473567034
 C    0.7747494798   -0.5218471716    1.2023334678
 H    0.9249986501    2.0848047802   -0.0027475645
 H   -0.5703891754    1.9538024964   -0.9413549352
 H   -0.6417588886    1.9593356557    0.8237124831
 H   -0.9727889298   -0.3241215167   -0.0513667143
 H    0.6772407236   -0.1862671374   -2.0813367583
 H    1.1625591131   -2.7728584487    0.8791241522
 H    2.9389859573   -1.8559605236    2.3778377339
 H    3.7489121543   -1.3468117092    0.8822906680
 H    2.1833509926    0.4973099183    2.6557921279
 H    2.5265106587    0.8311132128    0.9511633685
 H    0.0933068758   -0.6926184178    2.0370055328