21

 C   -0.1795520600    1.5470969224   -0.0235519114
 C    0.1231528783    0.0535030644   -0.0109661078
 C    1.0910315376   -0.5953804116   -1.0614152648
 C    1.8440461673   -1.2961958948    0.0896814618
 C    2.3238966244   -2.7190862373    0.0404123823
 C    2.4657984935   -0.2777269599    1.0310590259
 C    3.1212758552    0.9889188007    0.6268482209
 O    4.0329934474    1.4883659116    1.2451280259
 C    0.9655724065   -0.5796149410    1.1034528976
 H    0.7247525848    2.1608029454   -0.0014256252
 H   -0.7439488190    1.8192151520   -0.9224327330
 H   -0.7867415035    1.8250688169    0.8449772756
 H   -0.8281275725   -0.4885564201   -0.0515819979
 H    0.5818129307   -1.3073201294   -1.7155616463
 H    1.6722924843    0.0836462643   -1.6909501734
 H    3.1823492257   -2.8254851462   -0.6332687875
 H    2.6342470828   -3.0686175799    1.0301394052
 H    1.5339279178   -3.3875658258   -0.3211353767
 H    2.9971641582   -0.7356947626    1.8623355424
 H    2.7543714285    1.4622544250   -0.3069509456
 H    0.5742816520   -0.9482769841    2.0459803321