23

 C    0.5477519582    0.8853672271    0.6808164426
 C    0.1737263639   -0.4070949439   -0.0686275644
 C   -1.3053408539   -0.6674969019   -0.1069083916
 C   -2.1458480938   -0.5580399140   -1.1453464440
 C   -1.8353280710   -0.1324026170   -2.5443126775
 O   -2.2847371600   -1.1542304166   -3.4352143620
 C   -3.5581198272   -0.9683122767   -0.7793875078
 C   -3.5275059059   -1.0190726441    0.7654458922
 C   -2.0321995320   -1.1651661702    1.1299181867
 H    1.6338943390    1.0173676437    0.7116279758
 H    0.1121817944    1.7608168006    0.1889796328
 H    0.1846720843    0.8696540892    1.7132193313
 H    0.5822254018   -0.3628454366   -1.0836471646
 H    0.6688939097   -1.2549715186    0.4248954789
 H   -2.3607916190    0.8147793538   -2.7587314596
 H   -0.7600286096    0.0596563313   -2.6716882982
 H   -2.2283465745   -0.8088798230   -4.3311675316
 H   -4.3124666364   -0.2712061901   -1.1646633734
 H   -3.7929339525   -1.9435251782   -1.2245370515
 H   -3.9080639781   -0.0749248070    1.1690696779
 H   -4.1469281068   -1.8187867152    1.1798951517
 H   -1.7567001270   -2.2131466546    1.3226122050
 H   -1.7649355537   -0.6121836583    2.0380767113