19

 C    0.0710426252    1.3543489479   -0.2299495807
 C   -0.1663867994   -0.1270927088    0.0991224224
 C   -1.6561792572   -0.3970417819    0.3579616485
 O    0.1588322646   -0.8559060333   -1.1164648203
 C    1.0934439159   -1.8209496563   -1.2450541229
 O    1.2522962434   -2.3384790973   -2.3179019016
 C    1.9144828272   -2.2218701140   -0.0301609566
 C    1.5961843420   -1.4850161847    1.2312619099
 C    0.6608034801   -0.5466546984    1.2794663777
 H    1.1276594616    1.5338680124   -0.4444735912
 H   -0.5179413980    1.6416057918   -1.1050633843
 H   -0.2237868988    1.9859542129    0.6134040699
 H   -2.2452635435   -0.1101279288   -0.5171958492
 H   -1.8230881636   -1.4581540829    0.5601092947
 H   -2.0056855647    0.1793545235    1.2197669109
 H    1.7828141243   -3.3042058541    0.0950943212
 H    2.9689272596   -2.0998226503   -0.3090373936
 H    2.1635867046   -1.7461780507    2.1202833488
 H    0.4415332165   -0.0202739069    2.2040822364