21

 C    0.2157427727    1.4479554808   -0.3125359655
 C    0.1337401497   -0.0232598225    0.0349425517
 O    1.0286646543   -0.8350602257   -0.7657228236
 C    1.4517584677   -1.5969101542    0.3930672302
 C    2.9569521267   -1.7868169899    0.3725958912
 O    3.3407615961   -2.4817367693   -0.8005953712
 C    0.7432806900   -0.6085959873    1.3516260932
 C    1.6181212262    0.3223904127    2.1799705763
 O   -0.1732820704   -1.3040134701    2.1746006839
 H    1.2343234267    1.8315151961   -0.2111953386
 H   -0.1011569783    1.6019446437   -1.3489726841
 H   -0.4484032110    2.0354206232    0.3310088686
 H   -0.8995453384   -0.3840673706   -0.0684792656
 H    0.9552258205   -2.5757486099    0.4176827656
 H    3.4645206366   -0.8125790968    0.4380126815
 H    3.2770119353   -2.3954329331    1.2253862416
 H    2.9441945433   -2.0008692455   -1.5370811062
 H    2.3649722412    0.8416839752    1.5755026929
 H    1.0023116812    1.0886325571    2.6672644506
 H    2.1366549467   -0.2425230125    2.9603319607
 H   -0.5478185668   -0.6819144914    2.8074542668