13

 N    0.0536183325    1.1720767387    0.5913981320
 C    0.0062064409    0.0182950540    0.0624876447
 N   -1.2321792559   -0.6131567156   -0.0860463017
 C   -1.5364062672   -1.9644047894   -0.1469849837
 O   -2.5734367554   -2.3655976117   -0.6112738658
 N   -0.6395279465   -2.8614862169    0.4900151073
 C    0.6219353890   -2.8270771415    0.3428340715
 C    1.4018731545   -1.8284958054   -0.4259437734
 N    1.1313642508   -0.5895972133   -0.5363524368
 H    0.9912913971    1.5576894582    0.4826902762
 H   -2.0277897713    0.0066688651   -0.1682158973
 H    1.2070579870   -3.6099995272    0.8342071300
 H    2.3220447446   -2.1850443950   -0.8954247431