15

 O   -0.0206235906    0.0234851986    0.1009958990
 C   -0.0413296460    1.2203240890    0.0359861803
 C   -1.2683374542    2.1528740848   -0.0194773765
 C   -0.5605951761    3.5255891005    0.0167675045
 O    0.6248769498    3.2828779426   -0.7607842087
 C    1.1550271169    2.1903727520    0.0100683878
 C    1.2814408896    2.8092431634    1.4198827165
 C    0.0270134992    3.7062377705    1.4292190709
 O   -0.4014693710    4.3742839482    2.3276594363
 H   -1.7966842020    2.0176186170   -0.9679012593
 H   -1.9635716217    1.9544200957    0.7996550561
 H   -1.1140759192    4.3781368707   -0.3694530653
 H    2.0629483692    1.7974479402   -0.4411899164
 H    1.2777595352    2.1013837652    2.2521292321
 H    2.1817961409    3.4268905315    1.4893374127