18

 O   -0.6411344758    0.7121257194    0.6963011792
 C    0.0437548849    0.9926158679   -0.2526534059
 C    1.3329952602    1.7794381451   -0.1914191120
 C    1.2816180189    3.0345127652   -1.0818704738
 C    2.6070314249    3.7860608362   -1.1185896472
 C    3.7613505100    3.1567282849   -1.9350434370
 O    3.8100437897    4.2859735372   -2.8283719608
 C    2.7281708028    4.9422340992   -2.1379367390
 H   -0.2507502306    0.6804824776   -1.2831084198
 H    1.5376683907    2.0347651246    0.8525207875
 H    2.1384767662    1.1195456067   -0.5466163043
 H    0.9995813083    2.7494387253   -2.1046114420
 H    0.4928389023    3.7049821823   -0.7176976444
 H    2.9044410405    4.0722072674   -0.1059163491
 H    4.7097634281    3.0123817954   -1.4034524078
 H    3.5086291015    2.2262736153   -2.4635291772
 H    1.8527112765    5.0853606567   -2.7860111877
 H    3.0299845809    5.9149365737   -1.7309297286