21

 O   -0.6314423659    0.8217111345    0.6978686115
 C    0.0803868978    1.0076060853   -0.2555755672
 C    1.3617285516    1.8070000414   -0.2470337948
 C    1.3311418917    2.9606343833   -1.2678421842
 C    0.2631760640    4.0418849293   -0.9612906316
 C    0.7900779254    5.3372891875   -1.6194442969
 C    2.3068437661    5.1978610325   -1.5931575457
 C    2.9437542095    4.7557861248   -0.2987318514
 C    2.6383152806    3.7391104177   -1.3740597325
 H   -0.1835180234    0.5830242264   -1.2546915559
 H    1.5418573050    2.1773419986    0.7665095195
 H    2.1785855951    1.1198785136   -0.5118940867
 H    1.1237374021    2.5319270760   -2.2590061884
 H   -0.7293943905    3.7604487696   -1.3234381727
 H    0.1695612105    4.1719674798    0.1220260486
 H    0.4537795242    5.3996499853   -2.6613574579
 H    0.4271686704    6.2368910539   -1.1106820856
 H    2.8941479246    5.8076498410   -2.2708804724
 H    3.9873251426    5.0105116651   -0.1499343660
 H    2.3585233535    4.7657815390    0.6152925961
 H    3.4718004851    3.2659318155   -1.8827382859