19

 C   -0.0984607083    1.3757786321    0.0616120728
 O    0.0562338835   -0.0343180007    0.0046993956
 C    0.6774049734   -0.5373467224   -1.1495066547
 C    2.0780806770    0.0121481790   -1.4028202171
 C    0.6446975134   -2.0697569424   -1.1771317961
 O   -0.7233859797   -2.4886115797   -1.2098327544
 C   -0.1068688906   -2.0950700271   -2.4452843081
 C   -0.2362583414   -0.5632615653   -2.4689243837
 O   -1.5339868155   -0.0619581481   -2.3433001555
 H    0.8604519167    1.8921675390    0.2053603987
 H   -0.5896837320    1.7643180888   -0.8373653582
 H   -0.7318354231    1.5799559735    0.9283268993
 H    2.7094821464   -0.1256663955   -0.5188939239
 H    2.5467941324   -0.5107181682   -2.2424919426
 H    2.0545024839    1.0774794064   -1.6486521619
 H    1.3695560927   -2.7686919330   -0.7749197415
 H   -0.1026542412   -2.8176742492   -3.2529142929
 H    0.2345404511   -0.0761745402   -3.3259246846
 H   -1.9194008888   -0.5398528469   -1.5959838212