17

 C    0.0219610350    1.4371916230   -0.0949318387
 C    0.0031861937   -0.0580288848   -0.0311864108
 N    0.6118808745   -0.9321783476   -1.0977865140
 C    0.0575607943   -1.8905254433   -0.0901081574
 C    0.1316562208   -3.3224399167   -0.2143587803
 N    0.1710382026   -4.4742726606   -0.3113589193
 C    0.5252064625   -1.0007937526    1.1111286020
 C   -0.8540054117   -1.0674184542    1.7957337267
 C   -1.1992824575   -1.0262104421    0.2943819834
 H    1.0481174327    1.8004384102   -0.2056577953
 H   -0.5631737934    1.8016614709   -0.9460988608
 H   -0.4027698810    1.8704585083    0.8162851994
 H    0.0227308385   -0.9319359540   -1.9367310276
 H    1.5295514931   -1.0064631184    1.5327869383
 H   -1.0910095908   -1.9913895064    2.3287483806
 H   -1.1459107636   -0.1960667963    2.3873694407
 H   -2.1682191896   -1.0622337254   -0.2068168670