17

 C    0.3560816827    1.4065281975   -0.1315392470
 C    0.0373166175   -0.0476270696    0.1456790619
 O    1.1637571392   -0.9580887526    0.1782905215
 C    0.4532325162   -0.7516306974    1.3882812972
 C    1.1846250752   -0.1426553089    2.5466487255
 C    2.6211587013   -0.3949889546    2.7416569293
 O    2.1438371542    0.8808988820    2.3104087613
 C   -1.1246021728   -0.5620455767   -0.5473849163
 C   -2.0990496357   -0.9575555908   -1.1294701598
 H    1.2713265249    1.6978017719    0.3804711649
 H    0.4751894482    1.5552531353   -1.2087368869
 H   -0.4689600103    2.0415866047    0.2056642149
 H   -0.1708153024   -1.5948486903    1.6953956678
 H    0.5602961368    0.0148643751    3.4275508498
 H    3.0335701373   -0.4239153585    3.7483176704
 H    3.1557289889   -0.9635718307    1.9842115002
 H   -2.9564483111   -1.3152269765   -1.6442776045