19

 O    0.6510288334    0.0577717486    1.4240675779
 C    0.1511824886    0.1099675155    0.0929686413
 C   -1.2192027039   -0.5443831399   -0.0183094056
 C   -2.0181916319   -0.6296728704   -1.3526228181
 C   -1.0718139617   -1.4081099072   -2.2893047023
 C   -1.1186764163   -2.6852305663   -1.4277083937
 O   -2.5266227770   -3.0510716148   -1.5679978463
 C   -2.7541016647   -1.9186117321   -0.7269819454
 C   -1.4093254429   -2.0759824275    0.0086732946
 H    0.7538826439   -0.8697255375    1.6603912055
 H    0.0780613299    1.1757324035   -0.1515560952
 H    0.8707929161   -0.3348595562   -0.6090470592
 H   -1.8555664300   -0.1141751522    0.7648493939
 H   -2.5622317015    0.2267151673   -1.7467209991
 H   -1.4954016741   -1.6097802887   -3.2750247558
 H   -0.0870010086   -0.9526153460   -2.4031396407
 H   -0.4301157092   -3.5082746653   -1.6119904447
 H   -3.7455456620   -1.8355907248   -0.2854452821
 H   -1.2719702280   -2.7187534460    0.8772767752