21

 C   -0.0294802405    1.5177550755    0.0154282108
 C    1.2995029873    0.8124099473   -0.0027769297
 C    0.0177953918    0.0023409378   -0.0010766523
 C   -0.3634385119   -0.7476486323    1.2268605514
 C   -0.9878096049   -1.9206566888    1.0940191544
 C   -1.2717566344   -2.4194970811   -0.3081846658
 C    0.0226364019   -2.2373374894   -1.1632495117
 C   -0.3930940488   -0.7391473169   -1.2688058439
 C   -1.8643381438   -1.2358609848   -1.1374157154
 H   -0.3398508214    2.0085561759    0.9318579649
 H   -0.3570214920    2.0183605044   -0.8902320339
 H    1.8781507313    0.8320364998   -0.9208688649
 H    1.8994075549    0.8201168377    0.9011657533
 H   -0.1224511531   -0.3185705205    2.1957925210
 H   -1.2901176013   -2.5123854301    1.9518770567
 H   -1.7832889590   -3.3828887006   -0.3250405588
 H    0.9787939398   -2.4773211385   -0.6924080521
 H   -0.0563559975   -2.7388590479   -2.1316370183
 H   -0.1094854024   -0.1816329883   -2.1657656623
 H   -2.2560593005   -1.5714053001   -2.1015230073
 H   -2.5886705655   -0.5839578891   -0.6435675459