21

 C    0.0533963851    1.5371385333    0.3854348748
 C    0.0751596232    0.0632323751    0.1339608038
 C   -0.0096563725   -0.5559302103   -1.0464768378
 C   -0.0005517695   -2.0730164174   -0.9167209637
 C    0.9030147601   -2.7650988010   -1.9516874929
 C    0.4378808258   -2.2839045591    0.5540713523
 C    0.1719358077   -0.9374161986    1.2675746085
 C   -1.4398811288   -2.5309028437   -1.1482003385
 O   -2.1555299743   -3.0469734028   -0.3283555526
 H    0.9660151554    1.8629944199    0.9003525908
 H   -0.0391331657    2.1083219102   -0.5420865758
 H   -0.7846456906    1.8094978802    1.0397382917
 H   -0.1184616385   -0.0600527341   -2.0059876366
 H    1.9179393240   -2.3606174769   -1.8947265434
 H    0.9519491706   -3.8449514274   -1.7751764793
 H    0.5365630770   -2.6080620859   -2.9726866255
 H   -0.0993715693   -3.1171685842    1.0103107801
 H    1.5074216618   -2.5137125643    0.5768527520
 H    0.9589770827   -0.6779879284    1.9856982355
 H   -0.7682885447   -0.9553232238    1.8354446142
 H   -1.8119997294   -2.3247097707   -2.1800473674