20

 C    0.1358395600    1.5789874197   -0.0725263030
 C    0.0080773814    0.0609593944    0.0643293180
 O    0.6080502533   -0.5705078439   -1.0695371801
 C    1.5417024524   -1.5512052315   -0.6433320615
 C    1.5879010583   -1.4541651363    0.8596037748
 C    2.5082926902   -2.3215816435    1.6561637027
 C    0.7074640703   -0.5364711967    1.2666258318
 C    0.3595766448   -0.1072491328    2.6563248012
 H    1.1878342296    1.8796070040   -0.0473975429
 H   -0.2945593546    1.9027108032   -1.0242650323
 H   -0.3974476445    2.0920247993    0.7346307209
 H   -1.0676570718   -0.1937713386    0.0863922267
 H    1.2242638791   -2.5549957505   -0.9763589496
 H    2.5220128206   -1.3592342397   -1.1095957318
 H    2.3087726548   -3.3848595409    1.4703021082
 H    3.5552398728   -2.1478795667    1.3761855055
 H    2.4165411453   -2.1464779799    2.7307049876
 H    0.9084518251   -0.6747296836    3.4116923667
 H    0.5765830711    0.9561930305    2.8148959970
 H   -0.7126291382   -0.2392539063    2.8514957602