20

 O   -0.1207317134    1.4592259426   -0.1713179364
 C    0.0111801742    0.0640636605    0.0819067854
 C   -1.3761990252   -0.5421338822    0.0012945370
 C   -2.0390488048   -0.6475075325   -1.4103690119
 C   -1.2412226443   -1.9704443863   -1.6002820091
 C   -1.4847996790   -2.0994513169   -0.0676891183
 C   -3.0143385070   -2.2929116830   -0.0165152100
 C   -3.4372343174   -1.1821971947   -1.0411446533
 H    0.7482539824    1.8623019563   -0.0869706049
 H    0.7016489510   -0.3998300591   -0.6371630094
 H    0.4240271292   -0.1160519652    1.0883404368
 H   -1.9966056241   -0.0603428129    0.7666038400
 H   -1.9822613806    0.1732728978   -2.1246692688
 H   -1.6765732189   -2.7373502576   -2.2488658338
 H   -0.1956479105   -1.8195177157   -1.8692583632
 H   -0.8764354885   -2.7494686397    0.5639405383
 H   -3.3143280566   -3.2957724880   -0.3340095963
 H   -3.4224165169   -2.1207982551    0.9836941793
 H   -4.0694262272   -0.4126035354   -0.5890479614
 H   -3.9690233824   -1.5887632327   -1.9063136702