17

 O    0.0291496507    0.0014993660   -0.3999557302
 C    0.0239375967    1.1777001537   -0.0877306257
 N   -1.1357728439    1.8488999414    0.2228860483
 C   -1.2574152202    3.3032585759    0.1423468425
 C   -0.1366364191    3.9746478160    0.9383535377
 C    1.2317741872    3.4072450210    0.5608587343
 C    1.8312922369    2.3134488900    1.3986248333
 C    1.2802469957    1.9904517237    0.0223534658
 H   -1.9653874804    1.2981322906    0.0507635103
 H   -1.2285717694    3.6442523595   -0.9040995200
 H   -2.2345479777    3.5850233311    0.5460556421
 H   -0.1614205353    5.0525379187    0.7515127253
 H   -0.3248467472    3.8324984185    2.0080625514
 H    1.9264966152    4.1087312326    0.1107444154
 H    2.9074843367    2.2728620068    1.5225814875
 H    1.2651915701    1.9719423787    2.2592662533
 H    2.0072640741    1.7382982759   -0.7404618311