23

 C   -0.0417389308    1.5643463791    0.0026390778
 C    0.0119719647    0.0354809831    0.0048069588
 C   -1.3748301119   -0.5926495781   -0.0803730894
 O    0.7520205849   -0.4439868427   -1.1261280466
 C    2.1046586279   -0.6140568134   -0.9465119181
 C    2.8417364760   -1.6002476126    0.0237010894
 C    3.9429714052   -0.9097002306   -0.8289372455
 C    3.0319598132   -1.1231061236   -2.0734980121
 C    3.2107257598    0.4412987776   -0.5979096945
 H    0.9606889110    1.9974573600    0.0449610122
 H   -0.5312358673    1.9220164902   -0.9088647719
 H   -0.6077013917    1.9310941572    0.8654454159
 H    0.5064879935   -0.3106765907    0.9237321630
 H   -1.8661509534   -0.2963763502   -1.0127001236
 H   -1.3046948512   -1.6833919370   -0.0631895054
 H   -1.9999482756   -0.2683308759    0.7572819682
 H    2.8311706912   -1.3597537139    1.0904225105
 H    2.6794318594   -2.6668638238   -0.1533528138
 H    5.0139639365   -1.0847198602   -0.7661335431
 H    2.8787612320   -2.1549800670   -2.4004083635
 H    3.1864759667   -0.4469966687   -2.9184575925
 H    3.3850068953    1.2278303488   -1.3372707676
 H    3.2228519446    0.8324964523    0.4232340818