16

 N    0.3275005174    0.5023359687   -0.7425200284
 C   -0.1851877793    0.2395901324    0.4852039736
 O    0.1272788561    0.8192137690    1.5048581785
 C   -1.2962779361   -0.8320974519    0.5018016456
 C   -1.0211416900   -2.0681290183   -0.3381523275
 O   -0.6533937722   -2.0149229404   -1.5009235019
 N   -1.2314760384   -3.2655196505    0.3046876272
 C   -1.0653617639   -4.5084434784   -0.2961572972
 N   -1.2908635996   -5.5633923106    0.3708087540
 H    1.1069626066    1.1381353090   -0.7941099896
 H    0.1487399508   -0.1461161425   -1.4978910311
 H   -1.4876274057   -1.0694275760    1.5487241253
 H   -2.2012303032   -0.3674982787    0.0908441108
 H   -1.5284499675   -3.2779470658    1.2701886126
 H   -0.7411046968   -4.4253530556   -1.3346006958
 H   -1.1256341283   -6.3888396803   -0.2021891761