19

 C   -0.5637185636    1.3841633514    0.0672601525
 C    0.0704284637    0.0020363443    0.0105944065
 C    1.3903155867   -0.1913205845   -0.8061279238
 C    2.0776645652   -0.7831747897    0.4473747352
 C    2.9083022213   -2.0328679104    0.3872032653
 O    2.7460438457    0.2919400798    1.2076902007
 C    1.6400784551    0.4879282102    2.0031377102
 O    1.5269176301    1.2599166964    2.9017588071
 C    0.7907445794   -0.5535249836    1.2894624853
 H    0.1530008342    2.1429403797    0.3965570686
 H   -0.9330397033    1.6769025922   -0.9213938216
 H   -1.4096063717    1.4040181645    0.7621186813
 H   -0.6742982255   -0.7321800965   -0.3091583137
 H    1.2989832986   -0.8907021029   -1.6404117773
 H    1.8666439658    0.7255169922   -1.1605157202
 H    3.8208812889   -1.8579375370   -0.1926036863
 H    3.1974133490   -2.3586703947    1.3905863932
 H    2.3490514419   -2.8400800635   -0.0955878441
 H    0.2830736284   -1.2964807979    1.9022252514