18

 O   -0.0110193149    1.4290744341    0.1907110050
 C   -0.0279306291    0.0622573370   -0.1642361559
 C   -1.3854995294   -0.5683378663   -0.0309100972
 C   -1.9026267216   -1.6934427932   -0.8416349156
 N   -2.5403181009   -0.3743618229   -1.0107181517
 C   -3.4784620359   -0.2288549419    0.1636560643
 C   -2.3127802430   -0.3517825610    1.1440348170
 C   -2.1841145217   -0.7017637724    2.5592616167
 O   -2.0434859190    0.6606841528    2.1099057457
 H   -0.4227905965    1.5006542777    1.0613573234
 H    0.2976648618   -0.0022924044   -1.2080003862
 H    0.6917922690   -0.5234450566    0.4357696468
 H   -1.3191835036   -1.9968344099   -1.7062198274
 H   -2.4597525422   -2.4999370447   -0.3675859002
 H   -3.9177637181    0.7706712080    0.1759544264
 H   -4.2683687509   -0.9858692837    0.2016451256
 H   -3.0751812601   -0.8932854143    3.1545235707
 H   -1.2710469338   -1.1699471682    2.9235043026