18

 C    0.6338724300    1.2219437570   -0.1754288427
 C    0.0850909642   -0.1578125041   -0.0345637132
 N   -1.0820138291   -0.5143234213   -0.5485819916
 N   -1.1659629303   -1.8219290204   -0.1808307455
 C   -0.0745262789   -2.1928127178    0.5221227742
 N    0.7404280573   -1.1561728810    0.6324226371
 C    0.1383684642   -3.5422469613    1.0624083244
 C    1.5502054902   -4.0971571195    1.1136657028
 C    0.8677691154   -3.6959408873    2.3846059937
 H    0.7972817076    1.6758663352    0.8071213443
 H    1.6006239669    1.2036402242   -0.6884630555
 H   -0.0580789919    1.8454365656   -0.7439580670
 H   -1.9717064247   -2.3652438619   -0.4421415686
 H   -0.6608275427   -4.2466103471    0.8556277988
 H    1.6794119493   -5.1521320798    0.9000123936
 H    2.3298866152   -3.4464116990    0.7362295305
 H    1.1904362865   -2.7764762160    2.8582126440
 H    0.5203194308   -4.4706469655    3.0587114406