19

 C   -0.0481046674    1.5577115438    0.0150441467
 C    0.0571648506    0.0298940055    0.0744680250
 C    0.7858426708   -0.4541862258    1.3312428512
 C   -1.3633197619   -0.5789434953   -0.0163895618
 C   -1.4047544593   -2.0333535437    0.0542291520
 C   -1.4492792272   -3.2320244053    0.1218337204
 O    0.7066233925   -0.4689414191   -1.1330139492
 C    1.9867262066   -0.1626369366   -1.3949370312
 O    2.5431266331   -0.5365405979   -2.3859393103
 H    0.9352122746    2.0319230741    0.0729822901
 H   -0.5279463620    1.8728851007   -0.9158322595
 H   -0.6431003842    1.9280380253    0.8552256292
 H    0.2071173414   -0.1831162685    2.2197051931
 H    0.8952085297   -1.5403633971    1.3112082686
 H    1.7741556375    0.0015637284    1.4306850156
 H   -1.9679985041   -0.1519196806    0.7928936119
 H   -1.8116793899   -0.2436656137   -0.9586293506
 H   -1.4872988465   -4.2922678828    0.1679592208
 H    2.4714606457    0.4587085186   -0.6217435219