17

 C    0.2837727165    1.5406950971   -0.4587589710
 N    0.0578378127    0.1444076706   -0.1049750929
 C    1.2238881426   -0.7177673501   -0.0072124911
 C    0.4773326441   -0.3376052032    1.2284267337
 C    1.0772439951    0.5346132046    2.2580722795
 N    2.2279504348    1.2051495029    2.1102093489
 N    2.3602922131    1.8465104573    3.2636895807
 N    1.4095189029    1.6554571429    4.1660211611
 C    0.5762561436    0.8221419831    3.5445750015
 H    1.2234209078    1.9596629240   -0.0732447124
 H    0.2904922465    1.6169780499   -1.5505976967
 H   -0.5476476936    2.1447803765   -0.0815341757
 H    1.1165584679   -1.7191346636   -0.4169846424
 H    2.2073192548   -0.2683857810   -0.1332839612
 H   -0.2274639710   -1.0531705493    1.6460235314
 H    3.1525764072    2.4404675622    3.4483079649
 H   -0.3208351249    0.4692799061    4.0280024016