23

 C    0.0377069291    1.5774599633    0.0707817602
 C    0.0055431900    0.0400359974    0.0101236611
 C    0.7499027244   -0.5255098952    1.2350031158
 C   -1.4492114710   -0.4643293633    0.0168513893
 C    0.7034511199   -0.4930682653   -1.2600384306
 C    0.1112387970   -0.0950672460   -2.6233480716
 O    1.2497409847   -0.0711026142   -3.4729504537
 C    2.2867899961    0.4280742918   -2.6699096880
 O    2.0531536513   -0.0155014793   -1.3458616001
 H    1.0646317108    1.9442190352   -0.0051477360
 H   -0.5511336405    2.0386000587   -0.7284938160
 H   -0.3792481869    1.9253953305    1.0215996735
 H    0.2814799778   -0.1831395621    2.1638393938
 H    0.7338245130   -1.6211767885    1.2355422039
 H    1.7947280314   -0.2040268108    1.2370856746
 H   -2.0288250218   -0.0508431627   -0.8157332105
 H   -1.4933556141   -1.5572960832   -0.0503207327
 H   -1.9511692716   -0.1700223875    0.9443081662
 H    0.7360780558   -1.5913406808   -1.1932033609
 H   -0.5965457633   -0.8244282254   -3.0208168870
 H   -0.3717075051    0.8923540493   -2.5892622178
 H    3.2383009552    0.0307518546   -3.0406003641
 H    2.3080385279    1.5326488935   -2.6886008494