20

 C   -0.2425198323    1.5295311619    0.1086039056
 C    0.0224021719    0.0235345215   -0.0028552090
 C    0.8384302506   -0.3593563785   -1.2747449297
 C    2.3627186497   -0.4658539981   -1.0065499051
 C    2.6007821369   -0.8750960836    0.4458948218
 C    1.5028254850   -1.8203424343    0.9817460738
 C    0.7799876812   -0.4813275632    1.2333273414
 O    2.0721749390    0.1920319125    1.2875491820
 H    0.6998528800    2.0781904159    0.1882528564
 H   -0.7874172126    1.8975459848   -0.7664291788
 H   -0.8399624688    1.7618646966    0.9974736656
 H   -0.9437411421   -0.4977729751   -0.0439043025
 H    0.4821663845   -1.3282611135   -1.6393823486
 H    0.6405267959    0.3541262703   -2.0806947037
 H    2.8204188794   -1.1838151385   -1.6975386011
 H    2.8634694870    0.4958740136   -1.1613227093
 H    3.6481662897   -1.0955003019    0.6706132097
 H    1.0508992766   -2.5499108703    0.3062698479
 H    1.8019347598   -2.3015297843    1.9139889639
 H    0.2121258684   -0.3490774858    2.1597811696