21

 C   -0.1905190767    1.5355141311    0.0657295893
 C    0.0676283064    0.0331523984    0.0049977233
 C    0.8673767305   -0.5226682800   -1.1877068192
 C    2.2051547358    0.2180246483   -1.3238964143
 C    3.0053480658    0.0642041783   -0.0187295693
 O    2.2036633603    0.1915913021    1.1565541353
 C    0.9794216002   -0.5377254778    1.1095852960
 C    1.1520782489   -1.9767465923    0.6081092844
 O    1.1064485919   -1.8944905423   -0.8243354531
 H    0.7314020252    2.0968965932    0.2301901275
 H   -0.6573054684    1.8959496510   -0.8572332713
 H   -0.8703701746    1.7714676533    0.8909886117
 H   -0.8896010149   -0.5020059236    0.0368191200
 H    0.3112677484   -0.5280619658   -2.1291235217
 H    2.7847849575   -0.2029692380   -2.1518333116
 H    2.0213140608    1.2727748930   -1.5542724718
 H    3.5087041804   -0.9125434193   -0.0224197568
 H    3.7792912248    0.8316014691    0.0681892365
 H    0.5611875224   -0.4839569835    2.1173535617
 H    2.1011307388   -2.4194668846    0.9307847292
 H    0.3340875766   -2.6149089407    0.9676900241