20

 C   -0.1920274927    1.5526408485   -0.0212633105
 C    0.0299562947    0.0420027180   -0.0077182799
 C    0.8986282637   -0.5092395854   -1.1895890461
 C    1.9616489223   -1.3421181232   -0.4535223705
 C    1.1922474931   -1.9216080881    0.7413216825
 C    0.7953427986   -0.5139424583    1.2393773836
 C    2.1605018420    0.1357429277    1.2537165127
 N    2.5961665660    1.0102767933    2.0526052938
 O    2.8606729875   -0.3994283616    0.1964556857
 H    0.7561295643    2.0969109930    0.0187636999
 H   -0.7212766320    1.8568005499   -0.9303549900
 H   -0.7908153968    1.8711022824    0.8381779219
 H   -0.9472288664   -0.4538131037   -0.0227060449
 H    0.3156595210   -1.1252131168   -1.8803253301
 H    1.3729575655    0.2893470828   -1.7660544945
 H    2.5668236414   -2.0136734980   -1.0607116696
 H    0.3386601011   -2.5394366816    0.4515181564
 H    1.8345023982   -2.4730692954    1.4319757784
 H    0.2637640250   -0.4236137357    2.1840443772
 H    3.5535898834    1.2714785322    1.8066528241