18

 O   -0.4812808775    0.2501134976    0.3688282998
 C   -0.1470772055    1.3449908910   -0.0096655159
 C    1.2666740818    1.8264547642   -0.0555475900
 C    1.4993106560    3.2712576279    0.2953490660
 N    1.4656609178    2.8641889772   -1.0917455616
 C    2.7302258293    2.8593324138   -1.8377334938
 C    3.8643982491    2.0810166066   -1.2266141950
 C    3.6873172520    1.1586301174   -0.2846250104
 C    2.3384558423    0.8006637541    0.2699042391
 H   -0.8826623369    2.0989415250   -0.3665778987
 H    0.6763805264    3.9023235695    0.6233938635
 H    2.4609496352    3.4854680994    0.7584247853
 H    2.5109135950    2.4618540253   -2.8386572392
 H    3.0213523517    3.9064550211   -1.9894723732
 H    4.8580448258    2.2893313440   -1.6147324023
 H    4.5380990166    0.6087014115    0.1081057859
 H    2.3942516595    0.6624980613    1.3569475303
 H    2.0139415114   -0.1728238168   -0.1205617997