16

 C   -0.1587425975    1.5247430305    0.0543760798
 N    0.0997653626    0.0894018022   -0.0275608043
 C    0.7217146635   -0.4612178140   -1.2189191597
 C    2.2469309946   -0.3559756446   -1.1513362466
 O    2.8198277601    0.6022640637   -0.2805829389
 C    2.2991317472    0.4156444590    0.9788164900
 O    2.6574246595    1.0456761033    1.9288796476
 C    1.1447481863   -0.5746697885    0.8262207739
 C    1.5462971937   -1.4348010879   -0.3914706003
 H    0.7090670981    2.1613056650   -0.1692018200
 H   -0.9537379646    1.7649404177   -0.6588540000
 H   -0.5220185744    1.7652449580    1.0575792830
 H    0.1740560549   -0.5856161993   -2.1471535117
 H    2.8611142742   -0.5598756868   -2.0183877096
 H    0.7849784425   -1.0041625127    1.7587413821
 H    1.6967227392   -2.5027150457   -0.4477325054