15

 C    0.5162302172    1.4754732824    0.1292503370
 O    0.7608111198    0.0862940344    0.0766794757
 C   -0.0079727141   -0.6371867324    1.0014314662
 C    0.3394370564   -2.0736252285    0.8471184070
 C    1.1772493191   -2.7351800990    0.0557485982
 O    1.0914687072   -4.0870524671    0.3483679518
 C    0.1720560724   -4.2324209602    1.3465118798
 O   -0.1626529106   -5.2525063936    1.8540196248
 O   -0.3038171204   -2.9837835589    1.6658669246
 H    0.7589330614    1.8920526084    1.1184894019
 H    1.1568531648    1.9430655127   -0.6208951500
 H   -0.5343204230    1.7104850095   -0.0991196763
 H    0.1918693271   -0.3131693611    2.0383299427
 H   -1.0899302482   -0.4936928395    0.8315243326
 H    1.8599026608   -2.4293082570   -0.7144551261