18

 O    0.0641700968    1.3748159074   -0.2061254116
 C    0.0741209977   -0.0284551750   -0.0055003279
 C    0.7486343010   -0.4373572656    1.3294496188
 C   -0.2580018971   -0.4702316081    2.5082535573
 C   -1.6446216450   -0.8302376872    1.9782794544
 C   -1.5864999914   -1.8242114827    0.7960015601
 C   -1.3784785922   -0.5293476311   -0.0098201570
 O   -2.0504468412    0.2265279093    1.0468621432
 H   -0.6456549893    1.7052374070    0.3625591193
 H    0.6346041342   -0.4526320575   -0.8462999818
 H    1.1914657566   -1.4319358985    1.2073327123
 H    1.5744192216    0.2506655186    1.5270791848
 H    0.0652351027   -1.1862294706    3.2726030160
 H   -0.3321159220    0.5078635767    2.9962665274
 H   -2.3892883092   -0.9839719142    2.7633439943
 H   -0.8073193053   -2.5882832055    0.7830995841
 H   -2.5597932130   -2.2735779918    0.5942497565
 H   -1.8666416350   -0.3996942209   -0.9786942103