23

 C    0.2275893633    1.5515855067    0.1435605969
 C    0.0954946727    0.0347115009   -0.0229924893
 C    0.5979408469   -0.5041317420   -1.3829432232
 C   -0.2064198041    0.0611667222   -2.5639439855
 O    1.9746307763   -0.1099378106   -1.5534386726
 C    2.8272925593   -1.2474493971   -1.6138553809
 C    1.9065927269   -2.4269455549   -1.5224075273
 C    0.6451141036   -2.0262485137   -1.3943769313
 C   -0.5806149322   -2.8755336801   -1.2741688323
 H    1.2557576586    1.8661106929   -0.0526216979
 H   -0.4309875408    2.0979971912   -0.5385226119
 H   -0.0355552912    1.8508299291    1.1628136879
 H    0.6727282824   -0.4685018343    0.7617237087
 H   -0.9506413999   -0.2670236103    0.1142455768
 H   -0.0629917582    1.1416745644   -2.6388560006
 H    0.1314468632   -0.3909813410   -3.5005626647
 H   -1.2773715210   -0.1354079889   -2.4480911049
 H    3.4043355995   -1.2306352575   -2.5523644952
 H    3.5591554850   -1.2181085686   -0.7898559056
 H    2.2516625856   -3.4536708475   -1.5569769357
 H   -0.3293869074   -3.9387607109   -1.3081883645
 H   -1.1123905577   -2.6841224751   -0.3344697230
 H   -1.2913288808   -2.6701534550   -2.0837804841