20

 C   -0.1108100421    1.4406836234    0.1134917822
 C   -0.1992244858   -0.0703221488    0.2259837872
 O    0.8891737826   -0.5190566713    1.0326618373
 C    0.9107459790   -1.9011145235    1.2160022456
 C    2.0134040869   -2.3794826956    2.1783848103
 O    1.0101412631   -2.9756323055    3.0563538191
 C   -0.0258165307   -2.4951284751    2.2669630579
 N   -1.2647431874   -2.5367503717    2.4271464286
 C   -1.8090122978   -3.1632104799    3.6253150215
 H    0.8411978948    1.7406708258   -0.3340086445
 H   -0.9240511366    1.8204455191   -0.5119832348
 H   -0.1877028398    1.9045443142    1.1008405635
 H   -1.1491546328   -0.3815172690    0.6789478640
 H   -0.1352836542   -0.5415160758   -0.7689508445
 H    0.8758008531   -2.4383368017    0.2563021748
 H    2.7110446932   -3.1325945463    1.8065793692
 H    2.5409322453   -1.5614522607    2.6737010874
 H   -2.5042929691   -2.4667191365    4.1055098034
 H   -2.3897075286   -4.0463529112    3.3361131517
 H   -1.0494344031   -3.4667285599    4.3547467300