15

 O    0.2781723717    0.1235540757   -0.2134749067
 C    0.4132504884    1.2962869010   -0.3738619715
 O    1.0340608413    2.0827552036    0.5419197283
 C    1.0546759629    3.4714476441    0.2805314520
 C    2.2152390231    4.2687953735    0.7117543907
 C    3.5097790205    3.4502296803    0.5704818222
 C    3.2050605695    3.3550270864   -0.9430371954
 O    3.8469141980    3.0027273315   -1.8885565114
 C    1.8963580909    4.0915520045   -0.8180044006
 H    0.0648869098    1.8611204916   -1.2575747916
 H    0.0802256536    3.9377433268    0.4035976719
 H    2.1094344319    5.1712275160    1.2985096235
 H    4.4180770608    4.0353100038    0.7355673844
 H    3.5609870442    2.5173764982    1.1344305893
 H    1.4626719934    4.7657484629   -1.5467316450