15

 C    0.0031033365   -1.2494153616   -0.0874765979
 C    0.0108754700   -0.0476292521   -0.0316478134
 C    0.0288099764    1.4013418761    0.0597549647
 C   -0.2142065312    2.0722167875    1.4689268355
 C    1.1367324744    2.7825318989    1.3431195405
 C    2.2377489072    1.7723220557    1.1811677335
 C    1.3939926203    2.1203304648   -0.0100921976
 H   -0.0057202686   -2.3094478748   -0.1462393121
 H   -0.6665064504    1.8244674455   -0.6710692354
 H   -1.0733346628    2.7453074905    1.4476455437
 H   -0.3203504087    1.3842795408    2.3122096491
 H    1.3345882254    3.8033836497    1.6453545964
 H    3.2439523798    2.1784051066    1.1631049011
 H    2.1599050662    0.7894979734    1.6399190924
 H    1.8160017954    2.5355916691   -0.9169010004