17

 O    0.3250944220    1.4301279344   -0.1843789691
 C    0.0955679997    0.0552295769   -0.0702427213
 C    0.0838708791   -0.6386654324    1.3387985372
 C   -1.3881486336   -0.1911551254    1.6104015803
 C   -2.0621998014   -1.5934575792    1.6915519443
 C   -3.2321902733   -1.5052938101    0.6819837823
 C   -2.7714643893   -0.8055887960   -0.3667405388
 C   -1.3474832720   -0.5030532748    0.0681339588
 C   -0.8046502665   -1.7875925628    0.7916399646
 H   -0.2070318759    1.8834686148    0.4789150657
 H    0.7209444921   -0.4238985764   -0.8299314254
 H    0.9035928545   -0.7106648846    2.0532279265
 H   -1.7394680866    0.7403380289    2.0634509739
 H   -2.2207270003   -2.1326166669    2.6269795953
 H   -4.2170237881   -1.9311617768    0.8198847236
 H   -3.2734019140   -0.5227197686   -1.2801011584
 H   -0.4734893464   -2.6916030208    0.2752749907