17

 C   -0.1202634156    1.5789117379   -0.0114976299
 C    0.0793499924    0.0951669624   -0.0268367396
 C    0.2116666094   -0.7928538005   -1.0869464063
 C    0.1232858819   -1.3620061915   -2.5059334538
 O    1.0606080140   -0.9708592751   -3.4672095347
 C    0.3147602782   -2.7839529853   -1.8042787389
 N    0.3886579315   -2.0157611092   -0.5549861159
 N    0.3589026066   -2.0762426734    0.7749050104
 C    0.1950974343   -0.7766351398    1.0928275007
 H   -0.4135257172    1.9181511404    0.9859994204
 H    0.7921420696    2.1213799193   -0.2855533460
 H   -0.9027475382    1.8909304513   -0.7110759738
 H   -0.8567239819   -1.2608027849   -2.9785247534
 H    1.9159874891   -0.8778668083   -3.0326389320
 H   -0.5393527968   -3.4640384403   -1.8608338220
 H    1.2375025554   -3.3062785535   -2.0709993852
 H    0.1648989472   -0.4906400896    2.1356326702