17

 O   -0.0753642861   -0.0109524938   -0.0314723013
 C    0.0340907720    1.1891079712   -0.0359892751
 C    1.3564077926    1.9205851890   -0.1363520504
 C    1.3938543680    2.9068408805   -1.3092032844
 O    0.3180965020    3.8360376790   -1.1508495447
 C    0.7022080525    5.1292352362   -1.6085194592
 C    2.2124584629    5.1472680907   -1.5469551298
 O    2.7240644075    4.6946752055   -0.2873828828
 C    2.6461874193    3.7614789649   -1.3694133078
 H   -0.8536402803    1.8516041831    0.0362916971
 H    1.5049202013    2.5040151586    0.7810153470
 H    2.1576758066    1.1817556770   -0.2285163283
 H    1.2967651146    2.3629431908   -2.2637886376
 H    0.3724297492    5.3081302723   -2.6442576013
 H    0.2274672346    5.8696013383   -0.9567208687
 H    2.7927645115    5.9053687714   -2.0647292459
 H    3.5848562418    3.3582672353   -1.7385330668