19

 O   -0.2211513738    1.4551979437   -0.4581486317
 C    0.0025699763    0.0633123471   -0.3470285334
 C   -1.2543192272   -0.6217659422    0.1621784678
 O   -2.3439367644   -0.4642735358   -0.7924725023
 C   -2.6029058346   -1.8836550913   -0.7892112351
 C   -1.8427023812   -2.6398180642   -1.9079565843
 C   -0.7792859325   -3.0753665833   -0.8482326967
 O    0.5942479240   -3.0226077168   -1.1281421461
 C   -1.4452301150   -2.1556978631    0.2175174380
 H   -1.0097726442    1.5593431458   -1.0045319440
 H    0.2998297634   -0.3527683020   -1.3229141253
 H    0.8324156027   -0.0794959956    0.3528104970
 H   -1.5304519012   -0.1452892592    1.1125566455
 H   -3.6551924724   -2.1172667039   -0.6175682958
 H   -2.3720795896   -3.4600566134   -2.3982255348
 H   -1.4705274568   -1.9509504594   -2.6711300196
 H   -0.9654962589   -4.1115611650   -0.5490427954
 H    0.7933106465   -2.1840571419   -1.5550215618
 H   -1.5732875210   -2.5726462995    1.2156293481