20

 C    0.0190597293    1.5844290003   -0.1229082557
 C   -0.0279078995    0.0761373596   -0.0026929080
 C   -1.2108688461   -0.5593656663   -0.0268377474
 C   -1.4625040950   -2.0396213774    0.0739738082
 C   -0.4884355354   -2.9187644177   -0.7292452535
 C    0.8938004446   -3.0812077760   -0.0935571299
 C    1.6828471359   -1.8295607943    0.1615544286
 C    1.2920541050   -0.5467589131    0.1764107803
 H    0.6180613557    1.8947458227   -0.9882703808
 H   -0.9797844522    2.0137989892   -0.2312944606
 H    0.4896410474    2.0358210653    0.7598836866
 H   -2.1007294591    0.0570803475   -0.1372810497
 H   -1.4467878888   -2.3540908991    1.1286546688
 H   -2.4833594064   -2.2368891554   -0.2723727731
 H   -0.9255030443   -3.9168539220   -0.8502901238
 H   -0.3814494381   -2.4995675161   -1.7361729841
 H    0.8011458638   -3.6332522749    0.8546749058
 H    1.4995345462   -3.7370627491   -0.7351286810
 H    2.7386083409   -2.0105073898    0.3594034534
 H    2.0831002263    0.1785936066    0.3642476657