14

 N   -0.0136465070    1.3873055459   -0.1243030153
 C    0.0158837765    0.0188246784   -0.0474120347
 C   -1.1714244279   -0.7416925314   -0.0240752690
 N   -1.2119213204   -2.0639114877    0.0004298882
 C   -0.0531636780   -2.7391511991    0.0031905099
 C    1.1784050219   -2.1070132328   -0.0123209413
 C    1.2256029144   -0.7080887556   -0.0345791032
 C    2.4630411940    0.0002488174   -0.0365691882
 N    3.4379075181    0.6269385293   -0.0303558722
 H    0.8308429252    1.8915156278    0.0989222132
 H   -0.8672402932    1.8502520461    0.1421579064
 H   -2.1281094887   -0.2208847541   -0.0277269808
 H   -0.1215950697   -3.8220838185    0.0207519054
 H    2.0998067347   -2.6768424059   -0.0028875983