18

 C   -0.0362329492    1.5716761227    0.0222248861
 C   -0.0090866872    0.0770458218   -0.0186929230
 C   -0.0478987396   -0.8117517795   -1.0717451900
 C    0.2329962635   -1.3164126147   -2.4824005753
 C    0.3924678941   -2.7300531673   -1.7950305171
 N   -0.0523294621   -2.0589169365   -0.5633952905
 N    0.0713812600   -2.1156792537    0.7851606740
 C    0.0307123443   -0.8166272233    1.1097495373
 N   -0.0559204521   -0.4228106252    2.4452267221
 H    0.8693163773    1.9913460702    0.4807862962
 H   -0.1107975267    1.9918283165   -0.9843349008
 H   -0.8892769228    1.9463423714    0.6013928269
 H   -0.5875256961   -1.2395419498   -3.1996208268
 H    1.1495271562   -0.9390342542   -2.9411959861
 H   -0.2622760883   -3.5374484632   -2.1340107658
 H    1.4283207782   -3.0799351789   -1.7538932640
 H    0.1906239709   -1.1780867935    3.0723679759
 H    0.4847725295    0.4060483272    2.6545985609