16

 C   -0.2777180907    1.4808993378    0.0517259102
 C   -0.0007270954   -0.0362883056    0.0240480850
 C    0.4550402052   -0.4319064674   -1.3127947731
 N    0.8297801788   -0.6972402025   -2.3729438037
 C    1.0329518839   -0.4632868645    1.0885788910
 C    0.5903805180   -0.0734897941    2.5021296533
 O    1.3523377448    0.2059837311    3.3864951416
 C    1.2330957718   -1.9842516630    1.1321681234
 O    0.4758350925   -2.7664652660    0.6255074003
 H    0.6382496546    2.0464191771   -0.1399670055
 H   -1.0110897160    1.7495022250   -0.7116407450
 H   -0.6717976210    1.7840397974    1.0258361657
 H   -0.9290224743   -0.5855304509    0.2206044523
 H    2.0100017347    0.0016880495    0.9193518015
 H   -0.5089098403   -0.1218280583    2.6671935967
 H    2.1235691834   -2.3076043055    1.7082035262