17

 C    0.0949750387    1.4001816288   -0.0930317719
 N    0.0545042309   -0.0380841329   -0.0008052614
 N    0.0201300979   -0.8086784053   -1.1366849228
 C    0.0303416630   -2.0480011773   -0.6792513121
 O    0.0007732972   -3.1128373347   -1.5110696707
 C    0.0780004575   -2.1424379956    0.7307570948
 C    0.1030920524   -3.3641092908    1.5932742952
 C    0.0932498591   -0.8095621135    1.1061055410
 O    0.1473413339   -0.2147354285    2.3201698215
 H    1.0361334656    1.7380185565   -0.5399432781
 H   -0.7341965289    1.7568585912   -0.7102754628
 H    0.0050693443    1.8156972547    0.9111057642
 H   -0.0059513766   -2.7630618429   -2.4110927984
 H    0.5467419878   -3.1569892471    2.5755770901
 H   -0.8948411591   -3.7852080048    1.7690780340
 H    0.7073042074   -4.1517038516    1.1329908302
 H    0.0923925789   -0.8985545960    2.9955512072