14

 C   -0.0424163168    1.4387383529    0.0512032099
 N    0.0044216076   -0.0187893612    0.1094330103
 C   -1.1965568252   -0.6852831583    0.0402243337
 N   -2.3711124619   -0.1276389419    0.0650423560
 N   -3.2445502963   -1.2118312167    0.0664564074
 C   -2.6302335384   -2.4364111048    0.0316181969
 O   -3.0962987070   -3.5548604305    0.0316471642
 N   -1.2733448595   -2.0585752214   -0.0079236423
 H    0.9727529679    1.8234280282    0.1665823012
 H   -0.4738023384    1.8183164951   -0.8842975108
 H   -0.6562421742    1.8067775080    0.8757741184
 H    0.7245123874   -0.4288059998   -0.4694254245
 H   -4.2351198962   -1.0577262224    0.1113570973
 H   -0.5215364990   -2.7194288273    0.0816477723