16

 N   -0.0325063420    1.4080747087    0.1404087643
 C    0.0023154319    0.0180072974    0.0449867715
 C   -1.1791189571   -0.7336630963    0.0369505340
 C   -1.1379448870   -2.1272786675    0.0031801516
 C   -2.4105885106   -2.8828096916   -0.0056559288
 O   -2.5014453701   -4.0879617726   -0.0375818173
 C    0.0862712475   -2.8041291488   -0.0244982326
 C    1.2599277770   -2.0631597382   -0.0180265682
 C    1.2236510819   -0.6711646976    0.0155626323
 H    0.7876018490    1.8821816150   -0.2081412757
 H   -0.8814779011    1.8396669276   -0.1939408201
 H   -2.1418520924   -0.2281549436    0.0607314739
 H   -3.3218074534   -2.2418648992    0.0199146965
 H    0.0877357151   -3.8868122401   -0.0518051348
 H    2.2212887710   -2.5659923695   -0.0416170811
 H    2.1512823705   -0.1058135139    0.0224377245