13

 C   -0.0389152543    1.4933603825    0.1065101186
 N    0.1595299954    0.0586492182   -0.0485586449
 C    0.6526209568   -0.7002550764    0.9596672084
 C    0.7082908932   -2.0656362662    1.1315765126
 O    1.3591897272   -2.3012983523    2.3021837736
 N    1.6870045013   -1.0688798108    2.8333917682
 N    1.2776202418   -0.1517670298    2.0598361718
 C    0.2313250199   -3.1256537741    0.3492632593
 N   -0.1886887303   -3.9597979336   -0.3390283672
 H    0.8789178406    1.9521873604    0.4781876808
 H   -0.2694087669    1.9167321040   -0.8725189339
 H   -0.8525661003    1.7368616657    0.8019807021
 H   -0.4396648144   -0.4182581277   -0.7034065594