12

 O    0.1985618597    1.3915431770   -0.2330446822
 C    0.0767125355    0.0061968038    0.0016655224
 C    0.6414167231   -0.5295642320    1.2962750118
 C   -0.2853751843   -1.2930446541    1.8832229838
 N   -1.4753436470   -1.3400012595    1.1358903221
 C   -1.4019154146   -0.4920188295    0.0414533751
 O   -2.3072930159   -0.1960882275   -0.6970801696
 H   -0.2544333168    1.8549490739    0.4800757635
 H    0.5569082752   -0.4735634519   -0.8617447522
 H    1.6501009074   -0.3624673133    1.6413623004
 H   -0.2207956013   -1.8637361044    2.7994428302
 H   -2.3539368808   -1.6970242125    1.4755174646