23

 C    0.0367739747    1.5166106326   -0.0238861422
 C   -0.0415357383   -0.0238996398   -0.0007751407
 C   -1.5293927023   -0.4359624272    0.0783065327
 C    0.6209701103   -0.5845321494   -1.2804857145
 C    1.0104519964   -2.0544084672   -1.1564107784
 O    1.5337616021   -2.4570515697   -2.4174208928
 C    2.0259785110   -2.2394384150   -0.0229854915
 C    1.6030018576   -1.5029888698    1.2219978103
 C    0.6863050911   -0.5363454744    1.2252171272
 H    1.0763503708    1.8590071254   -0.0282177063
 H   -0.4562827502    1.9159450178   -0.9172206783
 H   -0.4578636804    1.9494431295    0.8527383690
 H   -2.0930714636   -0.0105185424   -0.7597701053
 H   -1.6510187194   -1.5226358805    0.0548212908
 H   -1.9846481715   -0.0732778914    1.0062857028
 H   -0.0459149502   -0.4585183740   -2.1403601656
 H    1.5333639879   -0.0166376239   -1.5011084753
 H    0.1120880426   -2.6466832234   -0.9188413846
 H    1.7916710111   -3.3820257646   -2.3498320299
 H    2.1589411751   -3.3075483938    0.1986619237
 H    3.0044549169   -1.8785282126   -0.3719796531
 H    2.0819664956   -1.7920865680    2.1545820795
 H    0.4199890525   -0.0562103682    2.1659495226