23

 C   -0.1393405909    1.4873262850   -0.0020770984
 C    0.0376115833   -0.0272311314    0.0263325097
 C    1.2130915625   -0.5851874065   -0.8348386654
 C    2.1280868075   -0.4205553045    0.4166976999
 C    0.8169832228   -0.5918910000    1.2442357505
 O    0.6369080191    0.1329796064    2.4365602650
 C    0.4789183182   -2.0845734422    1.3964081937
 C    0.9533763204   -2.9005571362    0.1676756519
 C    0.9585830927   -2.0702123445   -1.1396772983
 H    0.8065934432    2.0203219325    0.1303505131
 H   -0.5678378971    1.8011347647   -0.9603801051
 H   -0.8122766489    1.8133902989    0.7960630979
 H   -0.9326335125   -0.5082523269   -0.1504656642
 H    1.4766449540   -0.0182382914   -1.7312241726
 H    2.9462587160   -1.1306040749    0.5675448856
 H    2.5155922335    0.5950717437    0.5107192372
 H    1.0982193243   -0.3281648154    3.1452439853
 H    0.9616712671   -2.4806866411    2.3009767206
 H   -0.6021310677   -2.1782380156    1.5525378804
 H    1.9737721483   -3.2468974966    0.3595853513
 H    0.3498041693   -3.8058223344    0.0516721376
 H    0.0001570549   -2.1630389309   -1.6653849349
 H    1.7239808101   -2.4665581787   -1.8167585507