23

 C   -0.1322165243    1.5429435503    0.0056446657
 C   -0.0268937522    0.0137436495   -0.0001639812
 C   -1.4089170080   -0.5482751445   -0.3519125834
 C    1.2275127369   -0.6372033463   -0.6720530511
 C    2.1204479994   -0.1619871975    0.5244475398
 C    3.2256616835   -1.1860602589    0.7750752643
 C    2.4256567908   -2.4963784061    0.5510723253
 C    1.0535374428   -1.9094686659    0.2257081184
 C    0.7790568203   -0.6750945188    1.1507811900
 H    0.8015269920    2.0525770786    0.2471244765
 H   -0.4610226415    1.9047677166   -0.9757487861
 H   -0.8837852819    1.8691656532    0.7342653108
 H   -1.7326407406   -0.1754732073   -1.3308871902
 H   -1.4510476592   -1.6377746078   -0.3855693460
 H   -2.1531596283   -0.2120307502    0.3796616771
 H    1.4978469691   -0.6210660712   -1.7319723071
 H    2.3919152402    0.8880191325    0.6130469626
 H    4.0588236510   -1.0710235994    0.0738860379
 H    3.6374787482   -1.1065680564    1.7865801935
 H    2.8199717131   -3.1000916817   -0.2730034419
 H    2.3986591806   -3.1356543581    1.4396980927
 H    0.2529455714   -2.6153905047    0.0140822050
 H    0.5268854364   -0.7030408962    2.2149221972