14

 N    0.1251759647    1.4447064995    0.1280375907
 C   -0.0317622707    0.0518784309    0.0298782923
 C   -1.1893753466   -0.6284007217   -0.0155179075
 N   -1.1637246886   -2.0255870049   -0.0076713323
 C   -0.0375607709   -2.8164024116   -0.0404791525
 O   -0.0787498242   -4.0270206607   -0.0643644301
 C    1.2848801466   -2.0449118718   -0.0101128611
 O    2.3603131666   -2.5963531972   -0.0033333115
 N    1.1593478580   -0.6662277600    0.0433748304
 H    0.5997388797    1.8433642330   -0.6771724862
 H   -0.7619075572    1.9156625938    0.2503263696
 H   -2.1567616896   -0.1539265647   -0.0702115778
 H   -2.0344423362   -2.5373252621   -0.0110315201
 H    2.0241341984   -0.1591089827    0.1789153761