18

 C   -0.1407928338    1.5102349762    0.0048252602
 C    1.3957322758    1.5084939661   -0.2103290238
 C    1.4612211087    0.1437633261    0.5440901942
 C   -0.0653497658   -0.0179026219    0.2623309224
 C    2.4076579361   -0.9068855113    0.0768226738
 N    3.2532337273   -1.4552817315    0.9206190118
 O    3.9861488851   -2.3846974929    0.1846366252
 C    3.5550015548   -2.3644034928   -1.0836018209
 C    2.5594638728   -1.4578668644   -1.2339715761
 H   -0.4219160502    2.0590037139    0.9080157042
 H   -0.7681484433    1.8554368062   -0.8196644821
 H    1.6553125337    1.3903276955   -1.2667154323
 H    1.9809034237    2.3335491608    0.2015563959
 H    1.6338554944    0.3086970217    1.6103943899
 H   -0.6767384262   -0.4428991999    1.0613130440
 H   -0.2409809055   -0.5907421926   -0.6532598159
 H    4.0487011423   -3.0460996677   -1.7591528841
 H    2.0154430700   -1.2147300514   -2.1312632363