16

 O    0.1239607358    0.6919323014    1.6061527081
 C    0.0783266633    1.4281211808    0.6494494116
 N    1.1137066814    1.6966042612   -0.2102331734
 C    2.3883701255    1.0865585873   -0.1604415488
 C    3.1248954035    0.8812467871    1.1044843958
 C    3.7751036676    1.7819086829    0.0538216234
 C    4.3264265364    0.9333554598   -1.0491615737
 O    5.3594087021    0.9283994759   -1.6554410470
 C    2.9781594512    0.1876919926   -1.2637136184
 H   -0.8290186801    1.9954279316    0.3606356831
 H    0.9049333504    2.2855416498   -1.0031543303
 H    2.7456789163    1.4212996059    1.9634184339
 H    3.5466047839   -0.0916838663    1.3378517083
 H    4.0243168595    2.8107879749    0.2826821992
 H    2.9465843857   -0.8935462106   -1.1008091656
 H    2.5906511774    0.4132056656   -2.2624910462