11

 N   -0.0562300339    1.2139263755   -0.0246780424
 C   -0.0668151920   -0.0360658031    0.0410812605
 O    0.9902818533   -0.9434042580    0.1750276447
 C    0.0657102314   -2.0453462798   -0.0226550156
 C   -0.9061589936   -2.0818432288    1.0975077557
 C   -1.1112005260   -1.0984683883   -0.0626927594
 H    0.8935306785    1.5806410936    0.0555776451
 H    0.3777406250   -2.8473941943   -0.6763743132
 H   -1.6068358535   -2.9113098968    1.0969974243
 H   -0.6099389796   -1.7208870953    2.0771723453
 H   -2.0015687196   -1.0755292445   -0.6723843850