23

 C   -0.0250161037    1.4874735562   -0.0068663377
 C    0.0044158313   -0.0186627608   -0.0012601379
 C   -0.2873850943   -0.8904465308   -1.2018470653
 C    0.7684652082   -1.9846228326   -1.3395163929
 C    1.8161993603   -1.6482115264   -0.2484173177
 C    1.0642630720   -0.8074902895    0.8105003679
 C    0.2365764037   -1.6716079948    1.7911985056
 C   -1.0782023322   -2.0119392129    1.0448993863
 C   -1.2212458949   -0.9042647501    0.0039483393
 H    0.9097523750    1.9080282457   -0.3973252927
 H   -0.8410723482    1.8624661527   -0.6336564943
 H   -0.1723354515    1.8920641369    1.0019533175
 H   -0.6869932779   -0.4419413745   -2.1065058007
 H    0.3435175757   -2.9856463373   -1.1991869022
 H    1.2120784414   -1.9756559483   -2.3395616895
 H    2.2955968064   -2.5353589180    0.1788185510
 H    2.6098592985   -1.0354659515   -0.6908910834
 H    1.7511180990   -0.1491377005    1.3500047011
 H    0.7799922928   -2.5578238380    2.1357318786
 H    0.0000250534   -1.0741388789    2.6790100945
 H   -1.0376146310   -3.0060797781    0.5840784840
 H   -1.9354548445   -2.0221786149    1.7245891302
 H   -2.2020367994   -0.4643672335   -0.1502989316