18

 O    0.1385774837    0.0065285699   -0.0623163294
 C    0.0779201948    1.1936057730    0.0695686896
 C   -1.1125402748    2.1890377120    0.2122749527
 C   -0.0887380711    3.3108742603   -0.0588168640
 N    0.8379020841    3.2319745101    1.0783114776
 C    1.0598159664    2.3226960950   -0.1058767690
 C   -0.2808181833    4.5516262366   -0.8447193412
 C   -1.3346879000    4.6605004719   -1.9213086902
 C   -1.5032542564    5.4176674643   -0.6309662546
 H   -1.8361805614    2.0179776224   -0.5890856252
 H   -1.6169872323    2.2312286579    1.1794385870
 H    1.5218904673    3.9836547138    0.9723851776
 H    1.9987773957    2.3422586724   -0.6454631734
 H    0.6478507586    5.0833367061   -1.0396857565
 H   -1.0783205712    5.2137022205   -2.8175710478
 H   -1.9805052680    3.8081095573   -2.0981968309
 H   -2.2515003008    5.0608728314    0.0683225718
 H   -1.3735930012    6.4939395651   -0.6363061341