19

 O   -0.1300074531    1.4572129977    0.0388659703
 C   -0.0274229978    0.0285472366    0.0551842434
 C    0.8820955964   -0.5019551737    1.1825745136
 C    2.2552489965   -0.7558858206    0.4911686356
 C    1.8835874647   -0.9051222356   -0.9744842395
 C    0.6389783920   -0.4952556748   -1.1989323281
 C   -0.4031520541   -0.5535589806   -2.2699891478
 O   -1.6543572169   -0.4835199858   -1.5712290870
 C   -1.4432567515   -0.5053015994   -0.1539894463
 H    0.7399817342    1.8111850776   -0.1759741219
 H    0.9346463046    0.2038878941    2.0145071924
 H    0.4926184755   -1.4486046554    1.5698586355
 H    2.9636012387    0.0689860854    0.6512184195
 H    2.7505744835   -1.6532976053    0.8779611131
 H    2.5643063403   -1.3228537213   -1.7089835877
 H   -0.3524611633    0.2916814375   -2.9693155512
 H   -0.3457274036   -1.4799415750   -2.8577844244
 H   -1.5323608939   -1.5297407854    0.2373370961
 H   -2.2073564123    0.1265286440    0.3058438343