16

 C    0.0137307699    1.4454114694    0.0354475930
 N    0.0012613694   -0.0023864685   -0.0050844869
 C   -0.0040506936   -0.7804196035   -1.1427808669
 C   -0.0133929529   -2.0887178543   -0.6981654649
 N   -0.0837842424   -3.2663393106   -1.4423920017
 N   -0.0154216614   -2.1306664416    0.6622519875
 C   -0.0102227412   -0.8606118403    1.0610490098
 C   -0.0109770787   -0.4136313702    2.4007954303
 C   -0.0105068086   -0.0190342384    3.5393959967
 H    0.9084062328    1.8379813365   -0.4580851944
 H   -0.8720138565    1.8533895909   -0.4615357434
 H    0.0143744202    1.7643448013    1.0780160740
 H   -0.0093890396   -0.3442309800   -2.1275017506
 H    0.4519966073   -3.2418074040   -2.2991726502
 H    0.1837456824   -4.0624676843   -0.8780462402
 H   -0.0106474269    0.3123238775    4.5481684479