17

 C    0.2916666584    1.3649941295   -0.3352322017
 C    0.1912571871   -0.0653149381    0.1416860337
 N    1.4326940359   -0.7320087934    0.5658990829
 C    0.3615067529   -0.5141826010    1.5526423152
 C    0.7053307500    0.4035927992    2.6963964737
 O    1.4382506193   -0.3110066149    3.7034027284
 C    2.7828939369   -0.3304523879    3.5863721909
 O    3.4789174899   -0.9611878259    4.3241621852
 H    1.0477294223    1.9236058324    0.2202424473
 H    0.5757430456    1.3897787390   -1.3923920423
 H   -0.6697853926    1.8796140832   -0.2338414786
 H   -0.5091117447   -0.6692738545   -0.4347508688
 H    1.4552604324   -1.7014665948    0.2635794413
 H   -0.2227748285   -1.3803950983    1.8585881806
 H    1.2877889222    1.2620639137    2.3480597480
 H   -0.1955319416    0.7715133441    3.1945537368
 H    3.1516753546    0.2982444576    2.7554963675