15

 O   -0.4693876942    0.3562166053   -0.8335933246
 C    0.0175092382    0.9921585082    0.0663253885
 C    1.1189889057    2.0027393078   -0.0699133744
 C    1.5476206354    2.8143454887   -1.2502071441
 C    0.4114311502    3.6282853649   -1.9032475119
 C   -0.9122952826    3.5606319147   -1.2532620765
 N    0.1339051277    4.3898535715   -0.6279114877
 C    1.1734442155    3.5227675176    0.0381245692
 H   -0.2868237657    0.8145580077    1.1240470495
 H    1.9814151852    1.6281566643    0.4893988950
 H    2.5192634426    2.7128731966   -1.7151842797
 H    0.5711715699    4.1659273234   -2.8317078169
 H   -1.6924965977    4.1738954642   -1.6968426330
 H   -1.2812719730    2.6680674322   -0.7685670933
 H    1.7897948228    4.0018105428    0.7883481699