18

 O   -0.1470821357    1.3367689846    0.1866950910
 N    0.0257891383   -0.0632287754    0.2053198623
 C   -1.0715941294   -0.6590201661   -0.0513290270
 C   -2.3836409039    0.0442952355   -0.3374634988
 O   -3.4762639080   -0.8364861162   -0.5972999289
 C   -3.1805164190   -2.2221024974   -0.5507379754
 C   -2.3802777110   -2.5966101642    0.7247019215
 C   -1.1168821178   -2.1529666012   -0.0834351106
 C   -1.9073756686   -2.5659863791   -1.3681971091
 H    0.7387140022    1.6531205826    0.3914240658
 H   -2.6385787619    0.6879309373    0.5143079914
 H   -2.2517326266    0.7130925789   -1.1977428753
 H   -4.1194318535   -2.7321966347   -0.7703546635
 H   -2.6211284440   -2.0700662385    1.6510753943
 H   -2.3801008226   -3.6753435463    0.8977168718
 H   -0.1439690362   -2.5946198555    0.1299364036
 H   -1.8260560151   -3.6394642734   -1.5542961862
 H   -1.7299256374   -2.0123468810   -2.2930861569