16

 C   -0.0299323210    1.5768289397   -0.0732959701
 C    1.5178039598    1.3495960262   -0.0161755335
 C    1.2007135127    0.1664974036    0.9585619462
 C   -0.0458588198   -0.0027808173    0.0003427208
 C    0.6861735178   -0.3096273699   -1.2922656417
 N    0.7463342778   -1.0514471701   -2.3797725133
 C    1.8616350141   -0.5285227827   -2.9933637450
 N    2.4740486245    0.4720791328   -2.3584944587
 N    1.6881280196    0.5823013406   -1.2681020987
 H   -0.4245128864    2.0443440840    0.8313987271
 H   -0.4313804478    2.0508686864   -0.9707788990
 H    2.2590018327    2.1238730075    0.1580844765
 H    1.9246134607   -0.6490948547    1.0046532075
 H    0.9200161590    0.5034794206    1.9587569996
 H   -0.9278686787   -0.5755723618    0.2693541608
 H    2.2306793650   -0.8975740148   -3.9384113386