21

 C   -0.0324977380    1.5765159964    0.1210291725
 C    0.0367932035    0.0428468836    0.0865938297
 C    0.7060628524   -0.4979195361    1.3649062603
 C   -1.3930000073   -0.5190909225   -0.0297008792
 O   -2.1180982681   -0.1767033791    1.1399424043
 N    0.7024671253   -0.4064399635   -1.1560469001
 C    2.0602946853    0.0823817859   -1.3766955183
 C    2.6106876366   -0.4906432646   -2.6088056888
 N    3.0554750860   -0.9585959016   -3.5665576391
 H    0.9369831765    2.0285822900    0.3516190489
 H   -0.3783923923    1.9657969093   -0.8416242198
 H   -0.7374470808    1.8860353245    0.8950589476
 H    0.1239006899   -0.2203535210    2.2463933656
 H    0.7697478448   -1.5918707043    1.3361119111
 H    1.7180974009   -0.1001742923    1.4880636705
 H   -1.8576458976   -0.1055643332   -0.9353979125
 H   -1.3393690457   -1.6142805534   -0.1525465995
 H   -3.0322177533   -0.4474020589    1.0194143961
 H    0.7197414693   -1.4222794096   -1.1713590799
 H    2.0416950173    1.1711791416   -1.4917359056
 H    2.7737201051   -0.1358682413   -0.5634110536