11

 N    0.0554352568   -3.7100138219   -0.0185911680
 C    0.0302125374   -2.5480662819   -0.0118073878
 C    0.0041107856   -1.1851990037   -0.0038945348
 C   -0.0187443039    0.0244496557    0.0031280650
 C   -0.0072097993    1.4323199005    0.0107717825
 N   -1.1321369474    2.1718297671    0.0293117992
 N   -0.6704321884    3.4050549239    0.0301719329
 N    0.6490676782    3.5622239920    0.0140738805
 C    1.0997617295    2.3131769135    0.0013977251
 H   -1.2945991476    4.1974308335    0.0425579903
 H    2.1538144491    2.0903837314   -0.0134004749