23

 C   -0.0823429492    1.5921751234    0.0024353415
 C    0.0074992787    0.0551729436    0.0216484841
 C    0.6105911179   -0.4695221950   -1.2974818302
 C    0.5672414129   -1.9694339956   -1.4324416986
 C    1.2909862438   -2.8076053421   -0.6896362415
 C    1.2165676462   -4.3013052758   -0.8549393319
 C    2.2561925663   -2.3005247194    0.3699413578
 C    1.6937491704   -1.3364123829    1.3934115834
 C    0.7591785630   -0.3951310380    1.2529408162
 H    0.9126770738    2.0411788090   -0.0936733110
 H   -0.6920692553    1.9381837064   -0.8386123501
 H   -0.5323153235    1.9748608094    0.9244338623
 H   -1.0217511848   -0.3297266777    0.0958480931
 H    0.0732704520   -0.0092178449   -2.1335910495
 H    1.6474377072   -0.1094474889   -1.3649856032
 H   -0.1120975225   -2.3808454094   -2.1761253545
 H    0.5249008555   -4.5872448541   -1.6520018592
 H    2.2023368212   -4.7235314223   -1.0919790100
 H    0.8884284791   -4.7866823059    0.0737334536
 H    2.6700776306   -3.1582079192    0.9114165879
 H    3.1269654607   -1.8391121204   -0.1246962851
 H    2.1274138681   -1.4475866665    2.3858912862
 H    0.4963325577    0.1643604062    2.1511458387