14

 O    0.0292659178   -0.0068514777    0.0026849914
 C   -0.0270131750    1.1897395222    0.0099888080
 N   -1.1414106218    2.0198166980    0.0300711787
 C   -0.7203539085    3.3429739717    0.0312534297
 C    0.6205554812    3.3144905536    0.0122801941
 O    1.0929821931    2.0288652144   -0.0012638419
 C    1.1781207923    4.6535595105    0.0116276821
 C    0.1315886155    5.5092296329    0.0309102764
 C   -1.1996914422    4.7565599223    0.0455570819
 H   -2.0725319472    1.6431901095    0.0409843065
 H    2.2281896693    4.9075798766   -0.0017509345
 H    0.1842646738    6.5882537588    0.0359607207
 H   -1.8135190586    5.0193535315   -0.8254942046
 H   -1.7887761496    5.0099049258    0.9362715314