20

 C   -0.1414359711    1.5255033466   -0.0028445705
 C    0.0425892119    0.0036842781   -0.0810948394
 C    0.8441699453   -0.3780340314   -1.3332350402
 C    0.7124189196   -0.5500813432    1.2093773299
 C    0.0637346923   -0.1539148395    2.5166361677
 C   -0.2737568862   -1.2563886508    3.1909091197
 N    0.0834642445   -2.4103578086    2.4800665287
 C    0.6858025104   -2.0969065636    1.2759091845
 O    1.0866404013   -2.9042396459    0.4659823587
 H    0.8217590173    2.0312265530    0.1375173269
 H   -0.5777479632    1.9024271944   -0.9334620160
 H   -0.8018316634    1.8208625208    0.8170943727
 H   -0.9533525135   -0.4542306728   -0.1517027431
 H    1.8264718784    0.1106776114   -1.3231036199
 H    1.0049548184   -1.4552984093   -1.3904956910
 H    0.3192972203   -0.0472843620   -2.2355185675
 H    1.7688203498   -0.2425228857    1.1915650826
 H   -0.0816343015    0.8589560692    2.8571708580
 H   -0.7453861972   -1.3546149734    4.1583382394
 H   -0.0851395033   -3.3597598372    2.7675646087