16

 O   -0.5314562189    0.6280562433    0.1926217040
 C    0.2105110569    1.2616257622   -0.5257825129
 C    1.4213664413    1.9944971343   -0.0836039976
 C    1.4198679200    2.7834244502    1.2081538598
 C    0.3253516945    2.5642584473    2.2272176434
 C    0.5293892179    1.1112630088    2.7031363211
 O   -0.1056566097    0.5462349295    3.5473006888
 C    1.7493844673    0.5446506024    1.9558656534
 N    2.2671438206    1.5930119529    1.0681281016
 H    0.0131478631    1.3383626301   -1.6167994384
 H    2.0104199828    2.3972256344   -0.9040568544
 H    1.9376125863    3.7382421298    1.1882573890
 H    0.4389024809    3.2429669444    3.0785351594
 H   -0.6907680947    2.6805468895    1.8446954083
 H    2.5353360702    0.2986306910    2.6786628228
 H    1.4795713915   -0.3716308904    1.4285997417