13

 C    0.0216937633    1.3925474490    0.0763028513
 N    0.0270163261   -0.0525648594   -0.0297043450
 C   -0.1802308193   -0.7859832095   -1.1478946678
 C   -0.0722906207   -2.1005407165   -0.7185573814
 N   -0.1142256510   -3.4294889632   -1.0482747486
 N    0.0925117548   -4.1450974498   -0.0615230710
 O    0.3210124186   -3.2252467426    1.1793506058
 C    0.1972467844   -2.0222845391    0.6584431477
 N    0.2646924579   -0.7801213124    1.1129384360
 H    0.9921439826    1.7407183613    0.4379965064
 H   -0.1781707217    1.8196060181   -0.9072294875
 H   -0.7526910513    1.7093768279    0.7790133257
 H   -0.3756476838   -0.3270468038   -2.1022898218