19

 C   -0.2282238597    1.3051745701    0.0380754141
 O    0.1451668145   -0.0511045172   -0.0838460091
 C    0.7271971997   -0.6157445629    1.1050375087
 C   -0.2867714248   -0.8916136994    2.2055556201
 C   -0.3288772605   -2.1865287504    2.5201272948
 C    0.5986677867   -2.9991490411    1.6868966356
 C    0.3208878944   -2.9938007050    0.1834820706
 O   -0.9019580372   -2.6242180507   -0.3542516665
 C    1.2883763761   -1.9968601428    0.7657426183
 H    0.6246340046    1.9230157819    0.3570196603
 H   -0.5569008272    1.6386548047   -0.9490362888
 H   -1.0506121365    1.4522684075    0.7518669648
 H    1.5208482550    0.0706269374    1.4414637196
 H   -0.9114193821   -0.1160719509    2.6320240164
 H   -0.9900683863   -2.6306747899    3.2558215968
 H    1.1223848287   -3.8468679228    2.1138944047
 H    0.7781116862   -3.8228525615   -0.3541556395
 H   -0.8665327007   -1.6700268248   -0.5092524119
 H    2.3382195591   -2.0727499324    0.5105829910