16

 O   -0.1870751422    0.0186408275    0.0711436654
 C   -0.0047495630    1.2010234181    0.1999420383
 C    1.3274677940    1.8864429040    0.0453316501
 C    1.2375569350    3.1470379605   -0.9093529273
 C    1.5821116723    4.0530426665    0.2775933143
 C    1.6578393504    2.8611042012    1.1989874437
 N    2.8522389342    3.5961896677    0.8053728713
 C    3.6212676862    4.3449868010    1.6841329011
 O    3.8217078345    5.5304137923    1.5872760740
 H   -0.8486620121    1.8897672182    0.4435961141
 H    2.0998332278    1.1506135471   -0.1813585642
 H    1.9392920641    3.1618936357   -1.7445531854
 H    0.2217423893    3.3064611733   -1.2798100323
 H    1.2568836974    5.0657230454    0.4766968315
 H    1.3887283702    2.7723088776    2.2453003526
 H    4.1029085319    3.7048104339    2.4472987729