16

 O    0.8600496557    0.4067129550    1.4943550473
 C    0.3915309009    1.0713242743    0.5933554191
 N    1.1000267691    1.5588572063   -0.4594160787
 C    2.4795273232    1.2022691145   -0.6873303531
 C    2.8165840615    1.4283267670   -2.1515336568
 O    2.0271505437    1.8585723408   -2.9549537615
 C    3.4556958376    1.9948766060    0.1806350477
 C    3.9465438526    1.4435890362    1.4448277179
 O    4.7677364262    1.4451980855    0.2676067622
 H   -0.6762813374    1.3581196233    0.5436636684
 H    0.6217533580    1.9741918635   -1.2481920519
 H    2.6465637267    0.1391367225   -0.4619709631
 H    3.8619235182    1.1852528653   -2.4227158751
 H    3.4108831268    3.0769490830    0.0514140816
 H    4.2706919881    2.1207520614    2.2321678318
 H    3.5770760992    0.4743794254    1.7679558641