18

 C   -0.0958930758    1.4846332047   -0.0118503592
 C    0.0456571095   -0.0121238102    0.0524013385
 O   -1.2337924352   -0.7131912462   -0.0158028335
 C   -0.9616638387   -1.4227627555    1.2208026194
 C    0.4550387138   -0.8267351732    1.2999707203
 C    1.5821460122   -1.4867635060    0.4734572866
 C    1.0785609613   -2.1450702731   -0.7813462400
 C    1.1996682687   -0.6518756365   -0.7616848240
 H    0.8740176748    1.9708492343    0.1362363593
 H   -0.4786573551    1.7842046662   -0.9942868875
 H   -0.7920910181    1.8459163996    0.7503724366
 H   -1.6352518282   -1.0923105995    2.0215417439
 H   -1.0465620594   -2.5096560091    1.1062774127
 H    0.7687256837   -0.3437793648    2.2246417573
 H    2.5698701682   -1.7013950126    0.8626273489
 H    1.8423066485   -2.6575158087   -1.3577353510
 H    0.0976719334   -2.6040700615   -0.8333771712
 H    1.8348953263   -0.1106628480   -1.4539058570