17

 C    1.1594669468    0.1926461071    0.6238340491
 C   -0.2682698897   -0.0525461478    0.2323746473
 N   -1.2880279141    0.4842501678    0.7930718396
 O   -0.9214679280    1.3084258713    1.8641202665
 C   -0.6240693672   -0.9532250149   -0.8980152179
 N    0.3707817241   -1.1800378657   -1.9508021436
 C   -0.0334975868   -2.3266425021   -1.1146899324
 C    0.9460780780   -2.9311152703   -0.2552950379
 C    1.7321281347   -3.4872019027    0.4646466565
 H    1.8313339573   -0.1076013409   -0.1798514609
 H    1.2991355696    1.2508047657    0.8577149611
 H    1.4137545836   -0.3767634084    1.5237870318
 H   -1.7717601877    1.6594532300    2.1489403975
 H   -1.6697166320   -0.8650595945   -1.1818734384
 H   -0.0752150280   -1.2354497010   -2.8621711737
 H   -0.7260996419   -3.0408180313   -1.5571825069
 H    2.4353246012   -3.9656513522    1.1004898223