18

 C   -0.1187400298    1.5843917412   -0.0008764602
 C   -0.0591045769    0.0425109157    0.0006082379
 C   -1.4054825383   -0.5244753310    0.0091715815
 C   -2.5285345922   -0.9509144172    0.0023687124
 C    0.7519619388   -0.4751750969   -1.2026271823
 C    2.2682244035   -0.1753893426   -1.2209363028
 O    2.5601093854   -1.6050093550   -1.2256024518
 C    1.2152022679   -1.9237025632   -1.1805522621
 N    0.6464132284   -3.0378323567   -1.1330765321
 H    0.8872347442    2.0142335732    0.0342309317
 H   -0.6208763628    1.9485693638   -0.9020654245
 H   -0.6766496052    1.9452232472    0.8663331044
 H    0.4580803408   -0.2821249265    0.9143612246
 H   -3.5093681424   -1.3577106338    0.0006697502
 H    0.2406930674   -0.2139225160   -2.1327802838
 H    2.6634069972    0.3110053652   -2.1155374955
 H    2.6710513038    0.2993428098   -0.3215334552
 H    1.3254638503   -3.8012030173   -1.1249942322