13

 O   -0.1158777402    1.3449971656    0.0108315256
 C    0.0679861794    0.0087821149    0.0025850637
 C    1.2683111856   -0.6475438849   -0.0077262359
 C    1.2305317076   -2.0668765754   -0.0151215901
 C    0.0619113523   -2.7709067771   -0.0123299906
 C   -1.2191977830   -2.1006923853   -0.0016533478
 O   -2.3307496749   -2.5992270172    0.0021597536
 N   -1.0945992962   -0.6844349169    0.0053785129
 H    0.7432636592    1.7809288112    0.0084582342
 H    2.2002214387   -0.0981063284   -0.0100139984
 H    2.1745313331   -2.6036817752   -0.0232744082
 H    0.0399687109   -3.8526092647   -0.0179436874
 H   -1.9666810226   -0.1717988066    0.0130863083