18

 C   -0.1442958152    1.4753865269   -0.0109765888
 C   -0.0559140082   -0.0170518174   -0.0320896435
 C   -0.0065637687   -0.8263991720   -1.0955123125
 C    0.1325380876   -2.2887225797   -0.7172488502
 N   -0.0069181021   -2.2359400767    0.7436064408
 C    0.0705778296   -0.8331206969    1.2358837515
 C   -1.1837174153   -1.1004576099    2.1186062004
 C   -1.2468001063   -2.4479034213    1.3674508007
 O   -2.0452870702   -3.3333805013    1.2446240837
 H    0.7272642427    1.9138880903    0.4915553355
 H   -0.1987071199    1.8909934031   -1.0201721271
 H   -1.0269719495    1.8149257021    0.5450933262
 H   -0.0275419993   -0.4980382174   -2.1288156109
 H   -0.6505029503   -2.9320736381   -1.1335922575
 H    1.1007334274   -2.7063460960   -1.0242053468
 H    0.9842700700   -0.5953413027    1.7945105613
 H   -1.0107146446   -1.1646184340    3.1948204608
 H   -2.0483092976   -0.4623454289    1.9247146263