14

 O   -0.4122045181    0.4754580334    0.6591536294
 C    0.0536039426    1.1951545521   -0.1894563150
 C    1.2789597273    2.0294201497   -0.0236864078
 C    1.4888452372    2.8550121277    1.2232704117
 C    0.7244615414    2.5273236864    2.5020503008
 O    1.2530975786    1.2695448042    2.9254272000
 C    2.0441170834    0.7262306388    1.9627983470
 O    2.4980342257   -0.3704770424    2.0054698798
 N    2.3503429764    1.7214222482    0.9528593995
 H   -0.4285159653    1.3072232982   -1.1836811144
 H    1.6678481746    2.4376379215   -0.9532316221
 H    1.9149531595    3.8471555677    1.1102201175
 H    0.9291021951    3.2713390737    3.2760741771
 H   -0.3564312182    2.4286820308    2.3679755566