21

 C   -0.1875487165    1.4976915891   -0.1617301695
 C   -0.0961606353    0.0468582064   -0.0745660221
 C   -0.0316149625   -1.1546872942    0.0050764542
 C    0.0653115043   -2.5900656894    0.0642905151
 C   -0.3192642985   -3.2797800744    1.3650977664
 C   -1.2274677507   -3.3798833456    0.1724544409
 C    1.2101383363   -3.1853386668   -0.7800296060
 C    2.5819844494   -2.6885674329   -0.3282193911
 O    1.1607371487   -4.6071436656   -0.8059021411
 H    0.8037581081    1.9556381862   -0.2537433855
 H   -0.7789769207    1.8129954222   -1.0288497169
 H   -0.6615394562    1.9194081242    0.7318337946
 H    0.2367247727   -4.1680779722    1.6461584427
 H   -0.6127166731   -2.6492213879    2.1955001380
 H   -2.1536262201   -2.8181868826    0.1805604657
 H   -1.2509935606   -4.3261231352   -0.3539683305
 H    1.0391645432   -2.8774285307   -1.8184852383
 H    2.7789452291   -2.9941063851    0.7073907413
 H    3.3645706776   -3.1042413653   -0.9691086277
 H    2.6341184405   -1.5979984965   -0.3666134056
 H    1.6306196043   -4.9340373038   -0.0317333646