21

 C    0.0680594334    1.6031541138   -0.3029107263
 C   -0.0676069154    0.1280756408    0.0015621062
 C   -1.2638065454   -0.4719967471   -0.0685431219
 C   -1.4987983142   -1.9410970174    0.1839998643
 C   -1.0825186942   -2.7339315109   -1.0318168308
 C    0.1596082297   -3.1555535640   -1.2489936541
 C    1.3222468783   -3.0513344569   -0.2861727130
 C    1.7085479199   -1.7402349114    0.3675802382
 C    1.1826827213   -0.5078650767    0.4541421972
 H    0.7694354289    1.7738518969   -1.1291064958
 H   -0.8925913134    2.0467649079   -0.5760667693
 H    0.4641910052    2.1519751526    0.5611527739
 H   -2.1226027543    0.1190661014   -0.3787094546
 H   -0.9114127765   -2.2590334371    1.0534342749
 H   -2.5532328411   -2.1210102069    0.4161049990
 H   -1.8359054658   -2.8828019887   -1.8019799717
 H    0.3775888952   -3.6668965046   -2.1835161557
 H    1.1932352046   -3.7887963820    0.5249244655
 H    2.2229653190   -3.4007244722   -0.8079010384
 H    2.6714651303   -1.8458081698    0.8695664143
 H    1.8256023343    0.2028166622    0.9768445282