13

 O    0.0932495007    1.3324200632    0.3139033583
 C   -0.0688677456   -0.0473156551    0.1490876902
 C   -1.4476808488   -0.3442783324   -0.4190897385
 O   -2.2633428579    0.5066026252   -0.6659098450
 C   -1.7532939116   -1.8284596006   -0.6331129305
 C   -3.0029564364   -2.2305090679    0.1397099421
 O   -3.0794439742   -3.2163774695    0.8223955880
 H    0.9690402445    1.4918018953    0.6776309510
 H    0.6712473462   -0.4926185784   -0.5405593677
 H    0.0176475135   -0.6123797317    1.0953700733
 H   -1.9800504956   -1.9533759684   -1.7001524323
 H   -0.9279659970   -2.4916264314   -0.3640189298
 H   -3.8490207278   -1.5231032883    0.0197544110