17

 O   -0.0781716170   -0.0101640495   -0.0084063234
 C   -0.0251662508    1.1935144351   -0.0027895861
 C   -1.2752012286    2.1243060386   -0.1217810147
 O   -0.8376073258    3.3712228159   -0.6732840164
 C    0.5551902175    3.4136044783   -0.5556365203
 C    1.1559461042    3.3592303102    0.7933017879
 C    1.1504123611    2.0909498980   -0.0683695516
 C    2.2394326835    2.1765247593   -1.1592675153
 C    1.5579449824    3.4836212312   -1.7124564322
 H   -2.0106746013    1.6695613859   -0.7910074369
 H   -1.7474068349    2.2659929562    0.8607076052
 H    2.1276252369    3.7992939091    0.9967044197
 H    0.4651440159    3.3836240968    1.6278232767
 H    3.2602547559    2.2863403262   -0.7842062494
 H    2.2102028634    1.3419726987   -1.8607394069
 H    1.0663340427    3.3104186455   -2.6712690584
 H    2.1682046050    4.3884356346   -1.7789359579