18

 C    0.2048263011    1.5660807641    0.1748348510
 C   -0.0137903531    0.0582800805   -0.0267588232
 C    0.5870583292   -0.7560261769    1.1297848578
 O   -1.3994150688   -0.2373126118   -0.1910783386
 C    0.6717442351   -0.3645508704   -1.3302884281
 O    1.8692439541   -0.2302928842   -1.4773366319
 C   -0.1584223121   -0.9599564731   -2.4528240857
 O    0.6407238659   -1.2778682460   -3.5536819878
 H    1.2718577395    1.7996743758    0.1833591528
 H   -0.2746916172    2.1328972295   -0.6280952991
 H   -0.2303633970    1.8833672051    1.1290541814
 H    0.1516434338   -0.4323365654    2.0817452622
 H    0.3753712777   -1.8208283475    0.9982827457
 H    1.6691867783   -0.6141688669    1.1750491771
 H   -1.8569064704    0.0193036505    0.6156923998
 H   -0.6844451685   -1.8429063108   -2.0576816653
 H   -0.9494342615   -0.2401707217   -2.7139112114
 H    1.5422567641   -1.0288085007   -3.2945527467