14

 O    0.0035269999    0.0250138178   -0.1778859688
 C   -0.0395455440    1.1965782434   -0.0087460960
 C   -1.1109904614    2.2429333328    0.2950727125
 N   -0.0348244107    3.2220757784    0.5880426201
 C    1.0575796843    2.3547531669    0.0282827969
 C    2.1833039563    2.1342163622    0.9208958321
 C    3.0947777906    1.9073319304    1.6693871534
 C    1.4674075396    2.7054777515   -1.3265812244
 C    1.7455106316    3.0065599623   -2.4569688618
 H   -1.7293388938    2.4528040571   -0.5885000264
 H   -1.7672879705    2.0220267491    1.1428896345
 H   -0.1192833910    4.1027807143    0.0935345483
 H    3.9054648519    1.7194997841    2.3295025908
 H    2.0141147771    3.2678895498   -3.4510611311