15

 N    0.0554703188    1.2349428542    0.3686044334
 C    0.1657453230   -0.1265311107   -0.0445348942
 C   -1.1585337739   -0.8619644147   -0.4016345122
 O   -0.5646941375   -1.3981447470   -1.6227028604
 C    0.5978376259   -0.5665796471   -1.5022172291
 C    0.6149538921    0.5384078981   -2.4634233929
 N    0.6162966062    1.4560254688   -3.1671145655
 C   -1.6494197547   -1.8788566919    0.5028170404
 C   -2.0449038149   -2.7144858538    1.2705143582
 H    0.9420489532    1.6093011376    0.6855407613
 H   -0.2880680269    1.8345902308   -0.3756520774
 H    0.7396907738   -0.6891270938    0.6926594747
 H   -1.9565397889   -0.1491018212   -0.6490284788
 H    1.5241759492   -1.1438250289   -1.5866956845
 H   -2.4012174956   -3.4539377105    1.9450500172