14

 C   -0.0103638338    1.5303487515   -0.1572823781
 C   -0.0195669572    0.0436796346    0.1576997223
 O   -0.0620139533   -0.4139676917    1.2723931213
 N    0.0260204553   -0.7550754138   -0.9825605383
 C    0.0309982505   -2.1317152606   -1.0365619377
 N   -0.0070677478   -2.9515168620   -0.0119939233
 O    0.0202960079   -4.2157224651   -0.6477737654
 C    0.0704020427   -3.9861584229   -1.9520649172
 N    0.0804871146   -2.7337035937   -2.2794231923
 H    0.8971143375    1.8085697695   -0.7035552257
 H   -0.8712703918    1.8045092334   -0.7761422541
 H   -0.0500453767    2.0817449216    0.7809180555
 H    0.0603072179   -0.3158251209   -1.8898370180
 H    0.0977085740   -4.8432435499   -2.6090793190