23

 C    0.8616080487    1.7764529294   -0.0318832510
 C    0.9584918191    0.2524656613   -0.1244916585
 C    0.4608967666   -0.5229642369    1.0889835842
 C    0.3533127600    0.1160862941    2.4113831556
 O   -0.8094756627   -0.0757150696    1.5995826125
 C    0.6487225778   -2.0405456799    0.9815129646
 C    2.0671756523   -2.4529192339    1.4062144395
 C   -0.4271994654   -2.8300734870    1.7488939939
 O   -0.3378540817   -4.2288686107    1.5149712344
 H    1.5806921332    2.1899728678    0.6821188340
 H    1.0698005280    2.2306158665   -1.0047598545
 H   -0.1429217333    2.0783671505    0.2769921887
 H    0.3697137168   -0.0959976048   -0.9836188462
 H    1.9934458462   -0.0473850094   -0.3304211884
 H    0.3933399927   -0.4903117980    3.3154581929
 H    0.6578812541    1.1513651136    2.5481008214
 H    0.5242630215   -2.3120875654   -0.0755532770
 H    2.2362916241   -3.5167842838    1.2121635791
 H    2.8342665100   -1.9022058790    0.8538390101
 H    2.2306770023   -2.2668475694    2.4742647446
 H   -0.3769250018   -2.6093418100    2.8259528916
 H   -1.4170635267   -2.5265012761    1.4048042046
 H    0.4250311580   -4.5650490192    1.9935814738