20

 C    0.1026053376    1.4513773326   -0.2799440671
 N   -0.0148638689    0.0549045589    0.1163709056
 C   -1.3151912999   -0.5008465783    0.5072687753
 C   -0.9575819584   -2.0136005642    0.5242667077
 C    0.5161908094   -1.9862753927    1.0573181283
 C    0.7521479835   -0.4625160672    1.2549990510
 C   -0.0919284033   -0.1082108591    2.4957544706
 O   -0.8563314387    1.0973025087    2.3893921200
 C   -1.4719498451   -0.1338065816    1.9966196666
 H    1.1418946813    1.6398926425   -0.5724521077
 H   -0.5156525485    1.6094275554   -1.1710049813
 H   -0.1860245037    2.1825990002    0.4820403558
 H   -2.1278957310   -0.2105772514   -0.1596586883
 H   -1.6273787075   -2.5937034978    1.1659842796
 H   -1.0100503023   -2.4283479628   -0.4839622567
 H    0.6392891168   -2.5516692899    1.9858250606
 H    1.2148526196   -2.3871065005    0.3207717731
 H    1.7933659036   -0.1378787746    1.2586192305
 H    0.1957948663   -0.4125031326    3.4985907909
 H   -2.3242796010   -0.4592466255    2.5871130956