17

 C   -0.0846810058    1.5228062587    0.0083696686
 C   -0.0276777684    0.0036553776   -0.0145591975
 C    1.1828395310   -0.6019244519   -0.7949925770
 O    1.9939067545   -0.4917207005    0.4115680831
 C    0.7616365902   -0.6235067379    1.1740078664
 C    0.4352756865   -2.1186050938    1.2959356045
 O    0.0449994195   -2.6411165680    2.3160465076
 C    0.6025107306   -2.8237495028   -0.0048481166
 C    0.9346456907   -2.0700538216   -1.0627438743
 H    0.8988229287    1.9440654566    0.2348884696
 H   -0.4135780552    1.9150779446   -0.9598910093
 H   -0.7923661443    1.8728080637    0.7670368271
 H   -1.0021486608   -0.4369210971   -0.2392386216
 H    1.6088028284   -0.0544596561   -1.6388269749
 H    0.7868059923   -0.1239361303    2.1445984190
 H    0.4095543552   -3.8900307592   -0.0439456823
 H    1.0141675768   -2.4662285622   -2.0702032025