22

 C    0.0011829659    1.5462149094   -0.1038128517
 C   -0.0996065850    0.0233126654   -0.2187093442
 C   -1.4641713305   -0.5256851269    0.2234953545
 C   -1.5424158091   -2.0359293575    0.1279251166
 C   -2.8616394356   -2.7949106496    0.1106908884
 C   -4.2059682102   -2.1041844045    0.2051901115
 C   -2.0280045591   -2.7130007007   -1.1395394417
 O   -2.5481173115   -1.9334709515   -2.1813128311
 H    0.9825433245    1.9093826723   -0.4249042357
 H   -0.7563167283    2.0411173837   -0.7218951114
 H   -0.1534268540    1.8745943883    0.9300730139
 H    0.0942682025   -0.2815275530   -1.2564333127
 H    0.6917367947   -0.4450101182    0.3813840174
 H   -1.6590074048   -0.2098648142    1.2575165493
 H   -2.2482558894   -0.0701575907   -0.3896476820
 H   -0.7264693298   -2.5453211534    0.6378490002
 H   -2.8313851380   -3.7598232698    0.6108493591
 H   -4.2610933301   -1.2344027508   -0.4509071969
 H   -5.0069578276   -2.7885906660   -0.0941541246
 H   -4.4130495753   -1.7790048117    1.2305941380
 H   -1.5144625043   -3.6155866235   -1.4712215481
 H   -1.8104603650   -1.5076273871   -2.6302813987