16

 C   -0.0393182940    1.4347106827    0.0197749805
 C    0.0079213214   -0.0179494028    0.0013692397
 C    0.0626678022   -1.2233802788   -0.0161882516
 C    0.1053812750   -2.6342477891   -0.0334656072
 N    1.1898856362   -3.4033403483   -0.0698708375
 C    0.7359692935   -4.6902673542   -0.0756801541
 N    1.6360709679   -5.7534350156   -0.1768013231
 C   -0.6436176319   -4.7228099369   -0.0398328236
 N   -1.0255663589   -3.3976959473   -0.0102563601
 H    0.9712568252    1.8557488829   -0.0161370510
 H   -0.5937761627    1.8293168902   -0.8393623314
 H   -0.5227961912    1.8095469195    0.9291963196
 H    2.5678046906   -5.4538615420    0.0805395488
 H    1.3667516346   -6.5662226895    0.3607971376
 H   -1.3577263824   -5.5281388523   -0.0422116158
 H   -1.9666984055   -3.0447664386    0.0231056091