19

 C   -0.0436338586   -1.2053255804    0.0419763077
 C   -0.0523109818   -0.0040807109    0.0864499016
 C   -0.0152972297    1.4551386391    0.1304183252
 C    1.3972911548    1.9976711681   -0.0367409351
 C    2.4083971664    1.8277570260    1.1348549082
 C    2.7383283625    3.3533387825    1.0773085899
 C    1.7763822542    3.5087042038   -0.1211762765
 O    2.4260515967    3.3123858987   -1.3922259337
 C    2.0534430369    1.9142849812   -1.4280581821
 H   -0.0508007911   -2.2664305043    0.0048561694
 H   -0.6621486937    1.8628956537   -0.6578512901
 H   -0.4348945786    1.8037760745    1.0834877286
 H    1.9342474365    1.5175710390    2.0692557737
 H    3.2380969280    1.1459803548    0.9332367426
 H    2.4173218492    3.8998244640    1.9683972539
 H    3.7707344365    3.6241191042    0.8474760590
 H    1.0717387444    4.3458957729   -0.1379805922
 H    2.9211748915    1.2505576840   -1.5245615717
 H    1.3537461561    1.7085541492   -2.2492958785