16

 C    0.2723848426    1.0214444866   -0.3925819069
 O   -0.2044102486    0.1959117634    0.6765162686
 C   -1.3038295494   -0.5439699527    0.3724848574
 C   -1.4068194360   -1.8554977227    0.0002938199
 O   -0.3908238106   -2.7443590858   -0.2020473123
 C   -2.7947608295   -2.1661728335   -0.1726975553
 C   -3.4798804263   -1.0095041010    0.1079601074
 O   -4.8031890976   -0.7057152840    0.1414702981
 N   -2.5992332762   -0.0116390688    0.4104795130
 H    1.1727937925    1.5205436707   -0.0270787247
 H    0.5133538089    0.4190931830   -1.2764793161
 H   -0.4725882765    1.7761831034   -0.6724060780
 H    0.4203290876   -2.3271652321    0.1096487797
 H   -3.2075662166   -3.1135653276   -0.4799016830
 H   -5.2996555182   -1.5106351773   -0.0344594767
 H   -2.8559157362    0.8454857783    0.8698770189