17

 C   -0.3845528922    1.4813781806    0.1366960731
 C    0.3297698647    0.1507814224    0.0442124512
 C    1.7680925526    0.0183149464    0.5077416199
 C    0.6488779458   -0.6404266040    1.2763217863
 O    0.2281385452   -0.0988908474    2.5020667621
 C    0.9409793030   -0.5719412551    3.6169363494
 C    2.3028538112   -0.0118957866    3.7374945980
 N    3.3639271307    0.4312160316    3.8489709716
 H   -0.1018952429    2.0168228512    1.0457493300
 H   -0.1380669436    2.1120493018   -0.7236091400
 H   -1.4711506510    1.3458111867    0.1550547820
 H    0.0542059023   -0.4512637826   -0.8176212070
 H    2.4569058131   -0.6089596666   -0.0471958942
 H    2.2180061443    0.8943258390    0.9610062912
 H    0.5602040454   -1.7266444921    1.2378126860
 H    0.3706697817   -0.2801084523    4.5041364597
 H    1.0197183294   -1.6695045631    3.6138756408