19

 C    0.0091004489    1.5929489564   -0.0994425832
 O   -0.1341878858    0.1910569501   -0.0422098631
 C    0.5929688651   -0.5010169043   -1.0311297865
 C    2.0409732284   -0.7804190876   -0.7104638795
 C    2.3498663468   -2.0721865795   -0.8364140715
 C    1.1807839875   -2.9332490460   -1.2461216695
 C    0.9314375622   -4.1826557113   -0.3913995217
 C    0.0127921779   -1.9315009352   -1.1881090394
 O   -1.1546517061   -2.2057449559   -1.2165415037
 H    1.0421890793    1.9183829507    0.0945850892
 H   -0.3005583637    1.9907414157   -1.0783748662
 H   -0.6389211531    2.0122090716    0.6736935056
 H    0.4894442280    0.0189061158   -2.0018690107
 H    2.7342871774    0.0025050583   -0.4262341958
 H    3.3364541591   -2.4913756654   -0.6675558608
 H    1.2818919765   -3.2492106799   -2.2962794274
 H    0.8654186012   -3.9226005858    0.6693638734
 H   -0.0106480571   -4.6519274219   -0.6857454197
 H    1.7393467675   -4.9097534859   -0.5161088995