19

 O   -0.6044572777    0.7803978487   -0.7242695776
 C    0.1059356426    1.0183108672    0.2186103381
 C    1.2909904999    1.9677077574    0.1605687747
 C    1.4229450082    2.6997129192   -1.1893413436
 C    2.6079050621    3.6715069481   -1.1920334661
 C    2.4970247047    4.6884082938   -0.0491681271
 C    2.3853248760    3.9873243498    1.3201629006
 C    1.2701333776    2.9551699863    1.3368673070
 O    0.4243059076    2.9128467795    2.2003328329
 H   -0.0577181897    0.5377333877    1.2037769502
 H    2.1911777401    1.3465660259    0.3143264503
 H    1.5112973994    1.9603216438   -1.9898751461
 H    0.4915718507    3.2449373676   -1.3828919170
 H    3.5472703860    3.1097597772   -1.0932119773
 H    2.6573975775    4.1925626791   -2.1540047724
 H    3.3590665733    5.3632078954   -0.0439842296
 H    1.6094193437    5.3149711400   -0.2040852649
 H    3.3268844770    3.4587639127    1.5286756078
 H    2.2113544509    4.6939442206    2.1350914701