15

 C    0.0266387661    1.3755453558   -0.0552786043
 N   -0.0036735167   -0.0554209494    0.1782058024
 C   -1.2070615499   -0.7166125015    0.0703349240
 C   -2.4765917018   -0.2145316955    0.0383330918
 O   -3.3919380887   -1.2435654088   -0.0085963412
 C   -2.7121191050   -2.3927669768   -0.0218530303
 C   -1.3646417525   -2.1571602503    0.0245594119
 C   -0.3160582056   -3.1038486511    0.0178258108
 N    0.5784340278   -3.8407398074    0.0056440459
 H    1.0548391584    1.7317584748    0.0312610684
 H   -0.3663322385    1.6619665517   -1.0435145629
 H   -0.5700066074    1.8877558178    0.7081063953
 H    0.7832993141   -0.5680743368   -0.1910281459
 H   -2.8878857858    0.7780395812    0.0558065105
 H   -3.2855028744   -3.3037501539   -0.0668734764