21

 C   -0.2837323802    1.5915434032    0.1448941900
 C    0.0087983650    0.0969975091    0.0769847822
 C    1.0759815875   -0.4522351436   -0.9269381218
 C    1.7451194758   -1.2323259450    0.2164076694
 C    2.2300148571   -2.6483644983    0.1208100197
 O    3.3715618207   -2.7901215141   -0.7203407239
 C    2.2149573143   -0.2681980295    1.2717808970
 O    2.6745349005    1.0266360063    0.9933571657
 C    0.7579867055   -0.5893462465    1.2330405945
 H    0.6334680948    2.1649397621    0.2882095249
 H   -0.7699517288    1.9315843759   -0.7768569142
 H   -0.9608928739    1.8174238599    0.9766678808
 H   -0.9277692237   -0.4462063691   -0.0881828718
 H    0.6550981038   -1.0988336590   -1.6998224756
 H    1.7079344987    0.3012756389   -1.4050169727
 H    2.4239056698   -3.0444791181    1.1312845968
 H    1.4622111362   -3.2853659676   -0.3331122964
 H    4.0747992608   -2.2517124711   -0.3431893281
 H    2.7341714926   -0.7500148464    2.1038639530
 H    3.5240656757    0.9558421543    0.5454390617
 H    0.2751706881   -1.0469291014    2.0906083485