20

 C    0.0729724405    1.3671785120   -0.1217982402
 O   -0.1267849037   -0.0094036168    0.0958114459
 C    0.6116546332   -0.5540737299    1.1777697874
 C    0.0264278710   -1.9323450632    1.4763161718
 C    0.6967502410   -2.5654332661    2.7036671212
 C    2.1940602518   -2.4014422881    2.6764847623
 C    2.8244546979   -1.5645609247    1.8534236984
 C    2.1147414108   -0.6644056858    0.8729427624
 H    1.0909253892    1.6012593123   -0.4663227271
 H   -0.6320622387    1.6760714148   -0.8980361588
 H   -0.1248764756    1.9560200063    0.7883678543
 H    0.4795079650    0.0894369498    2.0661130830
 H   -1.0543171723   -1.8423043663    1.6205467190
 H    0.1816384379   -2.5685725858    0.5965289605
 H    0.2968359125   -2.1218961415    3.6279390315
 H    0.4393776002   -3.6304928299    2.7608471113
 H    2.7695590382   -3.0064178706    3.3733643178
 H    3.9099955902   -1.5024642059    1.8749668487
 H    2.2321057239   -1.0438446610   -0.1527911840
 H    2.5842070570    0.3268523904    0.8822565346