18

 C   -0.3058946553    1.4760255288    0.2035739679
 C    0.0032933407    0.0012967454    0.0998034512
 C    1.3692830987   -0.4796042740   -0.2870144827
 C    0.8772728004   -0.7003020200    1.1401307871
 C    1.4634349709    0.0278954562    2.2255183318
 C    1.9619301377    0.6389889339    3.1393824010
 C    2.5116420269    1.3719362176    4.2772415624
 O    1.5983606756    2.2951231645    4.8595619866
 H    0.5414518773    2.0287023892    0.6178042451
 H   -0.5376054012    1.8935445312   -0.7822187995
 H   -1.1675174408    1.6547901058    0.8555965344
 H   -0.8237638019   -0.6098456393   -0.2520663402
 H    1.4649674595   -1.3539867749   -0.9211041427
 H    2.1465729361    0.2646122354   -0.4202441225
 H    0.5853897441   -1.7185641644    1.3816387728
 H    2.8815800863    0.6524742272    5.0259372557
 H    3.3754563159    1.9697093203    3.9646146256
 H    0.7714094090    1.8232587370    5.0028315559