21

 C   -0.0255092000    1.4556087272    0.0177647617
 C    0.0543471589   -0.0528964040   -0.0139017532
 C    0.6384387026   -0.6838054846   -1.3035231759
 C   -0.0441371519   -2.0812290062   -1.3087928858
 C   -0.8428333726   -2.0213169296    0.0101626554
 C    0.1170102711   -2.1282793152    1.2146074643
 C    0.7470537565   -0.7019075351    1.2170544219
 O    2.1567158066   -0.6568465795    1.0680409612
 O   -1.2540100560   -0.6461726145    0.0674406581
 H    0.9832062085    1.8793482928    0.0191972256
 H   -0.5623996757    1.8369317243   -0.8554460557
 H   -0.5449679734    1.7965329234    0.9186053735
 H    0.3472221516   -0.0902028174   -2.1734384127
 H    1.7267598389   -0.7360471565   -1.2690704847
 H   -0.7210912239   -2.1924421597   -2.1593324131
 H    0.6671023940   -2.9109351676   -1.3322052268
 H   -1.7207623003   -2.6663827161    0.0544370820
 H   -0.4324586238   -2.3280652839    2.1378651288
 H    0.8828952743   -2.8988763975    1.0894699220
 H    0.4450116278   -0.1505468879    2.1174770387
 H    2.5562071969   -0.9867515926    1.8778960048