20

 C   -0.0157132760    1.6364230795    0.0084288627
 C    0.0248144261    0.1065622384    0.0291964190
 C    0.6986232793   -0.4811771039   -1.2119022628
 O    2.0457264786   -0.0685302804   -1.3550306817
 C    0.6197372902   -2.0276136887   -1.2166523943
 O   -0.7357506472   -2.4007990596   -1.2287520145
 C   -0.9671697831   -3.7877596735   -1.0428165023
 C    1.3432402093   -2.5897527691   -2.3800524088
 N    1.8687577380   -3.0727223344   -3.2885160117
 H    0.9887545871    2.0539502787   -0.1012096824
 H   -0.6191356742    2.0003408285   -0.8298606842
 H   -0.4532062230    2.0289332098    0.9307187615
 H    0.5699628855   -0.2447008673    0.9192681536
 H   -0.9849688770   -0.3074482992    0.1031424637
 H    0.1876472220   -0.1268113576   -2.1139854936
 H    2.5033839431   -0.2298692965   -0.5217450104
 H    1.1197189897   -2.4078516090   -0.3073597294
 H   -0.5244338780   -4.3826363876   -1.8518269468
 H   -0.5596997447   -4.1342622296   -0.0817152482
 H   -2.0496848255   -3.9265481585   -1.0444663094