20

 C    1.2026138719    1.5813707335   -0.1299999839
 C    1.5037188578    0.0935501576   -0.1836199270
 O    0.6617906384   -0.4936345246   -1.1626164190
 C    0.8150494605   -1.8960475733   -1.3075708676
 C   -0.3399866874   -2.3971483988   -2.1880366651
 C   -1.7111973600   -2.1485473891   -1.5574731341
 C    2.1215016542   -2.2517810289   -1.8816381488
 C    3.1839769851   -2.5442645529   -2.3624711687
 H    1.3967116721    2.0464995244   -1.1005718722
 H    0.1541883434    1.7545740346    0.1294179719
 H    1.8316228531    2.0689972786    0.6208065631
 H    2.5594588878   -0.0812458523   -0.4375208293
 H    1.3205098524   -0.3765067527    0.7973047550
 H    0.7356127551   -2.3743899879   -0.3145459860
 H   -0.2646504920   -1.8917220339   -3.1567787327
 H   -0.1859329127   -3.4655792300   -2.3721071649
 H   -2.5109396783   -2.4925696164   -2.2198885294
 H   -1.8127385416   -2.6837337425   -0.6064649377
 H   -1.8582512075   -1.0838608036   -1.3627245857
 H    4.1239600877   -2.8034047518   -2.7835624781