17

 N   -0.1510461234    1.5492477054   -0.1082911885
 C   -0.0486492472    0.0945791144   -0.0478400978
 C   -1.3893682253   -0.4827739512    0.1377646582
 N   -2.4316039203   -0.9616473799    0.2733112650
 C    0.6421359791   -0.5720459985   -1.2796085667
 O   -0.0071097161   -0.1326861911   -2.4688972624
 C    0.9407761681    0.4246823005   -3.3800085052
 C    2.2456251204    0.4156026676   -2.6359128766
 C    2.0799466654   -0.1589715560   -1.4500475243
 H    0.7840315193    1.9390725559   -0.1898537609
 H   -0.6439064725    1.7959797560   -0.9627246396
 H    0.5382053008   -0.1740294273    0.8404738485
 H    0.5410780477   -1.6648234415   -1.1788134605
 H    0.9843319548   -0.1847104417   -4.2961203529
 H    0.6199740293    1.4340136468   -3.6754432302
 H    3.1679501171    0.8014061137   -3.0510554019
 H    2.8384155926   -0.3393608030   -0.6986604042