18

 C    0.0479748778    1.5622372018    0.0673109838
 C    0.0090854133    0.0375235356    0.0452420383
 O    0.6749406736   -0.5300576507    1.1697443528
 C   -1.4330455335   -0.5049632138   -0.0577240581
 O   -2.1218133781    0.0463100147   -1.1738771389
 C   -1.4676978845   -2.0374046379   -0.0789092839
 C   -2.8830160078   -2.5654798953   -0.0674487810
 O   -3.3294591372   -3.3566850496   -0.8566216692
 H    1.0816446510    1.9171473449    0.0881117881
 H   -0.4588050359    1.9735495895   -0.8079306685
 H   -0.4667694594    1.9464040382    0.9580599472
 H    0.5690567556   -0.3282502365   -0.8269705096
 H    0.3854733237   -0.0506498808    1.9539844254
 H   -1.9917411065   -0.1456234409    0.8192126700
 H   -1.7913064140   -0.3823526603   -1.9716762789
 H   -0.9501330804   -2.4313370764   -0.9618594290
 H   -0.9403331249   -2.4042115320    0.8103840737
 H   -3.5141095726   -2.1609257406    0.7587384079