17

 O    0.1197443015    1.3186829647   -0.1118342358
 C    0.0567434710   -0.0732845363   -0.0261922962
 C    0.6428190352   -0.7445364201   -1.2699906482
 O    0.3022591890   -2.1326458331   -1.0913991449
 C   -0.7308641201   -2.1704569764   -0.1359698176
 C   -0.3724746485   -1.8645735695    1.3668590270
 C    0.6939450240   -0.7681058997    1.2219183257
 O   -1.5953199619   -1.0680607386    1.4523996173
 C   -1.3470543833   -0.7795725785    0.0583379072
 H   -0.2973076609    1.6845251805    0.6759704132
 H    0.1921734231   -0.3526453274   -2.1928641336
 H    1.7298040159   -0.6456400692   -1.3377760437
 H   -1.3917640168   -3.0205672209   -0.2956587152
 H   -0.2796272715   -2.6186351152    2.1477682660
 H    1.7042531651   -1.1377242050    1.0332668155
 H    0.6984148739   -0.1184137725    2.1011798279
 H   -2.1842961157   -0.3523802230   -0.4921482246