21

 C   -0.1837003372    1.4558208631    0.1164296888
 C   -0.1929755497   -0.0669505240    0.1919513919
 N    0.8831292108   -0.5485947431    1.0644453533
 C    0.9132564982   -1.9921268851    1.1943403449
 C    1.9073775170   -2.5376574143    2.2421557607
 O    0.8064978122   -3.0763631929    3.0333594307
 C   -0.1274602822   -2.5721040062    2.1412111665
 N   -1.3767166529   -2.6054138883    2.1628449972
 C   -2.0527825531   -3.2430227200    3.2851534343
 H    0.7559670621    1.8275405297   -0.3098761162
 H   -0.9991661712    1.8155439640   -0.5178392369
 H   -0.2972325124    1.8920407508    1.1128118737
 H   -1.1375119433   -0.4232714021    0.6143176046
 H   -0.1238461657   -0.4942383114   -0.8262222543
 H    1.7767760308   -0.2354620606    0.6932875252
 H    0.9461585120   -2.5334340714    0.2329016564
 H    2.5817605699   -3.3329998573    1.9161268453
 H    2.4470932178   -1.7655692516    2.7959209336
 H   -1.3751473184   -3.6346228495    4.0524295157
 H   -2.7309577798   -2.5194210805    3.7503054814
 H   -2.6716596851   -4.0655791392    2.9099022332