21

 C   -0.1662976132    1.4424499301    0.0411112835
 C   -0.0380076220   -0.0694229667    0.0199614373
 O    0.0927448674   -0.6826883968    1.0649585227
 C   -0.0272292755   -0.7677035308   -1.3339257819
 C   -1.0101762802   -0.1638314407   -2.3347340631
 C    1.4753295126   -0.8942986229   -1.7977317578
 C    1.5280055769   -2.3226077588   -1.2000020876
 C   -0.0245896738   -2.3376836791   -1.2035415743
 O   -0.7368767772   -2.9639455516   -0.1837572966
 H    0.4951183161    1.9110876577   -0.6942643182
 H   -1.1903847132    1.7323175412   -0.2191799586
 H    0.0631115863    1.8087038892    1.0423009014
 H   -0.8054006564    0.8915217166   -2.5399527400
 H   -0.9460629048   -0.7003469941   -3.2865418146
 H   -2.0429688808   -0.2462319739   -1.9779753240
 H    1.5351605157   -0.8849486661   -2.8895790510
 H    2.1835825739   -0.1595454033   -1.4068744928
 H    2.0436157949   -3.0960554645   -1.7728789355
 H    1.9131055755   -2.3167755751   -0.1776504598
 H   -0.3934018846   -2.7599007427   -2.1450130666
 H   -0.4893712875   -2.4981040478    0.6290631878