17

 C   -0.1044876346   -1.2487808635   -0.1947328391
 C   -0.0543117733   -0.0532575566   -0.0809832869
 C   -0.0058844126    1.3916737122    0.0462417540
 C   -0.5708999655    1.9708267140    1.3948329904
 C    0.6470010851    2.7782501815    1.8883795049
 C    1.7584277793    1.8050697449    2.3237879204
 O    2.2108511953    1.2973983292    1.0555387968
 C    1.4342285797    1.9945366143    0.0981908244
 O    1.2094145125    3.2704131372    0.6562970672
 H   -0.1353562522   -2.3053637003   -0.2947069731
 H   -0.5307469178    1.8482049742   -0.7994810836
 H   -1.4256956338    2.6239472627    1.2112664767
 H   -0.8726709575    1.1853426913    2.0895008591
 H    0.4413987994    3.6037969879    2.5675474588
 H    2.5856082081    2.3146026902    2.8302061772
 H    1.3930627241    0.9860988600    2.9516169133
 H    1.9708118137    2.0556969509   -0.8473379405