20

 C    0.0424546639    1.4259972605    0.5738020572
 C    1.0382020294    2.0867578376   -0.4204437501
 C    1.9958669500    0.9565386728   -0.8690764952
 C    2.4659498530    0.9493253652   -2.3498733388
 C    1.9476362697   -0.3650843848   -2.8975536547
 C    1.2309055990   -1.0528514477   -2.0039487777
 C    1.1493479303   -0.3192227695   -0.7276362956
 N    1.0779403711   -0.8771622731    0.6371609486
 C   -0.0340130257   -0.0343468087    0.1298037030
 H    0.4141358884    1.4780132864    1.6023949221
 H   -0.9371048017    1.9120893015    0.5497772446
 H    0.4812123608    2.4479233143   -1.2940457449
 H    1.5575830620    2.9491563795    0.0081237278
 H    2.8522051780    0.8983533461   -0.1910823523
 H    2.0529722868    1.7982908502   -2.9121484077
 H    3.5554315316    1.0267075738   -2.4471318298
 H    2.1283730888   -0.6772384182   -3.9205344324
 H    0.7472358663   -2.0082609493   -2.1765058607
 H    0.8004784115   -1.8572316850    0.5864773255
 H   -0.9970146933   -0.5040021517   -0.0454241488