15

 C    0.1140028106    1.4910833048    0.0144161872
 C   -0.0589231192    0.0146225795   -0.0322152998
 C   -1.1412083847   -0.8148877624    0.0243791660
 C   -2.5849810763   -0.4400052006    0.1610247197
 C   -0.6146012585   -2.1520468280   -0.0752588021
 C    0.7300840706   -2.0294013575   -0.1831245707
 O    1.0895661293   -0.7188006734   -0.1590841325
 H    0.7400386575    1.7957256686    0.8611310581
 H    0.5921964980    1.8685984759   -0.8968876816
 H   -0.8550198181    1.9840672396    0.1163311029
 H   -3.1756511988   -0.8004848147   -0.6892404016
 H   -3.0285997350   -0.8733241746    1.0650181825
 H   -2.7178071364    0.6436717898    0.2171231533
 H   -1.1786762323   -3.0724120183   -0.0657780588
 H    1.5383315734   -2.7354076486   -0.2804247227