19

 C   -0.1650992020    1.5455493220   -0.0347077806
 C   -0.2780491644    0.0631861699   -0.3805109972
 C    0.9663186688   -0.4926918631   -1.0611133452
 O    1.9103176125    0.2155667138   -1.3519560001
 C    0.9732550198   -1.9416324683   -1.3701773489
 C    2.2662477076   -2.6651389313   -1.7349262432
 C    1.1907890128   -2.6018304678   -2.7458672638
 O    0.1811944323   -3.5757158506   -2.5167893016
 C   -0.1425024464   -2.9771261044   -1.2318802205
 H    0.6731933989    1.7248946567    0.6432763804
 H    0.0132981737    2.1408006238   -0.9332923496
 H   -1.0815735564    1.9015683849    0.4439061822
 H   -0.4754718856   -0.5427118826    0.5153005040
 H   -1.1354833069   -0.1211444813   -1.0427617782
 H    3.0921981224   -1.9773452544   -1.8801548565
 H    2.4963079207   -3.6133866898   -1.2576246754
 H    1.2623593490   -2.1534554199   -3.7302062004
 H   -0.0636175668   -3.6951356997   -0.4073144047
 H   -1.1520050500   -2.5537784579   -1.2586592005