13

 N    0.1117973590    1.2948375999    0.0063567656
 C    0.0618036259   -0.0471951799    0.0002668786
 O    1.0115457062   -0.8133522810   -0.0126302958
 C   -1.4007624793   -0.5613976824    0.0120074391
 O   -2.3444999882    0.1957029501    0.0251049159
 N   -1.4056430679   -1.9310961568    0.0046360445
 C   -2.4821083424   -2.8126144634    0.0104149407
 N   -3.6935918125   -2.4437128708    0.0243749068
 H    0.9963914831    1.7727962523    0.0004382795
 H   -0.7602185718    1.8012532779    0.0175384785
 H   -0.4666617313   -2.3146246813   -0.0065695531
 H   -2.1276496746   -3.8504904876    0.0012712225
 H   -4.3016831662   -3.2612562668    0.0259120472