18

 O   -0.3317181669    0.3095435889    0.5800310858
 C    0.0994739236    1.0152990020   -0.2935232325
 C    1.4927293724    1.6235191675   -0.2873976824
 N    1.5113047043    2.8115188121   -1.1300343672
 C    1.3265618999    4.1564104723   -0.5960385679
 C    1.5815935731    4.4051128851    0.8788187076
 O    2.8401992327    3.8038555384    1.1734390931
 C    3.6214954656    3.7425145530   -0.0167708298
 C    2.6376315372    3.7302921358   -1.1724728096
 H   -0.4962508140    1.2692880912   -1.1988892341
 H    1.8251287099    1.7607778115    0.7481363075
 H    2.1584806272    0.8785400237   -0.7474517741
 H    0.6177253051    4.7924495555   -1.1182834762
 H    1.5967289664    5.4906740336    1.0658462415
 H    0.8405033178    3.9550920973    1.5489282607
 H    4.2822301433    4.6189671127   -0.1136870933
 H    4.2506788963    2.8481001229    0.0513493445
 H    2.9870610961    4.0255294764   -2.1581101037