19

 C   -0.1147957437    1.3172904938    0.0869429274
 O    0.5477833789    0.1087988667   -0.2135888569
 C   -0.2449856075   -0.7915438961   -0.9562518804
 C    0.4735357092   -2.1114205117   -1.0429069855
 C    0.2445375321   -3.0138807076   -2.2160221973
 C    1.5810216455   -2.3277397845   -2.0412582740
 O    0.5604154418   -2.7784642022    0.2044619081
 C    1.5417145305   -2.3802047884    1.0543200342
 O    1.6350146806   -2.8279115457    2.1572263552
 H   -0.3881742163    1.8684864634   -0.8261388456
 H   -1.0297537958    1.1433642432    0.6731250629
 H    0.5737682773    1.9272154743    0.6755934614
 H   -1.2206712023   -0.9413192056   -0.4661165794
 H   -0.4349383412   -0.4045470296   -1.9706711585
 H    0.1943840104   -4.0738906690   -1.9976674448
 H   -0.4200626966   -2.6764522932   -3.0033216434
 H    1.8400226993   -1.5048285679   -2.6976892893
 H    2.4186964634   -2.9417727377   -1.7319987248
 H    2.2172430944   -1.6334439322    0.6095992708