16

 C   -0.1167056497    1.4381568816    0.0123175935
 C   -0.0632172003   -0.0170614407    0.0043752100
 C    0.0293011096   -1.2206382824    0.0162116696
 C    0.0551265811   -2.6500357890    0.0158789600
 C   -0.4096605065   -3.4504480838    1.2508365341
 O   -0.8232796619   -2.8032956605    2.3977882099
 C   -1.2979223957   -3.3723771236    0.0456184010
 O   -2.4404533315   -2.5879722039    0.2255794589
 H    0.8883803210    1.8660564614    0.0958313513
 H   -0.5699924309    1.8329931483   -0.9037832270
 H   -0.7030211563    1.8082514888    0.8605605813
 H    0.8294514078   -3.1194539780   -0.5842772817
 H    0.1347367793   -4.3679826196    1.4527020982
 H   -1.6923210290   -2.4289413145    2.1868987231
 H   -1.4472215081   -4.2306603130   -0.6041498994
 H   -2.2588175888   -1.7132144811   -0.1477871728