20

 C   -0.1532393624    1.5368744373    0.0232156129
 C    0.0501555327    0.0214319246   -0.0321266465
 C    0.8822015780   -0.4943760712   -1.2242072927
 C    1.9693196914   -1.3288234591   -0.5886559708
 N    2.8446015563   -2.0143116071   -1.3756570570
 C    1.9238492111   -1.3221743127    0.7696873674
 C    2.8479614131   -2.0106414974    1.7255448260
 C    0.8080268661   -0.4948429318    1.2101022965
 O    0.5000726543   -0.2266768722    2.3570723347
 H    0.8067019555    2.0627278536   -0.0345104775
 H   -0.7832642548    1.8901715674   -0.7992916818
 H   -0.6262756961    1.8077323093    0.9706351652
 H   -0.9335093277   -0.4635339252   -0.0256931382
 H    0.2959278331   -1.0907981700   -1.9335662613
 H    1.3231182416    0.3307245605   -1.8003588879
 H    2.9437254447   -1.7423204301   -2.3398709409
 H    3.6713622873   -2.4042297767   -0.9519275255
 H    3.9013637670   -1.7569457403    1.5464138460
 H    2.5947509249   -1.7013705782    2.7432263703
 H    2.7626221738   -3.1035735407    1.6749830611