15

 N   -0.0157047898    1.4163305426    0.1265372914
 C    0.0199616807    0.0322195467    0.0423842518
 C   -1.1661941088   -0.7247407973    0.0343547340
 N   -1.2107987489   -2.0476077221    0.0110741968
 C   -0.0485469639   -2.7267732678   -0.0066452257
 C    1.1877586939   -2.0654961988   -0.0031087040
 C    1.2231962773   -0.6818730453    0.0209240775
 C   -0.1066310553   -4.1538724186   -0.0324447965
 C   -0.1192641838   -5.3576530772   -0.0542604331
 H    0.7984943621    1.8995391455   -0.2222646839
 H   -0.8755597717    1.8490029506   -0.1768805954
 H   -2.1262983180   -0.2090549557    0.0486078289
 H    2.1045800140   -2.6428708531   -0.0216000631
 H    2.1722471935   -0.1538980396    0.0259094751
 H   -0.1484825716   -6.4187296399   -0.0732588138