15

 N   -0.0865327181    1.3636721197   -0.3561883444
 C   -0.0256698235   -0.0137140230   -0.1387241974
 C   -1.0540471705   -0.9083481387   -0.0173076942
 C   -2.5442053107   -0.8062028934   -0.1008936609
 C   -2.9695581800    0.1873537021   -1.0897385197
 N   -3.2684274518    1.0004006067   -1.8550274263
 O   -0.5616869824   -2.1572897594    0.2775819683
 C    0.7844896937   -2.0455984049    0.3387703219
 C    1.1759400072   -0.7697712587    0.0951020000
 H    0.7330912827    1.7227001310   -0.8266733162
 H   -0.9218340680    1.6677829460   -0.8413027527
 H   -2.9534903540   -1.7822731823   -0.3853131903
 H   -3.0071664376   -0.5438619727    0.8620126627
 H    1.3224779116   -2.9523940809    0.5610473635
 H    2.1875898413   -0.3943674015    0.0817464456