17

 C   -0.0185461873    1.5728504679    0.0480489831
 C   -0.0360316437    0.0452561901   -0.0227358508
 N   -1.3842107984   -0.5061960078   -0.0517356569
 C   -2.1142692951   -0.7593686801    1.1030277277
 O   -1.7798778827   -0.6094571037    2.2468378469
 O   -3.3197742033   -1.2287577467    0.6709489871
 N   -3.3447014934   -1.2633893390   -0.7484055497
 C   -2.1846833088   -0.8262408496   -1.1198582465
 C   -1.7846276180   -0.7086318491   -2.5475812773
 H    1.0137238936    1.9325931619    0.0899009418
 H   -0.5013872142    2.0206330624   -0.8259739498
 H   -0.5386448291    1.9154773956    0.9461800510
 H    0.4994349754   -0.3171582730   -0.9045948696
 H    0.4486568783   -0.3777245822    0.8612958537
 H   -2.6187730289   -1.0290370258   -3.1729969998
 H   -1.5241592355    0.3232909601   -2.8033498568
 H   -0.9167612488   -1.3393580711   -2.7667091839