21

 C   -0.0210592314    1.5613747840    0.0852585892
 C    0.0133918960    0.0334948043    0.0358139674
 O    0.6039450552   -0.5045772926    1.2179469649
 C   -1.3856199118   -0.5738742203   -0.0793046829
 C   -1.4064182713   -2.0897297055   -0.2444534515
 C   -1.0643387938   -2.9836782884    0.9915966293
 C   -2.3290445571   -3.7972458494    0.6932511346
 O   -2.7466992100   -4.8577979913    1.0594890571
 C   -2.8121513598   -2.7662776188   -0.3420477162
 H    0.9912606068    1.9707789700    0.1818652189
 H   -0.4598636863    1.9770309150   -0.8276610315
 H   -0.6088508162    1.9030747424    0.9431897337
 H    0.5985859003   -0.2790997404   -0.8465830554
 H    1.4902810592   -0.1398756726    1.3030351043
 H   -1.9618312654   -0.2908338541    0.8123475287
 H   -1.8871024861   -0.1122448765   -0.9392997807
 H   -0.7892882400   -2.3756651224   -1.1027983087
 H   -0.1191721597   -3.5308545280    0.9890824959
 H   -1.1374449960   -2.4424732045    1.9401328236
 H   -3.6158550902   -2.1404085623    0.0644220063
 H   -3.1363531324   -3.1609346988   -1.3085118270