23

 C   -0.2518218732    1.5153453789   -0.0470523144
 C    0.0921060407    0.0163872739    0.0168181271
 C    0.7914596350   -0.4852497445   -1.2130781898
 C    2.0384917219   -0.9649492327   -1.2936762155
 C    2.4278568185   -1.3514334110   -2.7031249392
 C    1.1473671833   -1.1235871332   -3.5176996276
 C    1.2801218266   -0.6520666905   -4.9459769123
 C   -0.0516566734   -1.9452077365   -3.1154693253
 C    0.1232762778   -0.5439724241   -2.5529404819
 H    0.6544046704    2.1181908704   -0.1619520173
 H   -0.9110166446    1.7404016317   -0.8915787647
 H   -0.7617091794    1.8367142390    0.8664392886
 H    0.7213068331   -0.1741382189    0.8934868773
 H   -0.8366087241   -0.5518174670    0.1663917596
 H    2.7074671347   -1.0896308843   -0.4484076752
 H    3.2487057687   -0.7223311997   -3.0783033452
 H    2.7842740712   -2.3880064681   -2.7718936490
 H    1.7742622162   -1.4068268469   -5.5699527310
 H    0.3011581613   -0.4478527886   -5.3916893408
 H    1.8740276466    0.2674385178   -5.0077130511
 H   -0.8186291203   -2.0892155263   -3.8708171902
 H    0.0768059259   -2.7810425820   -2.4343475499
 H   -0.5778086267    0.2278099826   -2.8546695023