15

 N    0.0288668921    1.3504257704   -0.1524586593
 C   -0.0218275371    0.0187251234   -0.0558467330
 C   -1.2187693666   -0.6685744352   -0.0071029585
 C   -1.4138318277   -2.0556737941    0.1379515680
 N   -0.5922186989   -3.0751204027    0.0836784382
 C    0.7405449096   -2.9380447942   -0.1534821349
 N    1.5780235623   -1.9463947975   -0.1573132242
 C    1.3405536772   -0.6060002424    0.0403819998
 N    2.2935309229    0.2337216861    0.2421720196
 H    0.9511289741    1.7606237188   -0.0517065735
 H   -0.8018654084    1.9157544834   -0.1901207282
 H   -2.1251057790   -0.0674516762   -0.0113766824
 H   -2.4552617777   -2.3397008556    0.3088448397
 H    1.2109550070   -3.9017376465   -0.3613174959
 H    3.1813239302   -0.2683652677    0.2622503245