17

 C   -0.0522072154    1.5682222841    0.2101912640
 N   -0.1176312814    0.1359692675   -0.0541159554
 C    0.8397016590   -0.6275366879    0.7535002963
 C   -1.4174365155   -0.4058321418   -0.0494834385
 C   -2.5767125277   -0.0893144125    0.5865676987
 O   -3.5604520576   -0.9221875453    0.2063167984
 N   -3.0596399053   -1.8515882449   -0.7177908413
 C   -1.8031730774   -1.5226013527   -0.8609083810
 O   -0.9874392356   -2.1864023454   -1.6956585648
 H    0.9612356369    1.9275521387    0.0069745146
 H   -0.7476778596    2.0937370476   -0.4484158842
 H   -0.2960436672    1.8249857085    1.2558135101
 H    0.6558388752   -0.5226410706    1.8356310229
 H    0.7761879273   -1.6884651031    0.4991258429
 H    1.8544721575   -0.2788761202    0.5381564243
 H   -2.8560885233    0.6793928741    1.2897566359
 H   -0.2009030599   -1.6323787262   -1.8019514330