18

 C   -0.1447588969    1.4862880266    0.0463457220
 N    1.1946001453    0.8780073079    0.0554988161
 C   -0.0005333688    0.0049535839    0.0253893943
 C   -0.2384457868   -0.8757458518    1.2040396171
 C   -0.6104248503   -2.1083927327    0.8525930961
 C   -0.6992262021   -2.2554694195   -0.6428083897
 O   -2.0559680114   -2.2010266804   -1.1648728123
 C   -1.8640893123   -0.8478266985   -1.6256357102
 C   -0.3799479855   -0.8378408691   -1.1872698035
 H   -0.4227934849    1.9972554726    0.9646898237
 H   -0.4974132049    1.9713889277   -0.8612285850
 H    1.6041899731    0.9286035034   -0.8748544566
 H   -0.0982422812   -0.5149846090    2.2167806278
 H   -0.8422146067   -2.9179266877    1.5346454944
 H   -0.1678952928   -3.1260419256   -1.0427033265
 H   -2.0399459449   -0.7623955331   -2.7044861770
 H   -2.5071512124   -0.1315997684   -1.0986980719
 H    0.3375156434   -0.7667248463   -2.0067296989