13

 C    0.0402172807    1.4735776274    0.0224998180
 C   -0.0732133032   -0.0087145216    0.0106629533
 C   -1.1119284023   -0.8600313699   -0.2209414369
 C   -0.5797007902   -2.1858113365   -0.0852502639
 O   -1.2326969531   -3.3715144184   -0.2253362460
 C    0.7385118333   -2.0473412284    0.2179058799
 O    1.0538065494   -0.7140743834    0.2775682274
 H    0.7662048597    1.8261140583   -0.7189374851
 H   -0.9282347616    1.9236663423   -0.2063821890
 H    0.3675942168    1.8430256659    1.0009700859
 H   -2.1284202711   -0.5832171753   -0.4583377641
 H   -2.1536667588   -3.1920409754   -0.4334985509
 H    1.5347164504   -2.7444061150    0.4084401215