21

 C   -0.1225116686    1.6052067287    0.0719628246
 C    0.0161196369    0.0958900752   -0.0346153001
 C    0.8009123574   -0.5742264223   -1.1732743630
 C    2.3428299547   -0.3420293246   -0.8681099798
 C    2.5358373376   -1.8722715861   -0.7833461213
 C    1.0952455177   -1.8135130911   -0.2551965494
 C    1.0571489605   -0.6629009720    0.8460833174
 C    0.9206815412   -0.8853476581    2.3251802893
 O    2.2806696123    0.0293923478    0.5168594727
 H    0.8593378840    2.0846258094    0.0690509767
 H   -0.7047196014    2.0049480000   -0.7655963192
 H   -0.6371657378    1.8924005923    0.9959176624
 H   -0.9574623381   -0.4025812716    0.0499039782
 H    0.4708472866   -0.6445236426   -2.2086251832
 H    2.9927595498    0.3285629070   -1.4281047999
 H    2.5747486781   -2.3515624056   -1.7656361473
 H    3.3443133294   -2.2316927019   -0.1413525567
 H    0.4275254984   -2.6663348569   -0.1445398479
 H    1.7431178493   -1.5007319567    2.7026706657
 H    0.9400253597    0.0700475779    2.8600835452
 H   -0.0237022379   -1.3882068687    2.5532239152