22

 C    0.0983309791    1.4768342824   -0.1471172993
 C    0.0945608667   -0.0112396134   -0.5051493461
 C   -1.2354272249   -0.6914229658   -0.1859407327
 C   -1.2778136977   -2.1710468703   -0.5365447713
 O   -0.3181312838   -2.7514076268   -1.0046766986
 C   -2.5813243646   -2.8604853998   -0.2547823606
 C   -2.9226438287   -4.0935213081   -1.0421988828
 N   -2.6487002590   -4.1994439874    0.3683028399
 C   -1.4266427522   -4.8784053278    0.7942403194
 H    1.0619693495    1.9373064958   -0.3851260447
 H   -0.6756685036    2.0226987433   -0.6985757219
 H   -0.0885869597    1.6316052795    0.9216192873
 H    0.3160455484   -0.1449495441   -1.5694966504
 H    0.8965718999   -0.5314970614    0.0292527115
 H   -1.4845638271   -0.5936034526    0.8814437016
 H   -2.0680943340   -0.1988141775   -0.7107126779
 H   -3.3860283268   -2.2037001375    0.0676723269
 H   -3.9535055856   -4.2541923284   -1.3483814432
 H   -2.1588794541   -4.4261821391   -1.7431747431
 H   -0.5721977624   -4.7316234742    0.1248863110
 H   -1.1574942977   -4.5253974069    1.7947773772
 H   -1.6520978220   -5.9471224098    0.8631264477