18

 O    0.2422678012    1.1761720654   -0.0211967834
 C    0.0051298914   -0.1900379803    0.2008207511
 C   -0.8959100109   -0.6167606078    1.3411553148
 C   -1.4040722811   -0.6332220602   -0.0922938890
 O   -2.2880568059    0.3903344868   -0.4536397240
 C   -1.6928074554   -1.8982903066   -0.8330313668
 C   -1.2893345696   -3.2586211228   -0.3216521779
 C   -2.7419870005   -2.8599885347   -0.3311863423
 H    0.6464944211    1.5513211300    0.7676204763
 H    0.8287861590   -0.8445793220   -0.0777590543
 H   -0.6591383992   -1.5363715818    1.8654971384
 H   -1.3109349212    0.1714175096    1.9610858299
 H   -1.7522150460    1.1944154222   -0.5129001350
 H   -1.6514386458   -1.7640625876   -1.9106509889
 H   -0.9459737086   -3.9844343055   -1.0503396262
 H   -0.7908323001   -3.3329257457    0.6383296912
 H   -3.2046105889   -2.6325559669    0.6228581089
 H   -3.4050999595   -3.3216808720   -1.0536959430