19

 N   -0.3663790980   -0.7759536403   -1.0409364112
 C   -0.1816096500    0.2338798762   -0.5099138246
 C    0.0453971667    1.5232419427    0.1450003754
 N    0.2133856074    1.4691107104    1.6108725412
 C    1.2817474931    2.4938355108    1.5569904143
 C    1.4665343394    2.1877476541    0.0434031522
 C    2.5993855322    1.2568186452   -0.2884426788
 C    3.0673396203    1.1043226468   -1.7134049244
 C    3.9351712829    1.8205851814   -0.7096627328
 H   -0.7342956694    2.2181277992   -0.1994577073
 H   -0.6126691923    1.6978656945    2.1522365246
 H    0.9395351372    3.5217423184    1.7395122451
 H    2.1365588943    2.2824157403    2.2067040457
 H    1.4895488940    3.0629877937   -0.6094489907
 H    2.6283759305    0.3596321014    0.3235346568
 H    3.3644457486    0.1178401461   -2.0490708238
 H    2.5766669124    1.7012637033   -2.4752486152
 H    4.0280144964    2.8985216655   -0.7970639720
 H    4.8331332942    1.3271557000   -0.3554777946