20

 C    0.2681572370    1.4216767582   -0.1883107970
 N    0.3590477536   -0.0323615385   -0.1595167651
 C    0.4836309195   -0.6182232847    0.9389118114
 O    0.5505020531   -0.1434291228    2.2316651505
 C    0.8226727858   -1.4943361863    2.7594265666
 C   -0.1354117920   -1.8736068584    3.8631646200
 C    0.6824702890   -2.0763034666    1.3217955021
 C   -0.4748798617   -3.0151923812    1.0148451752
 O    1.9168533721   -2.6126335457    0.8802202293
 H    0.9890215954    1.8097433174   -0.9156019196
 H   -0.7281853273    1.7148424673   -0.5384695531
 H    0.4514654782    1.8983727801    0.7816554276
 H    1.8641022766   -1.5472300848    3.0880615878
 H   -1.1764442275   -1.7908357371    3.5408303499
 H    0.0512855831   -2.9026536832    4.1869694227
 H    0.0076056300   -1.2157654519    4.7255064074
 H   -1.4282351754   -2.6305307864    1.3868204372
 H   -0.5661747183   -3.1333030035   -0.0693750576
 H   -0.2889473276   -3.9984800320    1.4565233855
 H    1.9661384365   -2.4623646300   -0.0712414807