14

 O    0.6208184082    1.3465086576    1.9849244792
 C    0.7819770217    1.0198227395    0.8419583983
 C    1.2856329875    1.9603496939   -0.2601382649
 O    1.7974037116    1.4509093434   -1.2342754500
 C    1.2211732952    3.4527388423   -0.0855317362
 C    2.5850213941    4.1170644260   -0.1451239140
 N    1.6732754185    4.2303644127   -1.2626852026
 C    0.1599725700    4.0207607450    0.6990360076
 C   -0.7339985827    4.5117449678    1.3329139540
 H    0.6642613818   -0.0207070024    0.4740594850
 H    2.7194098391    5.0153516602    0.4490651398
 H    3.4487551449    3.4619944244   -0.2247801348
 H    1.9321383625    3.5500022023   -1.9794047675
 H   -1.5212408424    4.9381632074    1.9042148561