21

 C   -0.1041036688    1.4274536830   -0.2883166602
 C   -0.1095140640   -0.0443001878    0.0707183249
 C   -0.6555313758   -0.4759605037    1.4132866546
 C    0.8401040945   -0.5278686295    1.1368981318
 C    1.6129819844   -1.7921044274    1.0401552035
 C    2.1459379083   -2.3269091819   -0.0715106054
 C    1.9788253677   -1.8613330271   -1.4466207322
 C    0.8910086039   -1.2475203094   -1.9348505017
 C   -0.3427552343   -0.9881841623   -1.1068922737
 H    0.6573982238    1.6390430678   -1.0484327427
 H   -1.0751316057    1.7385767012   -0.6922655805
 H    0.1112195044    2.0541828471    0.5827066903
 H   -1.0075772892    0.2835955908    2.1034540440
 H   -1.1977774636   -1.4146391038    1.4611919311
 H    1.3967723543    0.2562098688    1.6510111687
 H    1.8498461841   -2.2650787404    1.9928204326
 H    2.7884427661   -3.1977083446    0.0513858497
 H    2.7997208506   -2.0855000566   -2.1251518484
 H    0.8715312976   -0.9694763020   -2.9852796145
 H   -0.6907197574   -1.9522647882   -0.7119460897
 H   -1.1519354010   -0.5968046038   -1.7333647923