17

 O    0.0911056751    0.0823751011    0.2598146137
 C    0.0099703734    1.2720189773    0.0861485412
 C   -1.2155821639    2.0753462663   -0.1881628890
 C   -1.4155290438    3.2783964465    0.7333970147
 C   -0.7671992555    3.4750363024   -0.5956858448
 C    0.7607578203    3.5219123994   -0.6163779016
 C    1.1976744955    2.2342890201    0.0691616664
 C    2.2506185015    2.1091555000    1.0957658789
 O    2.4687236298    1.6775627091   -0.2403792732
 H   -2.0856854294    1.5763497790   -0.5939534780
 H   -2.4421741220    3.6042715637    0.8552266760
 H   -0.8157194760    3.3488800570    1.6355013094
 H   -1.3089992595    4.0116898961   -1.3652755161
 H    1.1259456197    3.5052991325   -1.6490141098
 H    1.1600635513    4.4212800987   -0.1373317694
 H    2.7955597324    3.0019999898    1.4011488473
 H    2.1775751110    1.3119772209    1.8339031240