16

 O   -0.1610878315    1.4593165672    0.0935484974
 C   -0.0598454361    0.0700935595   -0.0137060798
 C   -0.4779730238   -0.7855396892    1.1508849962
 C   -1.3582759476   -0.6870489286   -0.0860110829
 C   -2.6435416746    0.0564236667   -0.0030047680
 O   -3.4312510679    0.1373973746   -1.1937211970
 C   -3.9598635342   -0.6169556544   -0.1022705188
 C   -4.0530242426   -2.0497569889   -0.2865604107
 N   -4.1377449325   -3.1958125274   -0.4114104097
 H    0.5543229218    1.7689985722    0.6587175449
 H    0.7514864077   -0.2857881640   -0.6473583708
 H    0.0340022012   -1.7215817278    1.3415526544
 H   -0.8176544338   -0.2596762595    2.0374975641
 H   -1.3852449758   -1.5499061778   -0.7423775955
 H   -2.6149775044    0.9798933877    0.5720530340
 H   -4.8228425860   -0.1762148504    0.3940304624