17

 C    0.1681403037    1.5161095102   -0.0896099895
 C   -0.0497411521   -0.0004896533    0.0243939442
 C    0.5099703883   -0.5539432041    1.2964563374
 O    1.9310775988   -0.7195664327    1.4220648064
 C    1.0878955697   -1.8876677531    1.6187313347
 C    0.6353128934   -1.7520562516    3.0658529373
 O    0.6183155921   -2.4719504723    4.0174566523
 C    0.0480667414   -0.3180287266    2.7533359234
 O    0.5327342741    0.8117500982    3.4141743719
 H    1.2362867027    1.7512068239   -0.1112992847
 H   -0.2840089348    1.9026858419   -1.0068914170
 H   -0.2741397790    2.0432914352    0.7606807359
 H   -1.1216664508   -0.2302900874   -0.0103368818
 H    0.4177413045   -0.5153494792   -0.8220444513
 H    1.2740305939   -2.7492274588    0.9890810894
 H   -1.0406076559   -0.3349567266    2.8768579804
 H    1.4878477499    0.8248915966    3.2720853410