19

 C   -0.0732737099    1.4165199061    0.0328494417
 O    0.0100701182    0.0126313809   -0.0181952695
 C   -1.2494625288   -0.6121498059    0.0219468808
 C   -1.0900391628   -2.0961957222   -0.0060484195
 C    0.0431266964   -2.8036083278    0.0410350192
 C   -0.2063374175   -4.2977529667   -0.0084752677
 C   -1.7277266672   -4.3933671089   -0.0207328798
 O   -2.3661222739   -3.8552825409    1.1396410983
 C   -2.2662411115   -3.0230924830   -0.0398765352
 H    0.9469697797    1.8053380402   -0.0050819854
 H   -0.6407992260    1.8237947886   -0.8191161707
 H   -0.5526784890    1.7646434446    0.9614304755
 H   -1.8037319949   -0.3124508038    0.9316268653
 H   -1.8737257867   -0.2841465482   -0.8316181520
 H    1.0303584539   -2.3710478497    0.1399465191
 H    0.2239433807   -4.7568302364   -0.9082981691
 H    0.2254848813   -4.8218030137    0.8529298052
 H   -2.2323779731   -5.2396183621   -0.4791975038
 H   -3.2165656088   -2.7448386011   -0.4879354524