20

 C   -0.0101720931    1.4214011498    0.1338945798
 N    0.0095797370   -0.0339076167    0.1987442014
 C   -1.0517981226   -0.6588949386   -0.0808802894
 O   -2.2030005823   -0.0052291359   -0.4383280200
 C   -3.3855482441   -0.7659947964   -0.7471774504
 C   -3.1689092904   -2.2680833026   -0.6238253260
 C   -2.4409325853   -2.5623830214    0.7144339608
 C   -1.1410092251   -2.1576789754   -0.0455625159
 C   -1.8487799707   -2.6461991838   -1.3461733650
 H    0.9777405326    1.8033959880    0.4027920766
 H   -0.2607538926    1.7849199692   -0.8713478968
 H   -0.7483582011    1.8538240705    0.8220323676
 H   -4.1728425230   -0.4275844742   -0.0624255301
 H   -3.6826789288   -0.4969710957   -1.7682443524
 H   -4.0898147558   -2.8039051568   -0.8666692595
 H   -2.7229264126   -1.9833232699    1.5980958690
 H   -2.4443680491   -3.6277483417    0.9554034688
 H   -0.1811859720   -2.5773461791    0.2473315243
 H   -1.7469287632   -3.7264675296   -1.4715853545
 H   -1.6069178777   -2.1412908696   -2.2854598681