18

 O    0.0384768447    0.1418053126    0.3911738759
 C   -0.0371862036    1.2852395417    0.0770068573
 O   -1.1411349044    1.9769788644   -0.3425159015
 C   -0.3879079056    3.2325796354   -0.4309618235
 C    0.9036069923    2.4999485477   -0.0145851776
 N    1.4912494320    2.8766366279    1.2393611035
 C    2.4703527563    3.9871275288    1.2676563309
 C    3.2750314995    3.2031382456    2.3313549474
 C    2.4821051080    1.9610494215    1.8583849237
 H   -0.4250446961    3.6329581839   -1.4454772325
 H   -0.7556038603    3.9545039996    0.2996621581
 H    1.6349301547    2.3958024744   -0.8376249225
 H    3.0258875744    4.0903051156    0.3204702476
 H    2.0535429926    4.9618719740    1.5401968874
 H    4.3583026137    3.1768867200    2.2153018299
 H    3.0239051058    3.4999856910    3.3508766031
 H    2.0677524336    1.2825952105    2.6079179391
 H    3.0407736324    1.3695925853    1.1168968238