16

 O    0.0516812751    0.0607063798    0.4355057934
 C    0.0282048622    1.2030893889    0.0549367042
 O   -1.1385766722    1.7712390577   -0.3177087315
 C   -1.1383572232    3.0513150216   -0.9812992883
 O   -0.1562444653    3.9117374813   -0.5314521014
 C    1.1338025761    3.3573799697   -0.7720466756
 C    1.2593144387    2.0690318685    0.0120001550
 C    2.1339964956    1.9571360447    1.2211518498
 N    2.5470158584    1.3736217355   -0.0522228651
 H   -1.0401229055    2.8554107752   -2.0607272084
 H   -2.1090336265    3.4962492275   -0.7597588002
 H    1.2720789684    3.1677556828   -1.8478577976
 H    1.8712382585    4.0965565139   -0.4549701707
 H    2.6927599486    2.8348105087    1.5351620806
 H    1.8036295433    1.2934491763    2.0138009868
 H    2.3588524178    0.3714345279   -0.0317689211