27

 C    0.1344864897    1.5455321246    0.0308926541
 C    0.0062380607    0.0262162170   -0.1294149231
 C   -1.4359075885   -0.5161728301   -0.0154552493
 C   -2.2687419670   -0.0663501539   -1.2290698806
 C   -1.4407022507   -2.0573057667    0.1837537216
 C   -0.8219515844   -2.4779655149    1.5271952224
 C   -2.8501069072   -2.6507354208    0.0695505670
 O   -2.7757531918   -4.0534817081    0.2326720475
 C   -4.0286183876   -4.6821399865    0.1337463072
 H    1.1837713658    1.8533523676   -0.0200534860
 H   -0.4027325482    2.0961196111   -0.7471329858
 H   -0.2592607346    1.8727685255    0.9999048491
 H    0.4195312621   -0.2780059859   -1.1012125052
 H    0.6381600893   -0.4472555100    0.6277381440
 H   -1.8875094771   -0.0718839680    0.8853808278
 H   -1.9442089511   -0.5830151274   -2.1405915226
 H   -3.3365825308   -0.2588968592   -1.0971956088
 H   -2.1602635524    1.0074855473   -1.4037709640
 H   -0.8470737299   -2.5050475801   -0.6269622889
 H   -0.9138609425   -3.5573543863    1.6590321960
 H    0.2366256203   -2.2183184177    1.5979546574
 H   -1.3428836595   -1.9916531070    2.3615924923
 H   -3.5108595773   -2.2120909566    0.8405753226
 H   -3.2976688267   -2.4235001592   -0.9088383439
 H   -4.4981260582   -4.5094782721   -0.8484130072
 H   -3.8696699168   -5.7556978684    0.2637088467
 H   -4.7273173059   -4.3303870140    0.9101131198