12

 N    0.2636356984    1.2998758785    0.0057687272
 C    0.0355727129    0.0535084279    0.0019889277
 N   -1.2300920067   -0.5081679648    0.0115978168
 C   -2.4616012222    0.1065799731    0.0271441631
 N   -3.5739810876   -0.6303626138    0.0374094095
 N   -4.4940454866    0.3302168614    0.0494062435
 N   -4.0164145663    1.5585037441    0.0474954317
 N   -2.7101239744    1.4423663992    0.0339979116
 H    1.2672718780    1.4688066048   -0.0032801447
 H    0.7934182104   -0.7396413788   -0.0092811733
 H   -1.2798759471   -1.5138601520    0.0083988247
 H   -5.4834725487    0.1347419005    0.0592750721