15

 O   -0.0924993752    1.4199855515   -0.0665657403
 C    0.0349234147    0.0377064591    0.0066257842
 C   -1.2942917860   -0.7404715007    0.0519307234
 O   -0.8672851240   -1.4773548469    1.2295089309
 C    0.3885805083   -0.7873242173    1.2736462302
 C    1.5738445467   -1.4308945786    0.4962340466
 N    1.0146844268   -2.0852486882   -0.7076328348
 C    1.2409306111   -0.6260388314   -0.7213504879
 H    0.7808949769    1.8165934192    0.0268954570
 H   -2.1490230925   -0.0917850970    0.2747147857
 H   -1.5101866256   -1.4022407895   -0.7897787394
 H    0.6317173920   -0.3524569467    2.2468665121
 H    2.5332819295   -1.7392373684    0.8943256224
 H    1.7932297185   -2.5215182981   -1.2008513050
 H    1.8781226589   -0.1597499168   -1.4651923252