16

 C   -0.0514871178    1.5161138222   -0.0078667361
 C   -0.0303088351    0.0104341241    0.0536435721
 C   -1.2296020465   -0.7775342186   -0.4640186175
 C   -1.1588323515   -2.1297804852    0.2437732725
 O   -1.8054372582   -3.1128420190    0.0120208017
 C   -0.1311857464   -2.0007723976    1.4179030824
 O   -0.0477232798   -2.7758249392    2.3336969237
 C    0.6183598690   -0.7348599373    1.1965572985
 N    1.2621942023   -0.6316656450   -0.1382531577
 H    0.8770309593    1.9281557284    0.3940541989
 H   -0.1526328025    1.8560804205   -1.0444230112
 H   -0.8938688815    1.9174215512    0.5643984933
 H   -2.1776386088   -0.2950850084   -0.1936117342
 H   -1.2277776993   -0.8927567185   -1.5531792787
 H    1.1390865576   -0.2546543895    2.0170595749
 H    1.1969158692   -1.5066541879   -0.6586408626