20

 C   -0.1173661449    1.4616336659    0.2954476285
 C    0.0477204842   -0.0311771944   -0.0217086407
 C   -1.2817231777   -0.7827822891    0.0427879550
 O   -2.2918132350   -0.3540570799    0.5357710655
 N    0.7124838148   -0.3959983714   -1.2715322206
 C    0.0843074714    0.1466845673   -2.4706138304
 C    2.1600432281   -0.1894317971   -1.2500964873
 C    2.8463844828   -0.9115208601   -2.3206670549
 C    3.4255353721   -1.4906058084   -3.1997496618
 H    0.8525805843    1.9633320211    0.3536870818
 H   -0.7249340517    1.9655466741   -0.4607295220
 H   -0.6280947824    1.5788349942    1.2537923092
 H    0.6440713851   -0.4930175094    0.7828459597
 H   -1.2251434626   -1.8004164259   -0.4040640301
 H    0.2166202378    1.2364503854   -2.5858423975
 H    0.5122016579   -0.3394324138   -3.3507713924
 H   -0.9894346384   -0.0637914369   -2.4551187221
 H    2.4383010891    0.8800776381   -1.3173230939
 H    2.5388214294   -0.5458000509   -0.2844144337
 H    3.9370924858   -2.0101203588   -3.9719076420