16

 O   -0.0875652209   -0.0320226899   -0.2165905937
 C    0.0069598174    1.1493566625    0.0069055153
 C    1.3188087816    1.8877425413   -0.0108553125
 C    1.2372657230    3.2694557378   -0.7265496082
 O    0.5487856537    3.7924344900    0.4639010820
 C    1.4751269033    2.8930052744    1.1693329683
 C    2.8265564591    3.5945913356    0.8986752085
 N    3.6797454151    2.9155372690   -0.1030353668
 C    2.6458784251    3.8805906748   -0.5414711549
 H   -0.8814805485    1.7702839837    0.2422769640
 H    2.1432758319    1.2202861703   -0.2468764390
 H    0.6990388469    3.4363660879   -1.6585430581
 H    1.1823986181    2.6712646149    2.1946646138
 H    3.2473112750    4.2918730694    1.6120267790
 H    4.5869065872    3.3790735692   -0.1248228455
 H    2.9173584120    4.8141278591   -1.0178253622