14

 N    0.0981973164    1.3778010965    0.1488698674
 C   -0.0359746103   -0.0052965611    0.0459562599
 C   -1.2074590577   -0.6912095802    0.0233634641
 C   -1.2045738060   -2.1374890440   -0.0016994373
 N   -2.2943843146   -2.8294476607   -0.0239533306
 C    0.1547321010   -2.7036727167   -0.0136733083
 N    1.2592043468   -2.0359636954    0.0039035091
 N    1.1574394792   -0.6877434216    0.0118910561
 H    0.7727621343    1.7760522381   -0.4935051098
 H   -0.7869331154    1.8595399965    0.0705904267
 H   -2.1548069770   -0.1665839875    0.0094448878
 H   -2.0746592191   -3.8274540426   -0.0527022075
 H    0.2686080716   -3.7854309917   -0.0306214963
 H    2.0228804406   -0.2083239695    0.1979146287