19

 O   -0.0681992411    1.4216656122    0.1702774815
 C   -0.0270618675    0.0449189300   -0.0419602104
 C    0.8343662240   -0.4845020241   -1.1797534111
 C    0.1990786781   -1.8352200609   -1.5896980874
 C   -1.2767978390   -1.7751821875   -1.1110953171
 C   -1.3023646166   -0.7360282256   -0.0030105758
 C   -0.3039941897   -0.8616872047    1.1601040743
 C    0.4284584474   -2.0481033610    1.4833254745
 C    1.0472621639   -3.0331899256    1.7951408055
 H    0.7835580739    1.6946392505    0.5291370936
 H    0.7733101840    0.2497166303   -1.9909627061
 H    1.8902849897   -0.5907762477   -0.9077695087
 H    0.2714150659   -2.0078762178   -2.6666103596
 H    0.7179164995   -2.6564940640   -1.0938032770
 H   -1.9360933607   -1.4358749904   -1.9182285469
 H   -1.6403613767   -2.7553374791   -0.7868488435
 H   -2.2346733433   -0.2389775678    0.2403890628
 H   -0.6161988318   -0.2839802716    2.0265629752
 H    1.5906450999   -3.9041236753    2.0655471160