23

 C    0.3373739498    1.4655874031    0.3670669288
 C   -0.2167042049    0.1295082195   -0.1463529368
 C    0.5759323552   -0.4360722091   -1.3183384263
 C    1.9733115859   -1.0232459000   -1.1051829816
 C    0.8619649350   -1.9569354138   -1.4610536328
 C    0.3260113318   -2.8941553771   -0.3906562390
 C    0.8488013446   -2.6084363920   -2.8378881898
 C    0.3954057477    0.3304217941   -2.5816392723
 O   -0.4316246354    1.1972770256   -2.7426569181
 H    1.3739725596    1.3619973568    0.7059297605
 H    0.3078259552    2.2276800116   -0.4151518036
 H   -0.2553514902    1.8281765068    1.2126302003
 H   -0.2429194794   -0.5877112561    0.6767142873
 H   -1.2514755868    0.2731694853   -0.4746425057
 H    2.7304853420   -0.8035320777   -1.8528904452
 H    2.3444427653   -1.0195038045   -0.0850873865
 H    0.4626022572   -2.5096123742    0.6212512627
 H   -0.7402634831   -3.1003820052   -0.5363203592
 H    0.8574851487   -3.8509585967   -0.4491702461
 H    1.3690768229   -3.5719550739   -2.7909138111
 H   -0.1754743687   -2.8038600233   -3.1746544972
 H    1.3449632109   -2.0103991620   -3.6039398084
 H    1.1000232567    0.0721931529   -3.4021601698