19

 C    0.0188785055    1.5232763276    0.0792816097
 C   -0.0749913909   -0.0028058775   -0.0329401297
 C   -1.4951904334   -0.5092642641   -0.0564880940
 C   -2.6325449901   -0.2035272343   -1.0606472870
 C   -3.2576748786   -1.1740886023   -0.0461721745
 C   -1.9383340643   -2.0284878879    0.0676524429
 C   -1.9774761860   -1.8798071295    1.5842670633
 O   -1.7156863691   -2.4991076831    2.5708476018
 C   -2.5076853534   -0.5118966489    1.1711855300
 H    1.0622683183    1.8514320308    0.0797707640
 H   -0.4850195508    2.0146591866   -0.7595995350
 H   -0.4454245237    1.8814621321    1.0038912238
 H    0.4336706091   -0.3383516932   -0.9461245132
 H    0.4538714206   -0.4737129621    0.8057046891
 H   -3.0232447689    0.8186647175   -1.0719162143
 H   -2.4976713207   -0.5731387461   -2.0822962712
 H   -4.2667213225   -1.5821611233   -0.0037029169
 H   -1.6332456398   -2.8451367242   -0.5844337058
 H   -2.8377036613    0.3527449718    1.7440400470