20

 C   -0.2658697225    1.3799863239   -0.0284648024
 N    0.1866100425    0.0008568974    0.0221997647
 C   -0.0500637871   -0.7002368566    1.2723709303
 C    0.0450336425   -0.7607976671   -1.1271338606
 C   -0.0059117445   -2.1339904299   -1.3162964107
 C   -0.0976651322   -2.3083092603   -2.7201293809
 C   -0.1773057264   -3.5939698169   -3.4817823093
 N   -0.1149567292   -1.1471707531   -3.3616757961
 N   -0.0308935546   -0.2136889342   -2.3708401253
 H    0.2679889616    1.9325680537   -0.8091671546
 H   -1.3489437275    1.4805202458   -0.2094437767
 H   -0.0295139830    1.8651965506    0.9212469111
 H   -1.0998224169   -1.0091789004    1.4046219091
 H    0.5776790401   -1.5937863288    1.3177401800
 H    0.2296221510   -0.0497588970    2.1049021379
 H    0.0142216313   -2.8993720324   -0.5592443654
 H   -1.0479992336   -4.1864269027   -3.1788722859
 H   -0.2564063522   -3.3865671613   -4.5511046557
 H    0.7100239586   -4.2149600717   -3.3147580573
 H   -0.0239894980    0.7573500509   -2.6229326323