14

 N    0.4274642413    0.3759557710   -1.9300356209
 C   -0.0157421011    0.0751017414   -0.7638224284
 N   -1.3843074321   -0.1517961532   -0.6664375062
 C   -2.1785568517   -0.4901835407    0.4190363416
 N   -1.7161314065   -0.6568073014    1.5976497588
 C   -3.5688906951   -0.6289450854    0.0605633826
 C   -4.7348106497   -0.7517632295   -0.2078126886
 C    0.8192125715   -0.0307590492    0.3965041352
 C    1.6615605105   -0.0746654585    1.2535580582
 H    1.4339273302    0.5212282814   -1.8933153639
 H   -1.8496836116   -0.0439143257   -1.5558710196
 H   -2.4704808538   -0.8992815692    2.2356672053
 H   -5.7667821299   -0.8622112306   -0.4366881754
 H    2.3634170479   -0.1275883903    2.0492920315