16

 C   -0.0052253972    1.5069128594    0.3285596441
 C    1.2884173280    0.8175277619   -0.0348109828
 C    2.1576431388    0.2998579347    1.1029232951
 C    1.1805040489   -0.4514154545    2.0389318176
 C    0.0480327955   -0.9648302276    1.1173884721
 C   -0.0104317837    0.0388782528   -0.0259075474
 H   -0.1784956492    1.8077090028    1.3573591209
 H   -0.4212125422    2.1924528123   -0.4017680112
 H    1.7683719939    1.0930393751   -0.9676291894
 H    2.9045073197   -0.3930208398    0.6959334052
 H    2.7058262937    1.0905891828    1.6272254799
 H    1.6685839179   -1.2592668571    2.5905153535
 H    0.7742397543    0.2348440349    2.7885201109
 H    0.3031001770   -1.9525352901    0.7137715686
 H   -0.9023828768   -1.0724905788    1.6519660871
 H   -0.4889845088   -0.2602312489   -0.9521546943