17

 C    0.1366199643    1.4782330885   -0.2311233980
 C   -0.0585311545    0.0122628573    0.0949971361
 O    1.1303599648   -0.8071222382    0.0829025421
 C    0.4607834446   -0.6271719756    1.3319186245
 C    1.2142487909    0.0914030270    2.4309983927
 C    2.3524126160   -0.7660837138    2.9609085368
 O    2.5352974084   -1.0072707312    4.1251608693
 C   -1.2171894786   -0.5915462276   -0.5268199467
 C   -2.1919331949   -1.0622045614   -1.0490681565
 H    1.0448284685    1.8720433091    0.2269228661
 H    0.2196717444    1.6039303545   -1.3143047215
 H   -0.7221632261    2.0624103482    0.1123921410
 H   -0.0779763762   -1.5146871663    1.6677639714
 H    1.6574578330    1.0162781610    2.0451283581
 H    0.5478645311    0.3411168951    3.2618070274
 H    3.0283456574   -1.1622603814    2.1718529299
 H   -3.0492707631   -1.4889888954   -1.5086581527