18

 O    0.2629869568    0.5608093310    1.0258079330
 C   -0.0841893792    0.3530090558   -0.3374817512
 C   -1.4531158716   -0.3018860307   -0.3429863964
 C   -1.9920990791   -1.0572079842   -1.6169678406
 C   -1.0269506982   -2.2418629870   -1.2488557241
 C   -1.6385140056   -1.7965117576    0.1254178562
 C   -2.9449022160   -1.7246785427   -0.6357323219
 N   -4.1388833931   -2.0794448429   -0.4543230830
 O   -4.9447352357   -1.7353919914   -1.5736079321
 H    1.0927227871    1.0462052945    1.0546132302
 H   -0.1550609092    1.3087624668   -0.8815208480
 H    0.6743129927   -0.2537109058   -0.8497867611
 H   -2.1731537794    0.3854256261    0.1094201147
 H   -2.2126461500   -0.6467191440   -2.5992571812
 H   -1.3150792404   -3.2306961367   -1.6090023347
 H    0.0392803329   -2.0662132060   -1.3897070532
 H   -1.4516263232   -2.2111101173    1.1125941500
 H   -5.8082472188   -2.0580513480   -1.2956507366