20

 C    0.0176322666    1.5303321362    0.1124179404
 C   -0.0113255494    0.0408314956   -0.0227118554
 C    0.5997207092   -0.8544975641   -1.1583612018
 C    1.4278963188   -1.5251400836   -0.0491870834
 N    0.6417959965   -0.8536339613    1.0408731103
 C   -0.6753792292   -1.5549561672    1.2334447868
 C   -1.2762503758   -0.8796923095   -0.0163085477
 O   -2.5661787587   -0.3437634529    0.0373150755
 C   -0.7905008216   -1.5237793908   -1.3405738091
 H    1.0476077092    1.9027700515    0.1217712575
 H   -0.5140177665    2.0046123151   -0.7193943753
 H   -0.4650807269    1.8431608057    1.0440298912
 H    1.1063494536   -0.4817277035   -2.0499705914
 H    1.4333133996   -2.6206281428   -0.0052278631
 H    2.4637759982   -1.1720096792   -0.0199006165
 H   -0.6168773543   -2.6493573179    1.2644991379
 H   -1.1543829495   -1.1941016501    2.1494695900
 H   -3.2005922629   -1.0525961029   -0.1176497648
 H   -1.3288258146   -1.0663306889   -2.1763100095
 H   -0.8284112024   -2.6144587894   -1.4362892918