16

 C   -0.1028269011    1.6196615273   -0.0098386125
 C    0.0649677607    0.1061878133    0.0129060673
 C    1.1361670102   -0.5941237790   -0.8718408359
 O    1.2928718378   -0.6337322972   -2.0611504108
 C    1.7513391339   -1.3129059175    0.2830659844
 C    2.1280173343   -0.2852075724    1.3662670319
 C    0.6950587447   -0.6111056837    1.2143869998
 O   -0.1204593608   -1.1274644993    2.1933437469
 H    0.8233126708    2.1374041065    0.2585877579
 H   -0.3867002300    1.9479048597   -1.0143196412
 H   -0.8843435948    1.9416196960    0.6855301264
 H   -0.8883487569   -0.3868149185   -0.2178811810
 H    2.1908255878   -2.3029375681    0.2859242843
 H    2.6222656678   -0.7506420355    2.2168342428
 H    2.5448967523    0.6835281488    1.1027923459
 H    0.3913569232   -1.2632196904    2.9967671637