18

 O    0.1563114744    1.3639749960   -0.1497403827
 C    0.0909753474   -0.0142995944   -0.0661769318
 C    0.3669105766   -0.8518364617   -1.3369963724
 C   -0.3946404137   -1.9515487929   -0.5436304808
 C    0.5591657914   -2.2179186721    0.6403997124
 C    0.9243687031   -0.7445954880    1.0059382322
 C   -1.2949035088   -0.7910211812   -0.0058451408
 C   -1.9908049820   -0.9257387748    1.2587354456
 N   -2.5153643442   -1.0183528551    2.2862214398
 H    0.1095961749    1.7326664087    0.7396127922
 H   -0.1871387627   -0.4838330107   -2.2027117166
 H    1.4108030150   -1.0405382466   -1.5980292516
 H   -0.8459801372   -2.8077917525   -1.0402515346
 H    0.0674286845   -2.7453582523    1.4609437150
 H    1.4293218259   -2.8021124326    0.3309997981
 H    1.9879234017   -0.5195093457    0.8925894741
 H    0.6193458669   -0.4730590235    2.0212068058
 H   -1.9715685132   -0.4106186506   -0.7735348541