19

 C   -0.0082051606    1.5787748787    0.0359357791
 C   -0.0101479837    0.0555654760   -0.0240842474
 O   -1.3690342842   -0.3539783868   -0.1450556865
 C    0.7640545096   -0.4704757256   -1.2410786147
 O    0.6273065921   -1.8846187811   -1.3100948052
 C    1.2911512331   -2.5480819203   -0.2435427976
 C    0.8391244169   -2.0622692226    1.1369231302
 O    0.7256286330   -2.8257561554    2.0647554349
 C    0.6091980981   -0.5626364146    1.2527101030
 H    1.0098872125    1.9722112037    0.1145593003
 H   -0.4796008023    1.9915233697   -0.8602323929
 H   -0.5784233887    1.9190036527    0.9050030894
 H   -1.3585645459   -1.2411118492   -0.5277581243
 H    0.3283919074   -0.0769539396   -2.1632419805
 H    1.8265110173   -0.1826191508   -1.1963542921
 H    1.0820681295   -3.6152461349   -0.3356384539
 H    2.3833613195   -2.3986497843   -0.3192495219
 H    1.5953018104   -0.1104257267    1.4343844709
 H   -0.0160822240   -0.3631747188    2.1260277092