23

 C    0.0062647548    1.4543568736   -0.1874001479
 C    0.0937246416   -0.0418213571    0.0139020250
 C    1.4421878387   -0.7439595023   -0.0009000991
 C    0.6487754262   -0.6308698836    1.2817775855
 O    1.0851629924    0.3113165955    2.2311665541
 C    0.0059201232   -1.8661814337    1.8854657197
 C    0.9650430128   -2.6774829349    2.7648638053
 C    0.3200478534   -3.9240545268    3.3543633921
 O    1.2887016520   -4.5794890986    4.1596987978
 H    0.8085036445    1.9649680419    0.3491806585
 H    0.0793186355    1.7106920032   -1.2499370024
 H   -0.9448084895    1.8479844602    0.1876172386
 H   -0.7256005588   -0.6049437879   -0.4272590487
 H    1.5304437343   -1.7114073390   -0.4847467313
 H    2.3195172009   -0.1109092437   -0.0901859186
 H    1.9102485164   -0.0095319696    2.6094603772
 H   -0.8625476902   -1.5521753317    2.4795777542
 H   -0.3761122074   -2.4979261867    1.0738046764
 H    1.8452684912   -2.9808237397    2.1847365192
 H    1.3264588912   -2.0586890139    3.5950026060
 H   -0.5649659226   -3.6392121285    3.9468184879
 H   -0.0320458073   -4.5804822342    2.5411885508
 H    0.8825396167   -5.3633468126    4.5406238899