23

 C   -0.1871866374    1.5144410771    0.1406010997
 C    0.0848863707    0.0104548279    0.0306376866
 C    0.8115382769   -0.4159131848   -1.2598165730
 C    2.2909112241    0.0114501294   -1.2416919377
 O    2.9070532494    0.0152286027   -2.5132885476
 C    0.6586051221   -1.9474161102   -1.4490541485
 C    1.2579300088   -2.5004289248   -2.6632197287
 C    1.7352796247   -2.9740065871   -3.6647843179
 C    2.2969968342   -3.5558099219   -4.8770510204
 H    0.7348036484    2.1033585810    0.1465399046
 H   -0.7973750957    1.8648109923   -0.6989299351
 H   -0.7276903591    1.7448999100    1.0639529042
 H    0.6684310592   -0.3255931361    0.8995203997
 H   -0.8715792708   -0.5241488837    0.0899801683
 H    0.3415037358    0.0839002079   -2.1166474861
 H    2.3753335045    1.0378480283   -0.8712713642
 H    2.8367312498   -0.6303631169   -0.5262734545
 H    2.7971552429   -0.8673407733   -2.8888576643
 H    1.0913780321   -2.4509542198   -0.5725400185
 H   -0.4102257224   -2.1977487042   -1.4408685286
 H    1.6780054546   -4.3841535020   -5.2389114753
 H    2.3618940868   -2.8153371439   -5.6816823267
 H    3.3052648503   -3.9472082479   -4.7033868959