17

 O    0.0863399209    1.4339103815    0.1956874893
 C   -0.0079758006    0.0556129876   -0.0029669953
 C   -1.3749962574   -0.6746794706   -0.1274000291
 C   -2.3158950652    0.1289499178   -1.0065357177
 O   -1.6242250211    0.6918583266   -2.1468620650
 C   -0.3735959125    0.2200286183   -2.4597039767
 N    0.2205485598    0.5323984551   -3.5289109638
 C    0.2611401213   -0.6183635233   -1.3848015136
 N   -0.7335955177   -1.6945489802   -1.0243184425
 H   -0.3565556272    1.8842269795   -0.5333808551
 H    0.6073531227   -0.4166982518    0.7671937614
 H   -1.8881562146   -1.0495938589    0.7614239136
 H   -3.1227527284   -0.5088145528   -1.3812456436
 H   -2.7477121603    0.9727830006   -0.4590889293
 H   -0.3794559704    1.1211310983   -4.1116476281
 H    1.2597001912   -0.9331845354   -1.6814668968
 H   -0.2501776506   -2.3780745922   -0.4440855779