24

 C   -0.0405154522    1.5395560654    0.0193711855
 C    0.0023861829   -0.0041655128    0.0233380908
 C    0.6896497570   -0.4739390400    1.3200090357
 C   -1.4536223905   -0.5189346433    0.0225447790
 C    0.7569555086   -0.5241881797   -1.2557688086
 C    2.1994006309    0.0031882203   -1.3587557839
 C    0.7813226101   -2.0599847709   -1.3564675536
 O   -0.0004246502   -0.0048745987   -2.3617786225
 H    0.9515909413    1.9797453894    0.1566698553
 H   -0.4561997105    1.9165484000   -0.9170808709
 H   -0.6677261963    1.8954669948    0.8434196497
 H    0.1374777686   -0.0937474499    2.1860923884
 H    0.7131786224   -1.5644837658    1.4051249611
 H    1.7157957081   -0.1034985326    1.4029885024
 H   -1.9560342588   -0.2688202305   -0.9138783572
 H   -1.5076328940   -1.6026148944    0.1626053338
 H   -2.0101133654   -0.0595074260    0.8461739426
 H    2.8266770319   -0.3441509944   -0.5332185553
 H    2.6566244183   -0.3622003861   -2.2861540506
 H    2.2249461603    1.0938883697   -1.3843385409
 H   -0.2278631765   -2.4745846399   -1.3806622196
 H    1.2855544749   -2.3573565899   -2.2838013088
 H    1.3309409393   -2.5199601959   -0.5306497324
 H    0.4273620800   -0.2995851485   -3.1720578503