15

 O   -0.1055254200    0.0081489511    0.1829160754
 C   -0.0454053641    1.2020998051    0.1184481691
 N   -1.0021430992    2.1990980832    0.0849946723
 C   -0.0757523386    3.3320523817    0.0223928564
 C    1.0508617148    2.2759493602    0.0223839347
 N    2.3159889810    2.2651585372    0.7221701744
 C    2.3215300940    2.2823148790   -0.7623939183
 C    2.8194401197    1.1242447039   -1.4492809147
 C    3.2442563677    0.1811157036   -2.0600600081
 H   -2.0090836425    2.1589071121    0.0824180819
 H   -0.1568586729    3.9393311443   -0.8852249653
 H   -0.0966375531    3.9796064446    0.9068155399
 H    2.5386731293    3.1912442136    1.0814246673
 H    2.5560501340    3.2314860606   -1.2424971613
 H    3.6051620299   -0.6697724700   -2.5829055536