16

 N   -0.1122563314   -1.1372890965   -0.3182407169
 C   -0.0638940371    0.0035527719   -0.1352398992
 C   -0.0105056593    1.4332086467    0.0983418012
 C   -0.2376037221    2.3131223672   -1.1678538364
 O    1.1183405423    2.7904830502   -1.1599376001
 C    1.4027604353    2.1120697414    0.0877814614
 C    1.3771677409    3.0104657576    1.2902477942
 C    0.2383603415    2.9035308279    1.9739976058
 C   -0.7182941182    1.8844737738    1.4017156798
 H   -0.4734947448    1.7659358126   -2.0853639529
 H   -0.9681920759    3.1172546553   -1.0166022734
 H    2.2918304824    1.4811265964   -0.0035925064
 H    2.1996092626    3.6734716610    1.5303636785
 H   -0.0065712686    3.4693639438    2.8663082502
 H   -1.7097703143    2.3054373499    1.1960159601
 H   -0.8734314633    1.0433262909    2.0868938142