17

 C   -0.1315392114    1.5759109125   -0.0234559162
 C    0.0068693336    0.0757140739    0.0248248098
 O   -1.1131211714   -0.6402219248   -0.4135417430
 C    1.3544785306   -0.5927343208   -0.2333329207
 C    2.5438845140    0.1544752799   -0.4945715244
 C    3.5445784221    0.7792189561   -0.7310189941
 C    0.6998536422   -0.6092664056    1.1753320375
 C    1.2649821749    0.1206558018    2.2675398127
 C    1.7376478846    0.7229864044    3.1948895141
 H    0.7568993178    2.0694092454    0.3724986245
 H   -0.2724739853    1.9118004494   -1.0577005433
 H   -1.0007237132    1.8872981071    0.5631582897
 H   -1.2765251898   -0.4004739101   -1.3332108379
 H    1.2770915615   -1.5483136568   -0.7434521456
 H    4.4303050419    1.3286168225   -0.9330108281
 H    0.2673901265   -1.5721719381    1.4298225870
 H    2.1565764814    1.2546806532    4.0128191880