16

 C   -0.2964288822    1.4718717202   -0.0453481429
 C    0.1850198154    0.0207839648    0.0567755885
 C    0.8007945863   -0.5021675345   -1.2365332505
 C    0.6256010952   -1.9452908140   -1.5834517896
 N   -0.1040203242   -0.9207216590   -2.3394492529
 C    2.0033774427    0.1768708020   -1.6597145400
 C    3.0164531003    0.7473887664   -1.9659224492
 H    0.5323226171    2.1376769117   -0.3021190582
 H   -1.0642267281    1.5827700162   -0.8181802411
 H   -0.7229314618    1.8075620159    0.9043927858
 H    0.9261029600   -0.0679812954    0.8599124251
 H   -0.6508371778   -0.6365949513    0.3279682832
 H    1.4016970722   -2.4575102154   -2.1434455000
 H    0.0862987704   -2.5655668319   -0.8715071174
 H   -1.0657775230   -0.8663882313   -2.0091121416
 H    3.9072431076    1.2477010159   -2.2551300291