18

 C   -0.1046901503    1.3953645940   -0.1424999833
 C    0.0032474724   -0.1148728630   -0.0616513270
 O    0.9668141192   -0.7448914155   -0.4312046195
 N   -1.0849705415   -0.7324172225    0.5613579508
 C   -2.4794635756   -0.6445812694    0.2313490572
 C   -1.7240145146   -1.9644318249    0.1324530922
 C   -1.4338572021   -2.5767767036   -1.2175767096
 C   -1.9582317703   -2.9207475955    1.2671045615
 O   -2.1154280091   -4.1054864331    1.1300782190
 H    0.8769447601    1.8098257655   -0.3709560882
 H   -0.8019767513    1.6801510685   -0.9385401151
 H   -0.4852477109    1.8138641871    0.7930099173
 H   -3.1637196022   -0.4569074643    1.0561654288
 H   -2.7680129364   -0.1988797575   -0.7184586781
 H   -1.4582008534   -1.8237839197   -2.0086204902
 H   -0.4441950012   -3.0382503722   -1.2203818272
 H   -2.1764863873   -3.3486049445   -1.4322681897
 H   -1.9816278055   -2.4277969895    2.2644974711