19

 C    0.0773047948    1.4904573967   -0.1341391705
 N    1.2865395757    0.6489659396    0.0169608035
 C   -0.0250785061    0.0256645174    0.0125716866
 C   -0.6142470192   -0.8070376042    1.1513797408
 N   -1.3989435088   -1.5504870984    0.1271331163
 C   -0.6028812675   -0.9977143121   -0.9762015013
 C   -1.2354497148   -0.6378028607   -2.3331463985
 O   -0.1772944792   -1.3104753059   -3.0507928972
 C    0.3537908945   -1.8649391573   -1.8342346768
 H   -0.1372629870    2.1371289155    0.7125768970
 H   -0.1330615451    1.9299608736   -1.1058963487
 H    1.7419476544    0.5294830543   -0.8860156789
 H    0.1488419197   -1.3977078669    1.6739138388
 H   -1.2315423260   -0.2851694733    1.8897254333
 H   -1.3796459061   -2.5614048490    0.2083282982
 H   -2.2149432304   -1.1088803255   -2.4892853732
 H   -1.2999223161    0.4256286705   -2.5929741139
 H    1.4321146278   -1.6894032547   -1.7296143747
 H    0.1608859495   -2.9452478196   -1.7498204309