17

 O   -0.0056257802    1.4546043621    0.0333015526
 C    0.0868529461    0.0410554855    0.0304861747
 C   -1.2973879987   -0.5555008059    0.0520995786
 N   -2.1543248844   -0.3830170542    1.2557238931
 C   -2.4260884765   -1.8414206208    1.3272771751
 C   -1.7524252711   -2.0506768786   -0.0538467272
 N   -2.5292106368   -1.6549179662   -1.2311675799
 C   -2.1714848421   -0.3229663265   -1.2070628833
 O   -2.4436024455    0.6263789127   -1.8963434684
 H   -0.6032888209    1.7015179461   -0.6857962748
 H    0.6367348512   -0.3372263406   -0.8469497094
 H    0.6565289588   -0.2395603635    0.9244380983
 H   -1.6615250905    0.0058765113    2.0507837884
 H   -1.8746088031   -2.3648055175    2.1181560528
 H   -3.4875901272   -2.0994319575    1.4038474220
 H   -1.0935548274   -2.9060145364   -0.2019780104
 H   -3.2845624817   -2.1226375900   -1.7124567422