15

 C   -0.0230595187    1.4089635757   -0.0459153026
 N    0.0038067294   -0.0478416823   -0.0213155148
 N   -0.0296341835   -0.6656585734   -1.2252750568
 C   -0.0069181138   -1.9623512573   -1.2353450921
 O   -0.0394329564   -2.6039663734   -2.4257275249
 C    0.0509437547   -2.7629354169   -0.0536768173
 C    0.0836912558   -2.1294655402    1.1395135041
 C    0.0609183784   -0.6748840652    1.2245495920
 O    0.0872380977   -0.0168663313    2.2559202252
 H    0.8713523700    1.8087808116    0.4391202195
 H   -0.0671686928    1.7209468531   -1.0875749892
 H   -0.8928299255    1.7773361176    0.5044318841
 H   -0.0768667945   -1.9249386930   -3.1129754651
 H    0.0666840985   -3.8427463567   -0.1482638142
 H    0.1279441806   -2.6603040183    2.0826877422