17

 C    0.0012805692    1.4779689081   -0.1555372266
 N    0.0005651110    0.0238796456   -0.0311738658
 C   -1.2301717381   -0.5324896139    0.6351110893
 C   -0.9413257647   -2.0353257726    0.4851761645
 C    0.2887846847   -1.9586176920    1.4124476885
 O   -0.3405976575   -1.6109059832    2.6835074433
 C   -0.5545794277   -0.3307648865    2.0892028600
 C    0.6926089760   -0.4393323522    1.1916656780
 H    0.9980468421    1.8128855796   -0.4611211204
 H   -0.7045559796    1.7707266166   -0.9392386906
 H   -0.2692285201    2.0226845306    0.7663727804
 H   -2.1948183812   -0.1240168143    0.3387954311
 H   -1.6956521233   -2.6998241061    0.9099287662
 H   -0.7240166235   -2.2905603552   -0.5525290689
 H    0.9963883899   -2.7824508714    1.4793256328
 H   -0.8576825468    0.4594603383    2.7729689100
 H    1.7007333396   -0.0964561215    1.4207288283