18

 C   -0.7980417214    1.3461534817    0.0265631937
 C   -0.0242232026    0.0499827372   -0.0488269447
 O    1.1582755865    0.1455275119   -0.8848604408
 C    1.9810399751   -0.5156427502    0.1006345749
 C    3.1312675880    0.3455123478    0.5993422530
 C    2.5574439670    1.1183292730    1.7952053743
 O    3.0879311643    2.0078003070    2.4184902339
 N    1.3132041550    0.5902391981    2.0586063398
 C    0.8424824102   -0.4231879175    1.1528171816
 H   -0.1827476391    2.1463958948    0.4454290162
 H   -1.1168997661    1.6454884349   -0.9764022169
 H   -1.6941132611    1.2248264101    0.6452452522
 H   -0.6704938075   -0.7660595813   -0.4045519631
 H    2.2707216475   -1.5200608408   -0.2229703433
 H    3.9896153822   -0.2443568602    0.9363877650
 H    3.4783287742    1.0393206791   -0.1693879327
 H    0.7615249941    0.9689660862    2.8123100623
 H    0.5094452137   -1.3276277518    1.6675461345