19

 C    0.4625996928    1.4173794295    0.6664105524
 C    0.1432713457    0.0422453637    0.1003973706
 N    1.0844608642   -0.4819039626   -0.9349767398
 C    1.2149962064   -1.8107540694   -0.2642137598
 C    2.6145754409   -2.3483314532   -0.0766214602
 C    3.4939176238   -1.8535680215    1.0081445998
 N    2.9132400737   -3.2068670976    1.0818464085
 C    0.4925999064   -1.1928552403    0.9434710199
 O    0.3376233105   -1.5171940789    2.0858616744
 H    1.5121052883    1.4727036920    0.9668828186
 H    0.2799354328    2.1954667379   -0.0809393312
 H   -0.1665134760    1.6216588920    1.5382994506
 H   -0.9152661051   -0.0093750394   -0.2006492736
 H    0.6866077761   -0.5295606512   -1.8659977800
 H    0.5808130801   -2.5931562109   -0.7121464235
 H    3.0835357296   -2.6842196369   -1.0001964164
 H    4.5687209545   -1.8218125106    0.8552309193
 H    3.1098216423   -1.0901043345    1.6788219657
 H    2.1236599532   -3.1875925482    1.7260178947