17

 C   -0.0894799053    1.5115572392    0.0349791362
 C   -0.0786568819   -0.0113846785    0.0544493887
 O   -0.1474249381   -0.6252782952    1.1099979918
 C    0.0062914336   -0.6858736094   -1.2366173931
 C    0.0626949595   -2.0312526624   -1.3777181284
 N    0.2173597706   -2.4371601783   -2.6774022531
 C   -0.0594925840   -1.2878814690   -3.5589780330
 C    0.1390071899   -0.0656501159   -2.6226490612
 H    0.8131828872    1.9018104356   -0.4498824232
 H   -0.9453170202    1.8875334525   -0.5380155274
 H   -0.1453139577    1.8854772885    1.0578166992
 H    0.0383941485   -2.7556641072   -0.5742280388
 H   -0.1097081095   -3.3509325862   -2.9515203603
 H    0.6117214025   -1.2847106017   -4.4214406040
 H   -1.0931246306   -1.3309714152   -3.9301914807
 H   -0.5906592073    0.7218529564   -2.8320673856
 H    1.1340171728    0.3766953566   -2.7684461273