23

 C    0.0473160094    1.4805576818    0.0032351315
 C    0.0569759747   -0.0169992083   -0.0147417023
 C   -0.0155231418   -0.7997302087   -1.0957893121
 C   -0.0260502856   -2.2672723444   -0.7413961042
 C    0.5047905399   -2.2585990141    0.7113778593
 O    1.9113470966   -2.4639157360    0.7341531167
 C    0.0860054296   -0.8562554344    1.2682249667
 C    1.0544744912   -0.3290776714    2.3357939902
 C   -1.3364182075   -0.9378373004    1.8653040837
 H    0.9565711105    1.8846524303    0.4642847302
 H   -0.0304235192    1.8902565308   -1.0076228391
 H   -0.7949929550    1.8692850177    0.5896993733
 H   -0.1000159441   -0.4357472284   -2.1149742268
 H   -1.0392212615   -2.6877555971   -0.8075317723
 H    0.6132557292   -2.8909149748   -1.3756387430
 H    0.0943859466   -3.0679317984    1.3221575064
 H    2.3013345746   -1.8224623604    0.1286852338
 H    2.0700969703   -0.2163001974    1.9497892688
 H    0.7219835161    0.6433124024    2.7146185289
 H    1.1039467275   -1.0185239120    3.1846029005
 H   -1.3389230905   -1.5474115283    2.7757551750
 H   -1.7096849686    0.0564223384    2.1322041413
 H   -2.0448929625   -1.3791665269    1.1575042936