15

 C    0.0645085706    1.4170380940   -0.1662596046
 C    0.0116914907   -0.0649816018   -0.0245939867
 O    0.5253305713   -0.9201823962   -1.0953592791
 C    0.0779343523   -1.8917851487   -0.1280316375
 C    0.1941741480   -3.3559313225   -0.3455178181
 O    0.6627504503   -3.8654235178   -1.3300005552
 C    0.4824144972   -1.0261907682    1.1232009708
 O   -0.8206962887   -1.1031153169    1.7594257282
 C   -1.1586176473   -1.0417696019    0.3484850563
 H    1.0983633100    1.7546959975   -0.2832354100
 H   -0.5067807360    1.7393798365   -1.0416318399
 H   -0.3614062120    1.8859223840    0.7257225546
 H   -0.2015767407   -3.9520567614    0.5059103776
 H    1.3823980384   -1.0476334062    1.7373973259
 H   -2.2042775041   -1.0817605005    0.0440795477