16

 C    0.3713511303    1.1771216644   -0.2842294613
 O   -0.2883987597    0.3877429777    0.7153708393
 C   -1.2909039080   -0.3871361238    0.2654292987
 C   -1.3172124234   -1.6781728006   -0.0891837762
 O   -2.6159290123   -2.0328892597   -0.4121610009
 C   -3.4274129284   -0.9314843338   -0.2501053863
 O   -4.6154635468   -0.9217300011   -0.4380546891
 N   -2.6038722795    0.0971425620    0.1609580964
 C   -3.0902154849    1.4110796285    0.5209185011
 H    1.1737295155    1.7096051421    0.2281583123
 H    0.7893383809    0.5346077483   -1.0664933654
 H   -0.3149179035    1.9011519982   -0.7383229491
 H   -0.5612100799   -2.4392452132   -0.1468775466
 H   -4.1764291847    1.3428531244    0.5981631982
 H   -2.6680859164    1.7219556901    1.4797564862
 H   -2.8383104793    2.1599585265   -0.2383243374