16

 N    0.0843397485    1.3961319085    0.0260730927
 C   -0.0782110209    0.0292948854    0.0113628964
 C   -1.1512936098   -0.8019070968    0.0798208624
 C   -2.6403837579   -0.9490199090    0.1793052647
 C   -2.8040982174   -2.4760720875   -0.1281380570
 N   -1.4980270878   -3.0840413685    0.2201710984
 C   -0.5513066465   -2.0836078828    0.0972536291
 N    0.7542729889   -2.0968876169    0.0299906676
 O    1.0638709137   -0.6891169953   -0.0267118923
 H    0.9655866490    1.7020556971   -0.3631946507
 H   -0.6997852511    1.9148731965   -0.3404945600
 H   -3.0129372765   -0.7177076430    1.1851330843
 H   -3.2181777520   -0.3458279677   -0.5275889690
 H   -3.6076805772   -2.9339122414    0.4547006941
 H   -3.0339175318   -2.6151387645   -1.1941998101
 H   -1.2882149011   -3.9817912141   -0.1916040409