12

 O    0.0319371199    1.4092116560   -0.1114285065
 C    0.0032004576    0.0121191077    0.0044699756
 C   -1.4218358328   -0.4492562820    0.0204687644
 N   -2.4561282380    0.3193375266    0.0814753010
 O   -3.5707273086   -0.5627268046    0.0833005070
 C   -3.1537643941   -1.8644835506    0.0229825829
 O   -3.8580382108   -2.8318727680    0.0083638414
 N   -1.7671341045   -1.7754331175   -0.0153100907
 H    0.9377956999    1.7036556559    0.0195090407
 H    0.5147613487   -0.4915660703   -0.8345868593
 H    0.4852245765   -0.3450708380    0.9303941947
 H   -1.1640967439   -2.5772582751   -0.0781530412