14

 O    0.1084204296    0.0657291609    0.3675589914
 C    0.0768374873    1.2196878434    0.0118687082
 N    1.1214861239    1.8984304413   -0.5871599108
 C    2.4997601711    1.7917742130   -0.1462989098
 C    3.3781337303    2.3637767781   -1.2687195301
 C    2.5915376140    3.7207142678   -1.1541987740
 C    1.7471555610    3.0963989563   -0.0354155753
 H   -0.8379245978    1.8422365874    0.0555782235
 H    2.7544122108    1.0691645769    0.6184217052
 H    4.4237221279    2.4679922737   -0.9730392544
 H    3.3192027553    1.8350581599   -2.2221589657
 H    3.2243983663    4.5364011040   -0.7990560441
 H    2.0339174577    4.0474867973   -2.0343702746
 H    1.3236240126    3.5731912001    0.8411495606