16

 C   -0.1338822270    1.4771024718    0.2091168948
 N   -0.1099706636    0.0146265774    0.0740235074
 C   -0.0593480668   -0.7588422918    1.3137213750
 C   -0.1320703453   -0.6083063384   -1.0914450671
 N   -0.1098538927   -1.9244325132   -1.1818575687
 H   -0.1336612650   -2.2009055482   -2.1717160600
 H   -0.0753057964   -2.5744346112   -0.4156377160
 C   -0.1877849034    0.0533996589   -2.5837821251
 O   -0.2113415660    1.2800184586   -2.6411331608
 O   -0.1964463547   -0.8492345988   -3.4313106890
 H    0.7657050970    1.8042982986    0.7407634798
 H   -0.1706978375    1.9078299090   -0.7911256511
 H   -1.0133521361    1.7705227547    0.7917108553
 H   -0.9375196009   -1.4086666881    1.4075337470
 H    0.8466775910   -1.3749720207    1.3556878180
 H   -0.0476901225   -0.0728793588    2.1600369904