18

 O    0.0541589047    0.9984344176    0.8698139125
 C   -0.0066816758   -0.0342439072   -0.0665016588
 C   -1.3986341665   -0.6730431296   -0.0481967960
 O   -2.2595858720   -0.2395899377    0.7054471969
 N   -1.6114575996   -1.7040185007   -0.9009091393
 C   -2.8820151247   -2.4100975649   -0.9515686650
 C   -3.0264143174   -3.4694999975    0.1604648579
 C   -4.4066285591   -4.0868673362    0.1600143942
 O   -4.6349980893   -5.2580131459    0.0012916405
 H   -0.8362101345    1.0271988253    1.2597402145
 H    0.1993029752    0.3355051949   -1.0842345122
 H    0.7452844765   -0.8107686796    0.1493900866
 H   -0.8374640325   -2.0595323971   -1.4388457091
 H   -3.6765894884   -1.6648757405   -0.8542471699
 H   -2.9733756875   -2.8757424229   -1.9368387477
 H   -2.2818261472   -4.2631956778    0.0558109756
 H   -2.8805067166   -2.9610895591    1.1219247319
 H   -5.2353638853   -3.3574687309    0.3161958373