23

 C   -0.1505366322    1.5456053345    0.0132391799
 C    0.0159144347    0.0190599102   -0.0120902504
 C   -1.3483295007   -0.6528006985   -0.2058928994
 O   -2.1931910584   -0.2608673371    0.8681602339
 C    1.0376952466   -0.4501625734   -1.0770348554
 C    2.4162727273    0.2099466947   -0.9069731332
 C    1.2163407218   -1.9582964736   -1.0563415521
 C    0.5939169366   -2.8630659109   -2.0319383119
 O    1.9755500570   -2.5198679662   -2.1313030712
 H    0.7602305532    2.0508469333    0.3427723051
 H   -0.4054047237    1.9267845312   -0.9836129383
 H   -0.9575013888    1.8189227040    0.6955410714
 H    0.3834674164   -0.3006663983    0.9742616542
 H   -1.7721932444   -0.3452705729   -1.1774564528
 H   -1.2356855597   -1.7456020773   -0.2272707373
 H   -3.0565038151   -0.6614572827    0.7335890578
 H    0.6524951741   -0.1807977852   -2.0710518510
 H    2.3721020174    1.2892419719   -1.0685558368
 H    2.8138536253    0.0355649346    0.1000456174
 H    3.1211536821   -0.2128583077   -1.6275153906
 H    1.4743793611   -2.3755262755   -0.0791552713
 H    0.3850082185   -3.8984388157   -1.7641608880
 H   -0.0459306789   -2.4498264795   -2.8113311499