18

 C   -0.1612755907    1.5251595340    0.0197008186
 N    0.1551729987    0.0816128937   -0.0986202947
 H   -0.6552388744   -0.4056330606   -0.4769588395
 C    1.4118646585   -0.3858411069   -0.8852799601
 C    1.8928018360   -1.1649383122    0.3245761729
 C    2.0322546193   -0.2558224140    1.5030972202
 C    0.6601821374   -0.6839752369    1.1054615121
 C    2.3658529318   -2.6446223058    0.2403057960
 O    2.3746108927   -3.0672841672   -0.9294592145
 O    2.5966268610   -3.1491219572    1.3471548057
 H    0.7104116370    2.0451565379    0.4148331220
 H   -0.4134086162    1.9215818383   -0.9660827892
 H   -1.0038779479    1.6509590257    0.7026350907
 H    1.1245353651   -1.0504299227   -1.6992757029
 H    1.9886447800    0.4719403876   -1.2400551317
 H    2.3837849171   -0.8017794463    2.3745013364
 H    2.3651283966    0.7764840912    1.4230786159
 H   -0.0653552621   -1.2110743989    1.7110285620