22

 C    0.0700876602    1.5033081270   -0.1473567744
 C    0.0254957686   -0.0113497284   -0.0714898235
 O    0.8285507289   -0.5230362795   -1.1451717500
 C    0.9155881245   -1.8712301285   -1.2735496082
 C    1.8229079437   -2.1858552269   -2.4581624815
 O    1.7103889959   -1.2485806812   -3.5049545509
 N    0.3296105941   -2.6360433537   -0.4564754076
 C    0.4222780308   -4.0818837212   -0.5413795688
 C    1.2439141708   -4.6395051462    0.6259326661
 H    1.0955679001    1.8707917896   -0.0475707861
 H   -0.3329932952    1.8605392576   -1.0995596392
 H   -0.5289016969    1.9329329669    0.6610611221
 H    0.4200466837   -0.3886548131    0.8776303487
 H   -0.9930524917   -0.3996772958   -0.1730302412
 H    2.8574270572   -2.2466285487   -2.0770503950
 H    1.5753374220   -3.1656728865   -2.8718184760
 H    1.6017074859   -0.3872436092   -3.0857304451
 H   -0.5981762230   -4.4794568480   -0.4766758306
 H    0.8423186279   -4.4471549260   -1.4898824698
 H    2.2831772738   -4.2997700509    0.5700512266
 H    0.8297845371   -4.3009403717    1.5798075147
 H    1.2403073416   -5.7339560355    0.6120632697