15

 N   -0.0362223779    1.3752768339   -0.0187645358
 C    0.0473757144   -0.0091043489   -0.0057578385
 O    1.0978884689   -0.6134137917    0.0745435243
 N   -1.1703010112   -0.6704457078   -0.0532003767
 C   -1.2518231126   -2.1389363949   -0.0561371530
 C   -2.7907431826   -2.3529805770   -0.0188738002
 N   -3.3991840975   -1.0285876417    0.2241413127
 C   -2.4534413784   -0.1801532303    0.1798348137
 H    0.8691271259    1.8043635964   -0.1404829426
 H   -0.7679292246    1.8032201725   -0.5654660128
 H   -0.7705127371   -2.5481712311   -0.9465758827
 H   -0.7368212195   -2.5430300959    0.8201655762
 H   -3.1742824438   -2.7504988319   -0.9652948966
 H   -3.0958574659   -3.0481287907    0.7680959416
 H   -2.5966077280    0.8842256592    0.3303874305