25

 C   -0.0614147641    1.3083763735   -0.3874191550
 C    0.2866982111   -0.1358430147   -0.0977072592
 C    1.7099794203   -0.5861940688    0.1315271561
 C    0.7069158260   -0.6588005292    1.2643931603
 C    0.9050812262    0.3164585527    2.4164930428
 C    0.1300654046   -1.9931344589    1.7021586935
 C   -1.2933905851   -1.9092891764    2.2335793445
 C    0.4934443144   -3.2741353014    0.9881770313
 C    1.0519509825   -2.9932144230    2.3627109342
 H    0.5825538018    2.0049556586    0.1561926011
 H    0.0532139762    1.5259397361   -1.4554625061
 H   -1.0986669286    1.5344828408   -0.1145918954
 H   -0.3148434427   -0.8460804278   -0.6614152394
 H    2.0584843283   -1.4886174864   -0.3572029688
 H    2.4714756253    0.1846298983    0.2094994210
 H    1.3989871414    1.2361149579    2.0937396790
 H   -0.0443188314    0.6009473110    2.8825146412
 H    1.5311727780   -0.1377859484    3.1925147384
 H   -1.9718745707   -1.5067997537    1.4726002093
 H   -1.6630371040   -2.8983181113    2.5218022753
 H   -1.3626576796   -1.2647976091    3.1161135566
 H   -0.2830541291   -4.0265956374    0.8962485720
 H    1.1779970244   -3.2529007425    0.1487056895
 H    2.1050429735   -2.7396162980    2.4264278495
 H    0.6798765513   -3.5696716418    3.2034579582