15

 N   -0.3192757325    1.2492320273   -0.0986213944
 C   -0.1850589065    0.0309184515    0.1835473820
 O   -1.0971417800   -0.8515107119   -0.3324759641
 C   -0.9344018156   -2.1842210464   -0.0127575352
 O   -0.0564003319   -2.6247533894    0.6896303371
 N   -1.9082888689   -2.8939674290   -0.6294821558
 C   -2.0722161394   -4.3219907607   -0.4024925336
 C   -3.3818253530   -4.6574237949    0.1511925732
 C   -4.4701291727   -4.9272750465    0.5814915298
 H    0.4213149511    1.7876315773    0.3480941950
 H    0.5705959678   -0.4587718668    0.7982133286
 H   -2.6203934461   -2.3838320850   -1.1270385464
 H   -1.9157069973   -4.8730875968   -1.3388246005
 H   -1.2719400658   -4.6174608267    0.2825072110
 H   -5.4259540292   -5.1708639220    0.9756214133