18

 C   -0.0806648299    1.4654299244   -0.1444884562
 C    1.2859020018    0.8166213471    0.0271025933
 C    2.1754447948    0.2126770389   -1.0586502652
 C    1.3424132196   -0.9364756378   -1.6183292887
 C    0.6056906070   -2.0223430948   -0.8442192804
 C    0.4611289359   -2.1469046171    0.6444382046
 C   -0.0400861429   -1.0125391544    1.1451635717
 C    0.0037133353   -0.0089023117    0.0415205872
 N   -0.0787163174   -0.7703663699   -1.2386825832
 H   -0.4029776052    2.1085924770    0.6685442299
 H   -0.4138651047    1.7809853634   -1.1290095472
 H    1.7562314888    1.0099280461    0.9854281081
 H    2.4347305825    0.9036582046   -1.8721113193
 H    3.1213531517   -0.1168677578   -0.6151017156
 H    1.5061550325   -1.1816337867   -2.6663295672
 H    0.3483317129   -2.8988249990   -1.4376128100
 H    0.6822897884   -3.0561323674    1.1872368685
 H   -0.2403277710   -0.7824713550    2.1837564997