19

 C   -0.0342404899    1.4984898331    0.0597385056
 C   -0.0444941330    0.0042122486   -0.0049142983
 C   -0.0425529665   -0.7694914181   -1.0958266699
 C   -0.0268949976   -2.2462642943   -0.7689986047
 C    0.0361750024   -2.2718998996    0.7574192071
 C    1.2652745466   -1.6833068242    1.4398429303
 C    2.4893707265   -1.4376765307    0.7390281833
 C    3.5317320647   -1.2565027048    0.1654171420
 C   -0.0011036603   -0.8381293859    1.2309290989
 H    0.8816719322    1.8637623717    0.5409010417
 H   -0.0967596357    1.9437069849   -0.9367244834
 H   -0.8745996960    1.8778895565    0.6549836538
 H   -0.0069960166   -0.3998301057   -2.1148985029
 H   -0.9273025856   -2.7575764335   -1.1340395833
 H    0.8312800782   -2.7563792400   -1.2256141044
 H   -0.4813016826   -3.0579372596    1.2943520213
 H    1.4020751747   -2.0250508146    2.4628610838
 H    4.4501157646   -1.0872054915   -0.3392644293
 H   -0.5312587362   -0.5237867324    2.1243835383