13

 O    0.0391046248    1.3054758138    0.1953327372
 C   -0.0293562933   -0.0041545750    0.0916517569
 C   -1.2366517186   -0.6480637578    0.1023891231
 C   -1.4369650648   -2.0312947639   -0.1131101447
 N   -0.6037504982   -3.0403705380   -0.1299008774
 C    0.7350686421   -2.9252563133    0.0647058361
 N    1.5895499909   -1.9439708064    0.0112241079
 C    1.3305440877   -0.6144863498   -0.1300223562
 O    2.2136954621    0.2099735814   -0.3538167221
 H    0.9988005613    1.4898892206    0.0201258994
 H   -2.1225861826   -0.0260343454    0.1829963055
 H   -2.4786505924   -2.3143488696   -0.2777533726
 H    1.1957557211   -3.8936224366    0.2690100269