15

 C   -0.0459862744    1.5127845077    0.0272554310
 C   -0.0085181028    0.0116638525   -0.0112460618
 C    0.2800631239   -0.6983379794   -1.1829604233
 N    0.3182698262   -2.0254871561   -1.2394736004
 C    0.0618421920   -2.6805992268   -0.0953294212
 C   -0.2281837543   -1.9734289043    1.0830380171
 N   -0.2636362006   -0.6473405442    1.1278368889
 C    0.0885801513   -4.1070618131   -0.0950329382
 C    0.1015923935   -5.3096827460   -0.0542075898
 H    0.1772816682    1.9456725322   -0.9507329121
 H   -1.0328315925    1.8616018259    0.3479632025
 H    0.6791953851    1.8939635808    0.7533053348
 H    0.4877234549   -0.1674427153   -2.1093163008
 H   -0.4344645123   -2.5109476690    2.0045626730
 H    0.1166694815   -6.3715286349   -0.0334300996