21

 C   -0.0258963063    1.5288447030    0.0037165902
 C    0.0085843667    0.0284352726   -0.0020266466
 C    0.4982783486   -0.9914525904   -1.0756013393
 C    1.3475491254   -1.7015582266   -0.0218104586
 C    0.6650130847   -0.8461562091    1.0957329011
 C   -0.3783907480   -1.5699315307    1.9519558895
 C   -1.2747519771   -2.4526173485    1.0761779892
 O   -1.7965916070   -1.7849988307   -0.0656161856
 C   -0.9605468248   -0.8567320151   -0.7003294955
 H    0.9755824101    1.9555126123    0.1378945570
 H   -0.4312320309    1.9182543788   -0.9361712087
 H   -0.6572917182    1.9093552106    0.8164901917
 H    0.8180582728   -0.8002637533   -2.0951822514
 H    1.2857931440   -2.7920232723    0.0440044256
 H    2.4010213143   -1.4270669068   -0.1221399061
 H    1.3807928140   -0.3027149245    1.7165950506
 H    0.0983807172   -2.2038850806    2.7091831597
 H   -0.9865439783   -0.8285719980    2.4852510832
 H   -0.7182639446   -3.3464753582    0.7589231350
 H   -2.1462192715   -2.7991798210    1.6403686114
 H   -1.5441959911   -0.3673191415   -1.4757575222