17

 C    0.0475003194    1.5388987690    0.0556026471
 C    0.0208682792    0.0115732925   -0.0272165209
 N    0.6926505264   -0.5056747829   -1.2126397973
 C    0.1104402593   -0.9004461840   -2.3748486266
 N    0.9880920212   -1.2800130098   -3.2823366506
 C    2.2051864124   -1.1218138482   -2.6860411226
 C    2.0648477394   -0.6405666989   -1.3967004718
 C    3.0078325698   -0.3322473489   -0.3998882427
 C    3.8132672537   -0.0660815695    0.4572543738
 H    1.0759785772    1.9046371283    0.1076866697
 H   -0.4364066177    1.9858656142   -0.8176006145
 H   -0.4820829425    1.8725924476    0.9530726928
 H    0.5033980093   -0.4260029772    0.8514198135
 H   -1.0085639142   -0.3571439910   -0.0543277770
 H   -0.9630313814   -0.8953789765   -2.4986468255
 H    3.1276734656   -1.3615437661   -3.1922263268
 H    4.5326766128    0.1611982413    1.2043620392