23

 C   -2.8539965844    1.1868812783   -1.7091619512
 C   -2.2314853501   -0.2071657349   -1.6686051120
 O   -1.1246344551   -0.2013935382   -2.5625263336
 C   -1.8286059908   -0.6102457275   -0.2394789918
 C   -1.6193182963   -2.1069236042   -0.0129691548
 C   -0.7638325327   -2.8365002783   -1.0299944598
 O    0.4869186906   -2.1864642077   -1.2739810450
 C   -1.5393332284   -2.5810784024    1.4237774282
 C   -2.7498444148   -2.9094895611    0.5852327800
 H   -3.0428152992    1.4766550006   -2.7463652721
 H   -3.8016785533    1.2149877452   -1.1612523307
 H   -2.1722423140    1.9240094839   -1.2714604950
 H   -2.9840135825   -0.9310653973   -2.0288661909
 H   -0.4046566417   -0.7296730384   -2.1896231651
 H   -0.9146439962   -0.0557204207    0.0146277565
 H   -2.5978706347   -0.2654288520    0.4611552904
 H   -0.6027707876   -3.8758923856   -0.7094957531
 H   -1.2581715290   -2.8626432088   -2.0057468973
 H    0.9139038815   -2.0368054725   -0.4231745012
 H   -0.8564105738   -3.3894452563    1.6670782855
 H   -1.6476102532   -1.8408417166    2.2095623777
 H   -3.6786431545   -2.3919758729    0.7994944537
 H   -2.8816364098   -3.9371740527    0.2620049119