17

 C   -0.2983767222    1.6954750330   -0.1708882769
 C   -0.0568934475    0.1976333400   -0.1284192318
 C   -1.3381419493   -0.5964927616    0.1413325995
 O   -1.8074058633   -0.3436403603    1.4495280960
 C    0.8701915408   -0.4112120390   -1.2075512006
 C    1.7463332103   -0.8498109520   -0.0193244961
 O    0.9022754569   -0.1532151732    0.9246367099
 H    0.6495506148    2.2379737793   -0.2184498171
 H   -0.8969606570    1.9585266152   -1.0501667287
 H   -0.8438222458    2.0109906194    0.7224963525
 H   -2.1322751037   -0.3016684546   -0.5539368834
 H   -1.1384661109   -1.6698677137   -0.0117616491
 H   -1.0403685188   -0.4792281378    2.0220470462
 H    0.4362563256   -1.2109666190   -1.8113007132
 H    1.3326133785    0.3263512257   -1.8656384617
 H    1.7702327625   -1.9298605245    0.1710171153
 H    2.7725461391   -0.4665919968   -0.0021157209