15

 O    0.5431456637   -0.2576342396   -0.0839578522
 C    0.2390592795    0.9039380787   -0.0029840573
 C    1.2008787416    2.0661300389    0.0212517907
 C    0.9477254170    3.0642189770   -1.1507940487
 C    1.1196631384    4.4184421966   -0.5053635096
 C    1.1792458145    4.3414625361    0.8210562977
 C    1.0586084861    2.9209140290    1.3185928648
 H   -0.8334076251    1.2130177019    0.0630460658
 H    2.2131462584    1.6616039291   -0.0476725541
 H    1.6357829647    2.8859371184   -1.9836667829
 H   -0.0666547278    2.9579693507   -1.5644781330
 H    1.1512472983    5.3343882712   -1.0847427280
 H    1.2672171240    5.1845482278    1.4971506050
 H    0.0847011728    2.7623637944    1.8061964227
 H    1.8173840638    2.6512339198    2.0604918489