17

 N    0.0736381872   -1.1610380737    0.0457815288
 C    0.0789126891   -0.0064230803    0.0410937992
 C    0.0234975420    1.4617606054    0.0467020391
 C   -0.7365012688    1.9929018972    1.2788953150
 C   -0.5530253913    3.4999973777    1.3915518641
 N    0.6909927310    3.9442695921    2.0464656445
 C    0.5242374579    4.1703883286    0.6080912666
 C    1.3946406640    3.3346816908   -0.3067556576
 O    1.3505337089    1.9503307696    0.0053161409
 H   -0.5145726786    1.7723828705   -0.8659026653
 H   -1.7959016578    1.7361480203    1.1829961174
 H   -0.3494895050    1.5063140137    2.1779385533
 H   -1.4550569285    4.0722714450    1.5911440368
 H    0.5309780270    4.8064600790    2.5602307800
 H    0.3448423387    5.1847125495    0.2567500526
 H    1.0755980489    3.4959416342   -1.3506710104
 H    2.4460893552    3.6224739602   -0.2191583552