20

 C    0.1775664798    0.6357826972   -0.7395034568
 O   -0.0632882964   -0.5128829456    0.0423099543
 C   -1.3391251854   -1.0854325349   -0.1773808674
 C   -1.4652223224   -2.2381719503    0.8134053603
 O   -1.2526182742   -1.7816548920    2.1352753820
 C   -2.8543624781   -2.8720271928    0.7954914213
 O   -3.1562847830   -3.4176763901   -0.4849568588
 C   -2.8917926409   -4.7260837980   -0.6772246670
 N   -2.9980999036   -5.2297631839   -1.8286403413
 H    1.1763079140    0.9994285551   -0.4869515056
 H    0.1423511060    0.4060438080   -1.8147350774
 H   -0.5564139943    1.4292468093   -0.5313561726
 H   -2.1302832994   -0.3407189499    0.0136251993
 H   -1.4450883041   -1.4449209157   -1.2106546445
 H   -0.7207201027   -3.0058996550    0.5408041531
 H   -0.5144426700   -1.1617538669    2.0796736243
 H   -2.9114073643   -3.6390513785    1.5775303608
 H   -3.6158092711   -2.1157078798    1.0051923934
 H   -2.6107596493   -5.2524540135    0.2463274454
 H   -2.7934598306   -6.2260263128   -1.7911328230