19

 C   -0.0052184624    1.5710174276    0.0795089709
 C   -0.0350266299    0.0365914995   -0.0378504488
 C    0.6891406620   -0.4920345921   -1.2437140561
 C    0.1106345061   -0.8968106688   -2.4262585571
 N    1.1077491349   -1.2900420691   -3.2818987736
 C    2.3234923544   -1.1472037512   -2.6618298521
 C    2.1073182460   -0.6531157947   -1.3953992080
 C    3.1617350891   -0.3564676211   -0.3711673018
 H    1.0215367038    1.9449471300    0.1436372786
 H   -0.4700783050    2.0354215779   -0.7959100853
 H   -0.5423415280    1.9094152415    0.9721659439
 H    0.3956909928   -0.3976873533    0.8738755511
 H   -1.0787478773   -0.2983892811   -0.0669033912
 H   -0.9266303058   -0.9409428937   -2.7200974183
 H    0.9688782044   -1.6436791480   -4.2112229205
 H    3.2409337792   -1.4127832233   -3.1636194481
 H    3.2302413366    0.7139655950   -0.1412705152
 H    2.9647933229   -0.8709748867    0.5772877737
 H    4.1479183561   -0.6784198687   -0.7191296820