21

 C   -0.0438472722    1.6727619003    0.0635529913
 C    0.0156973588    0.1432446891    0.0383484416
 C   -1.3756206290   -0.4956890134   -0.0323265849
 C   -1.3376591374   -2.0375687342   -0.0469608322
 C   -2.6546398525   -2.6253591942    0.1884261972
 C   -3.7476951861   -3.1001912847    0.3497665128
 C   -0.7937492538   -2.6007670538   -1.3903312145
 C   -0.3906273892   -4.0604272430   -1.3822438589
 O   -0.7009186153   -1.9029762644   -2.3693292062
 H    0.9585391585    2.1081800774    0.1206647281
 H   -0.5253371773    2.0625221291   -0.8397056736
 H   -0.6145989697    2.0350478556    0.9260020502
 H    0.6090793407   -0.1845662542   -0.8217641944
 H    0.5356347660   -0.2177785000    0.9365496783
 H   -1.9751155532   -0.1749135922    0.8264765639
 H   -1.8955180004   -0.1593675656   -0.9346086133
 H   -0.6619062242   -2.3919513689    0.7460229388
 H   -4.7123118337   -3.5159508840    0.5061350399
 H   -1.1771737530   -4.6757223319   -0.9363588100
 H   -0.1753315139   -4.3931521284   -2.3980777126
 H    0.5068127771   -4.1849341487   -0.7639974016