17

 O   -0.0000458755    1.4672154266   -0.0802876662
 C    1.3289834765    1.8928262066    0.0619426413
 C    2.4238730758    1.1461233758   -0.6741727246
 C    2.0452522712   -0.1194168200   -1.4227601408
 C    0.6180807853   -0.6186799330   -1.2723140299
 C    1.7448061393   -1.2428598422   -0.4616081616
 C    1.3315564009   -0.4040719494    0.7825610493
 C    2.1638178493    0.8788640185    0.8064209739
 C    0.0498238944    0.0545198694   -0.0316924163
 H    1.4018942231    2.9626823263    0.2191946618
 H    3.2945245668    1.7035663275   -0.9999472285
 H    2.5330349168   -0.3405645095   -2.3642084134
 H    0.0512998750   -1.0139674553   -2.1065967325
 H    2.1603680900   -2.2409157383   -0.4964940676
 H    1.1745795603   -0.8988836658    1.7381468547
 H    2.8480076142    1.1275849998    1.6076820688
 H   -0.9127689934   -0.3276156170    0.3099952818