18

 N   -0.0282884686    1.1071666520   -0.7199918943
 C    0.0034369460    0.0715353068    0.0085133806
 C   -1.2899986498   -0.6322959237    0.3997665360
 C   -1.1262486957   -2.1341813511    0.4867959838
 C    0.0242833914   -2.5562160795    0.9836969431
 C    0.9193908321   -3.7770993257    1.0226372051
 C    2.1184120366   -2.7864004599    0.8170855675
 C    1.1739693301   -1.6262634067    1.2493576900
 O    1.1878947320   -0.4335037799    0.4703835555
 H    0.9200293295    1.4587873615   -0.8686858537
 H   -1.6208724166   -0.2243154867    1.3662764730
 H   -2.0422340549   -0.3356228070   -0.3315783801
 H   -1.9047143337   -2.7886152072    0.1083401069
 H    0.9492571172   -4.2632694638    2.0032642484
 H    0.7592517888   -4.5421171481    0.2600117194
 H    3.0188385534   -2.9450328331    1.4128089758
 H    2.3822356647   -2.6863803864   -0.2372868636
 H    1.3127496874   -1.3564582114    2.3045562566