16

 C   -0.1207285358    1.6121568278    0.0125820788
 C    0.0108238619    0.0876028321    0.0034364348
 C   -1.3576765023   -0.6037715132    0.0114061510
 C   -1.2780122066   -2.0879373843    0.0029004359
 N   -0.2151160203   -2.8052697824   -0.0088226462
 O   -0.6909591591   -4.1442428845   -0.0122702205
 C   -2.0471709962   -4.1350579227   -0.0022996520
 O   -2.7759597813   -5.0693588829   -0.0015558762
 O   -2.4313068198   -2.8051742271    0.0077246227
 H    0.8642572316    2.0868492969    0.0067667182
 H   -0.6688574904    1.9710644787   -0.8653894512
 H   -0.6539178182    1.9617385016    0.9034223599
 H    0.5726810468   -0.2381725801   -0.8781001168
 H    0.5875135532   -0.2473670664    0.8718527437
 H   -1.9411854611   -0.3055952138    0.8926595638
 H   -1.9561077823   -0.2963847398   -0.8565656457