23

 O   -0.0227417921    1.4308028842   -0.2484665071
 C    0.0321862670    0.0228111556   -0.0698700676
 C   -1.3918900861   -0.5156082200   -0.1588155436
 C   -1.4561604902   -2.0341663611   -0.0299312823
 C   -1.2903928288   -2.6746511287    1.3912620290
 C   -2.8033301972   -2.3847362633    1.6092656581
 C   -2.8722532618   -2.6882265663    0.0842501865
 C   -2.5197501981   -4.1886432636    0.0511069352
 C   -1.3093685625   -4.1781419289    1.0495315632
 H    0.8720276558    1.7769678984   -0.1855871285
 H    0.6586158377   -0.4522802542   -0.8432081757
 H    0.4707611693   -0.2372806577    0.9068861650
 H   -1.9940338707   -0.0114588493    0.6035682346
 H   -1.8073331724   -0.2147055846   -1.1289334263
 H   -0.8151870476   -2.4806032055   -0.8026324533
 H   -0.5305509382   -2.3335272318    2.0963056224
 H   -3.3546014326   -3.0464147259    2.2849497318
 H   -3.0198964204   -1.3462865937    1.8593858625
 H   -3.7063830195   -2.3531123354   -0.5345155066
 H   -3.3450481568   -4.8174046176    0.3975666736
 H   -2.2366702120   -4.5276998880   -0.9497234912
 H   -0.3770905960   -4.5110581016    0.5836550241
 H   -1.4850435069   -4.8020330409    1.9307239761