23

 C    0.0631385399    1.5316283012   -0.1275862417
 C   -0.0081733497    0.0166336981    0.1107507757
 C   -1.4147179399   -0.5188667140    0.0630507717
 C   -2.4465979042   -0.3172414829    1.1909408980
 C   -2.9529666510   -1.7785858814    0.9788921144
 C   -1.9235376314   -1.9561812276   -0.1447889559
 C   -2.0877437231   -0.9100395291   -1.2277473508
 C   -3.4196149982   -0.4183554982   -1.7460304428
 O   -3.9968298908   -1.3298027644   -2.6740658110
 H    1.0940250434    1.8940849777   -0.0675760510
 H   -0.3299186363    1.7921766467   -1.1158206209
 H   -0.5256352124    2.0770311787    0.6177614556
 H    0.6021676431   -0.5021553793   -0.6392036184
 H    0.4370736187   -0.2196797924    1.0869064121
 H   -1.9621774847   -0.1924059356    2.1632235687
 H   -3.1727323313    0.4918109059    1.0668596617
 H   -2.7460243486   -2.4147372259    1.8419854805
 H   -4.0067415581   -1.9064196540    0.7086401310
 H   -1.3436679537   -2.8558180552   -0.3204501825
 H   -1.3674785320   -1.0520311611   -2.0326351505
 H   -4.1150825668   -0.2050001874   -0.9218337150
 H   -3.2856383307    0.5179920665   -2.2989623780
 H   -4.0104203520   -2.1931007661   -2.2472653210