19

 O   -0.0420746276    1.4331311919   -0.0586154242
 C    0.0196686794    0.0507305575   -0.0255483719
 C    0.2663310730   -0.7713400919    1.3837210942
 C   -0.4469512233   -1.8818605421    0.5591523042
 C   -1.7228252686   -2.7314446889    0.2961953832
 O   -2.1034591306   -1.7627615648   -0.7566178040
 C   -1.3002046207   -0.7865082289    0.0106225247
 C    0.6023709317   -2.1350731189   -0.5662418107
 C    0.9510638249   -0.6822822372   -0.9863561542
 H    0.7951728802    1.7777750835   -0.3849834373
 H    1.3088555815   -0.9237133748    1.6782937700
 H   -0.3141783314   -0.3443502403    2.2011903457
 H   -1.5916795019   -3.7367246586   -0.1134335620
 H   -2.4630295238   -2.7321670359    1.1043497140
 H   -1.9723088438   -0.3293501172    0.7473045693
 H    1.4646628725   -2.6803572052   -0.1709638198
 H    0.1811538947   -2.7054948230   -1.3943131263
 H    0.7046880281   -0.4666206964   -2.0300105393
 H    2.0009255256   -0.4173358388   -0.8187385157