17

 C   -0.0426628528    1.3896351265   -0.1663825141
 N    0.3292009542   -0.0180819184   -0.0085819579
 C    1.6742479107   -0.4607890079   -0.3631660229
 C    2.6922669283    0.4347785669   -0.8377277919
 C    3.5431856049    1.1331400187   -1.3207763669
 C    1.1972705407   -0.4580938507    1.0778152732
 C    1.8159055975    0.4757762897    2.0855129779
 N    1.9779710280   -0.0928845047    3.3202961466
 O    2.1267189279    1.6296882596    1.8584920979
 H    0.7575586062    2.0960951174    0.0620939655
 H   -0.3751214282    1.5247530214   -1.1996375305
 H   -0.8919177252    1.5883758278    0.4937690635
 H    1.6916167827   -1.4356709367   -0.8492890597
 H    4.2966883112    1.7686416817   -1.7156877788
 H    0.9046770403   -1.4259261132    1.4845394585
 H    1.8410206925   -1.0750561750    3.4818728776
 H    2.4793556413    0.4399180066    4.0123442522