17

 O    0.5544223654    0.4707000611   -0.9543702509
 C   -0.0471333894    0.2103733914    0.3069322194
 C   -1.4647023827   -0.2617938683    0.1681690259
 N   -1.8492980706   -1.2489165594   -0.8653478603
 C   -2.5064124497    0.0881887602   -0.8184360033
 C   -3.5982972402    0.0802427409    0.2915770704
 C   -3.6626023974   -1.2333736206    1.0236550313
 C   -2.5285562234   -0.2856368876    1.3125675558
 H    0.1198061046    1.2454858680   -1.3264258939
 H    0.5689013945   -0.5671920703    0.7751597638
 H   -0.0098347659    1.0932604331    0.9637947197
 H   -1.1219267334   -1.1798936512   -1.5791688351
 H   -2.4803792913    0.7493014523   -1.6761748972
 H   -4.3661764453    0.8385274541    0.3697969214
 H   -4.4184564870   -1.2746673993    1.8020481891
 H   -3.4805095591   -2.1630861854    0.5008311937
 H   -2.3539077191    0.1502397009    2.2880064504