14

 O   -0.0849791853   -0.0714763582   -0.0872021782
 C   -0.0653804044    1.1196940414    0.0504373953
 C   -1.3609094541    2.0194516601    0.0312309911
 N   -1.1958050039    2.8241488149    1.2376385633
 C   -0.0949879541    3.4325003988    1.1888447636
 O    0.8315670534    3.3888900655    2.2388647773
 C    1.7812339016    2.9860910392    1.2312604639
 C    0.9776556859    3.4385160188    0.0890415055
 C    1.2212993979    1.9492595961    0.1514197375
 H   -1.3818737581    2.5777577024   -0.9159312485
 H   -2.2515251713    1.3961218605    0.1008705910
 H    2.8324159014    3.0516285195    1.4780965846
 H    1.1525776115    4.1313458947   -0.7221992158
 H    2.0262684695    1.5276827564   -0.4462643205