18

 C    0.1113653918    1.4856532613   -0.0504830815
 C    0.0124586335   -0.0413207710    0.0652205401
 O    0.5826285676   -0.4999094291    1.2850690761
 C   -1.4075747724   -0.5155212897   -0.0459470682
 C   -2.0780427986   -1.1480335526   -1.0337695814
 O   -3.3667178896   -1.3553274848   -0.6113152592
 C   -3.4077317197   -0.8341653510    0.6399815381
 C   -4.6923033136   -0.9156096930    1.3819942392
 N   -2.2810658458   -0.3225747140    1.0254751941
 H    1.1493313801    1.7978460973    0.0925777101
 H   -0.2313704347    1.8297120072   -1.0318573602
 H   -0.5077314643    1.9638200005    0.7152075379
 H    0.6046927057   -0.5018667515   -0.7337532288
 H   -0.0823248024   -0.3444072829    1.9676568565
 H   -1.8304253602   -1.5038251302   -2.0186648573
 H   -5.0110829850   -1.9560549041    1.5016422031
 H   -4.5631513498   -0.4661366047    2.3666226825
 H   -5.4885628324   -0.3862792178    0.8486799689