21

 C   -0.0169694240    1.4785245950    0.0314380078
 C    0.0067738510   -0.0245535169    0.0248351402
 C    0.5701994191   -0.9758066837   -1.0865818794
 C    0.0169629892   -1.9508492058    0.0092256250
 C    0.0091326379   -3.4540034084   -0.0085054773
 C    0.6743210731   -0.9926175637    1.0564133519
 C   -1.1834124290   -0.9945191497    0.0782978350
 C   -2.5016404020   -1.0064735453    0.6915702153
 O   -2.3219754618   -0.9938209707   -0.7501411543
 H    0.9924573950    1.8914333761   -0.0667046670
 H   -0.6200817936    1.8591032996   -0.7997522606
 H   -0.4468008150    1.8621925231    0.9634140109
 H    0.0498565935   -0.9707816900   -2.0471750098
 H    1.6574226850   -0.9690325548   -1.2117033901
 H    1.0229366035   -3.8545672114   -0.1125195632
 H   -0.4171753910   -3.8572206434    0.9168131030
 H   -0.5894097141   -3.8274536741   -0.8462052293
 H    1.7677314554   -0.9869268676    1.0668649724
 H    0.2613591591   -1.0030051573    2.0696721795
 H   -2.9172669342   -1.9303271412    1.0922157510
 H   -2.9269900470   -0.0936971796    1.1071231091