23

 C   -0.0097117892    1.5239217315   -0.0356220548
 C    0.0515310490    0.0041381896   -0.0463935118
 C   -1.1863296154   -0.6168662654    0.5880678135
 C    0.6721451452   -0.7963964314   -1.1938969937
 C   -0.0357266473   -1.8704999163   -1.9731394564
 C    1.8923786235   -0.0484255257   -1.7620368686
 C    2.5704845350   -0.0746644404   -0.3549236334
 C    1.3289662717   -0.7834987203    0.1916333519
 O    1.4013754282   -1.8330461830    1.0993329547
 H    0.8762894932    1.9974657876   -0.4622600353
 H   -0.8778782509    1.8779616189   -0.6045159547
 H   -0.1203359634    1.8984568850    0.9893120432
 H   -2.0811766643   -0.4103791696   -0.0099134749
 H   -1.0939483192   -1.6966958708    0.7117393981
 H   -1.3565408700   -0.1869482686    1.5828951611
 H   -0.5889469852   -1.4399293928   -2.8175799822
 H    0.6830499846   -2.5876187067   -2.3861150834
 H   -0.7484610034   -2.4315616004   -1.3649722946
 H    2.4367108946   -0.6528175811   -2.4924044911
 H    1.7049626739    0.9349469883   -2.2035843041
 H    3.4415232168   -0.7334895827   -0.3348304276
 H    2.8446733462    0.8843838485    0.0974738901
 H    1.3069372963   -1.4760215845    1.9896161841