22

 C    0.7686545572    0.0077446278   -0.1678193120
 C    0.1394659923   -0.9215775535    0.8778873806
 C   -1.3429045282   -1.1266076591    0.6262663171
 C   -1.8968219051   -2.2425152574   -0.2076073955
 C   -1.0206661961   -3.2937841470   -0.8729782413
 C   -1.7520715491   -4.6134126252   -1.0257668369
 O   -1.3111354612   -5.6842538168   -0.6983860685
 N   -2.1416289647   -2.1910387350    1.2349926344
 C   -1.5335900515   -3.1605258685    2.1364247030
 H    1.8227233535    0.1968919967    0.0557521804
 H    0.7099659106   -0.4263747433   -1.1713536634
 H    0.2547317672    0.9746634079   -0.1959991604
 H    0.6792157025   -1.8720252578    0.8948226844
 H    0.2649300594   -0.4831637317    1.8764562437
 H   -1.8837752957   -0.1790448370    0.5808283634
 H   -2.7943673501   -2.0298738259   -0.7911074140
 H   -0.7810992326   -2.9397031586   -1.8870165285
 H   -0.0785724601   -3.4821742685   -0.3572747851
 H   -2.7664326598   -4.5249843547   -1.4809550083
 H   -0.5189298142   -3.4913410397    1.8769116249
 H   -1.4988339571   -2.7260010171    3.1404980536
 H   -2.1720981473   -4.0483362955    2.1785688684