19

 C    0.0394811861    1.4965334668    0.0048676879
 C   -0.0088505624   -0.0115512928    0.0517404195
 O    0.7612175750   -0.6144568376   -1.0168456170
 C    0.3980484001   -1.9755302322   -0.7407663747
 C    0.9152855796   -2.1475386577    0.7194872803
 C    0.7005881805   -0.7058711502    1.2764265197
 O    1.9216200249   -0.0634495360    1.5943376536
 C   -1.1230747936   -1.8860529937   -0.6438315390
 C   -1.3672926553   -0.6833478447   -0.1297205876
 H    1.0548738243    1.8610917221    0.1707184967
 H   -0.3175897207    1.8572124677   -0.9633532904
 H   -0.5991725296    1.9160854226    0.7885060749
 H    0.8220020274   -2.6457201378   -1.4875548751
 H    0.3794001822   -2.9214359895    1.2721315728
 H    1.9823506259   -2.3823662789    0.7456207543
 H    0.0989053455   -0.6726660120    2.1866612237
 H    2.4443152660   -0.0634112416    0.7825391181
 H   -1.8141648052   -2.6930261671   -0.8468787939
 H   -2.3100696405   -0.2556003073    0.1841148563