17

 C    0.3131488186    0.5729373038   -0.9202160068
 O    0.1747861533   -0.6011397855   -0.1368868282
 C    0.5666939139   -0.4158010864    1.2111045211
 C    0.0248217044   -1.4974732265    2.0266329568
 C   -0.3767247280   -2.3881302816    2.7252462793
 C    2.1089476529   -0.4058550570    1.3604425443
 O    2.6704618382    0.3920876072    2.0745551135
 C    2.9022464710   -1.4468231289    0.5905611987
 O    4.2718079459   -1.3240184744    0.8394218034
 H    1.3573458811    0.9120292280   -0.9835345976
 H   -0.0379807431    0.3226909060   -1.9228323479
 H   -0.2961838565    1.3947801764   -0.5181012546
 H    0.2118058653    0.5520626023    1.5976857895
 H   -0.7476437932   -3.1723504556    3.3387418672
 H    2.5196645238   -2.4391732824    0.8799204106
 H    2.6779171571   -1.3378033873   -0.4807348030
 H    4.3554364353   -0.6040163981    1.4835641438