19

 C   -0.1458405031    1.5480138304    0.0059455192
 O    1.0851999048    1.6273867954    0.7657878054
 C    1.4306405658    0.2588069171    0.4122397656
 C    1.7278028321   -0.6685621541    1.5871767624
 C    0.3449516338   -1.0339425277    2.1756314363
 C   -0.6339332841   -0.8965859078    1.0129993986
 O   -0.6209213014   -1.9877892254    0.0504806292
 C   -0.4020545850   -1.0638649584   -1.0438603390
 C   -0.0202488728    0.0303898329   -0.0542111399
 H   -1.0004165778    1.9632977439    0.5524872659
 H   -0.0564686978    2.0556082127   -0.9649924508
 H    2.2069549500    0.2476733604   -0.3638781656
 H    2.2334639942   -1.5609767362    1.2028965956
 H    2.3939845323   -0.2000352295    2.3169433005
 H    0.3169687075   -2.0349784910    2.6149703499
 H    0.0555727898   -0.3219925478    2.9561154924
 H   -1.6620893533   -0.6753173670    1.3277728960
 H    0.3733901991   -1.4131221159   -1.7353613865
 H   -1.3278489321   -0.8735537484   -1.6051502746