13

 O   -0.0460578529    0.0031521945    0.0054128580
 C   -0.0383698006    1.2037634516    0.0102293535
 C   -1.2695125387    2.1527805862    0.0322688501
 N   -0.6266421053    3.4477527540    0.0296501134
 N   -1.0438601463    4.7385530260    0.0417581966
 N    0.0367939806    5.4613648039    0.0303573280
 C    1.1577463427    4.6679961463    0.0112294089
 C    0.7207547980    3.3680243953    0.0107998383
 N    1.0831776314    2.0288403442   -0.0005961582
 H   -1.8927911606    1.9884154621   -0.8505925775
 H   -1.8678706207    1.9796528820    0.9305663995
 H    2.1506575764    5.0818232865   -0.0002657499
 H    2.0228945360    1.6692563072   -0.0150373906