21

 C   -1.6333072258    0.1644969533   -3.5672185307
 C   -0.8552186521   -0.3098591502   -2.3319875741
 C   -1.7834789721   -0.7360653924   -1.2109153012
 N   -2.3593515881   -2.0684431152   -1.0692067954
 C   -2.0592330168   -3.1444553253   -2.0027998513
 C   -1.3513152298   -1.6455934373   -0.0828900223
 C    0.0456872025   -2.2439745057   -0.0068313585
 C   -1.9162162879   -1.3885339259    1.2325818889
 N   -2.3358003374   -1.1695447580    2.2876181405
 H   -0.9507712777    0.5138009748   -4.3473208432
 H   -2.2424917645   -0.6412486591   -3.9886906360
 H   -2.3059276450    0.9907896589   -3.3148661833
 H   -0.1715286790   -1.1139495621   -2.6157802544
 H   -0.2275579094    0.5089844144   -1.9586570799
 H   -2.4938343623    0.0456463602   -0.9391628596
 H   -1.0510780737   -3.1377157962   -2.4379717449
 H   -2.2015053561   -4.1001176662   -1.4897921116
 H   -2.7821971943   -3.0945965786   -2.8226606370
 H    0.4942789048   -2.3774794663   -0.9906804086
 H    0.6985704279   -1.5885156641    0.5766670773
 H    0.0172269867   -3.2166026891    0.4935876555