15

 O   -0.2549746637    1.2992100859   -0.0363461875
 C    0.0806146966   -0.0179074693   -0.0900560418
 C    0.2267431864   -0.7405716693   -1.2560014636
 O    0.0874462356   -0.4167348989   -2.5666223125
 N    0.7470227393   -1.9457365222   -0.8346570865
 C    0.6002631126   -3.4278423753   -0.8625566121
 C    0.7994667958   -3.4098809346    0.6982985052
 C    0.7630390052   -1.9027762537    0.5315518283
 N    0.3689132889   -0.7587047200    1.0385036679
 H   -0.2924364073    1.5341616910    0.8977840091
 H   -0.0154708845    0.5402622171   -2.6201004188
 H   -0.3978712297   -3.7481414047   -1.1696692562
 H    1.3600387854   -3.9278021518   -1.4662233040
 H   -0.0337695902   -3.8397990767    1.2586786172
 H    1.7370249096   -3.8416168074    1.0568642052