15

 C   -0.1030723548    1.5290241030   -0.0033238222
 C   -0.0345142132    0.0076824981    0.0017170804
 C    1.1838036998   -0.6047704549   -0.7440163807
 O    2.0054447148   -0.3941256112    0.4619459055
 C    0.7443486840   -0.6181596458    1.1921872506
 C    0.6373952163   -2.1259274049    0.9455776089
 O    0.3714524838   -3.0395335101    1.6687174393
 C    0.9853626975   -2.1153235775   -0.5875910663
 O    1.0603551342   -3.0185417184   -1.3666328527
 H    0.8738621945    1.9638389173    0.2213991296
 H   -0.4287681585    1.8946604325   -0.9820971899
 H   -0.8204377326    1.8827258079    0.7437019247
 H   -1.0084800982   -0.4417825182   -0.2224514160
 H    1.6041900030   -0.2113158702   -1.6675646090
 H    0.7236951494   -0.2381389878    2.2118096779