19

 O   -0.2207999005    1.4865339455    0.1846402737
 C   -0.0231342252    0.0758277962    0.0520672965
 C    0.6874786923   -0.5430261775    1.2534619390
 C   -0.4252081403   -0.6644821668    2.3304695867
 C   -1.7128198624   -0.9726246111    1.5119322335
 C   -1.3954481348   -0.6449828870    0.0175691748
 O   -2.3814937441    0.1204704824   -0.6286514734
 C   -0.1089656403   -1.7445926827    3.3374403301
 O    0.0654344743   -1.5754493894    4.5150304533
 H   -0.3928034718    1.6910021644    1.1105084676
 H    0.5281434717   -0.0467526733   -0.8834288903
 H    1.0491455183   -1.5424328989    0.9783275615
 H    1.5497102841    0.0401803920    1.5865560876
 H   -0.5229979193    0.2701642490    2.8923740580
 H   -2.0042133189   -2.0228442068    1.6202213356
 H   -2.5597777104   -0.3734986087    1.8530610945
 H   -1.2917155671   -1.5804430890   -0.5445663037
 H   -2.0910303739    1.0398897038   -0.5353603094
 H   -0.0434888718   -2.7643307323    2.8841601345