18

 C   -0.0530405136    1.5083294331   -0.0838401313
 C    1.4612505409    1.4755392930   -0.0793423017
 C    1.3696601230    0.2797422765    0.8898794779
 C    2.4311241686   -0.4782826653    0.1365411847
 O    3.7417764585    0.1087815690   -0.1339428306
 C    3.3485464778    0.3813589036   -1.5161219462
 C    1.8871993177    0.2857368262   -1.0865381672
 C    0.5327430984   -0.3661140904   -1.2904874108
 N   -0.0008068165    0.0002732469    0.0887521825
 H   -0.4670917784    1.9708792351    0.8171198730
 H   -0.6106612373    1.8517630476   -0.9609887314
 H    2.1347367353    2.3245115516    0.0244918713
 H    1.1840026137    0.3194813574    1.9632125619
 H    2.4868231945   -1.5702261387    0.1892219316
 H    3.7214750050    1.3493064976   -1.8647875683
 H    3.6907896991   -0.4171033352   -2.1883622974
 H   -0.1328073741    0.0502668437   -2.0495734356
 H    0.5904645574   -1.4491492317   -1.4205511225