18

 C   -0.6870883360    1.3087216728    0.0981063117
 C    0.0323148478   -0.0258557398   -0.0374339408
 C    1.0395140860   -0.2099614481   -1.2190787820
 N    2.0681191971   -0.5096209110   -0.2138655493
 C    3.4204327091   -0.7408827236   -0.4232557060
 N    4.1152072269   -1.0815845369    0.7240333596
 O    3.9268900837   -0.6226408553   -1.5187566880
 C    1.2296994719   -0.2458775539    0.8867339793
 N    1.3633831831   -0.1455987610    2.1381403045
 H    0.0140890341    2.1450144438    0.0131241728
 H   -1.4512749945    1.4223972143   -0.6770886915
 H   -1.1732167947    1.3778864165    1.0750119031
 H   -0.6763817293   -0.8568567383    0.0268725067
 H    0.8469655332   -1.0358381043   -1.9076252171
 H    1.2498500430    0.7009070511   -1.7860783751
 H    3.6228925563   -1.6169673675    1.4239936869
 H    5.0531946566   -1.4016426727    0.5322052468
 H    2.3290379055   -0.2652277362    2.4437995985