19

 C   -0.1868698910    1.4645232904    0.2075277393
 O    0.4484204552    0.2299708021   -0.0407309705
 C    0.7930521053   -0.4586611458    1.1210621501
 C   -0.3267945839   -1.2245849722    1.9335454737
 C    0.4697863944   -2.5084839390    1.6782302607
 O    0.5284298559   -2.6748271821    0.2601411728
 C    1.4938477509   -1.8023393184    0.8809295674
 C    2.9347715593   -2.0877980384    0.6027127545
 O    3.3252912334   -1.6646176884   -0.6920635910
 H    0.4548838461    2.1407080289    0.7941182373
 H   -0.3911707553    1.9239139855   -0.7621237026
 H   -1.1376912503    1.3372017548    0.7466345304
 H    1.3880655649    0.1758950227    1.7974711111
 H   -0.3843084703   -0.9223932576    2.9814463099
 H   -1.3207841144   -1.2234494742    1.4816089706
 H    0.5593483379   -3.3984269339    2.2906547190
 H    3.5698815628   -1.5379660051    1.3058726163
 H    3.1135269276   -3.1636671559    0.7550974760
 H    2.6926594617   -2.0378150433   -1.3159005849