16

 C   -0.1572128389    1.5888481873    0.1488882873
 C    0.0109179982    0.0888947615    0.0899487555
 N    1.2624747311   -0.5858038155   -0.1636725491
 C    2.5024365336    0.1539139620   -0.3888022271
 C    0.7176554981   -0.6842501669    1.2049710036
 C    1.3146227335    0.0842269700    2.2750933140
 N    1.8160785225    0.7104169893    3.1077710138
 C    0.2385495956   -1.9933823509    1.5972176216
 N   -0.1722035522   -3.0301364368    1.8988257806
 H    0.6289498783    2.0876399304    0.7173448879
 H   -0.1662161401    1.9976185453   -0.8667049546
 H   -1.1165110815    1.8314747226    0.6147175428
 H   -0.8390275390   -0.4415657569   -0.3366718007
 H    2.6319645942    1.0440370740    0.2378298179
 H    3.3413314516   -0.5224254255   -0.2083557089
 H    2.5219176250    0.4528456701   -1.4400623246