19

 C    0.3669287688    1.2983398496   -0.1626025929
 N   -0.0155350997   -0.0942061299    0.0307325604
 C    0.5615441961   -0.6318412580    1.2530685436
 C   -1.4653846288   -0.2771801974   -0.0088075186
 C   -2.0238071532   -0.1019129052   -1.3881341432
 C   -1.5073616853   -0.5054579200   -2.5987381586
 N   -2.4453813749   -0.1217181096   -3.4952026886
 N   -3.4859069622    0.4851161387   -2.8964929658
 N   -3.2280139342    0.4986307483   -1.6196545390
 H    1.4570925288    1.3760179788   -0.2214233403
 H   -0.0546970248    1.6759760352   -1.0974545953
 H    0.0200983997    1.9554289714    0.6576216543
 H    0.2089968840   -0.1165205867    2.1670761315
 H    0.3151917446   -1.6941923233    1.3474377008
 H    1.6514221933   -0.5371519741    1.2164630600
 H   -1.6770655438   -1.2951990113    0.3412042442
 H   -2.0065054989    0.4048680098    0.6723969761
 H   -0.5919157913   -1.0002324796   -2.8725979606
 H   -2.4444675281   -0.2224942368   -4.4976756281