17

 N    0.2205010651   -0.9264867330    0.9872464605
 C    0.1053495849    0.1477545648    0.5688041534
 C    0.0071420976    1.4694479829    0.0310834641
 C   -1.1384206279    2.1535606851    0.1573698582
 C   -1.3684957292    3.5330333679   -0.3806211564
 C   -0.1090525753    4.2233655557   -0.8588175996
 N    0.9578490160    4.3705831831    0.1451017615
 C    1.1631954960    3.4689352835   -0.9997794390
 C    1.2390634858    1.9917271720   -0.6783750987
 H   -1.9719945469    1.6858572868    0.6728395991
 H   -2.0866274580    3.4705881571   -1.2117599713
 H   -1.8601792358    4.1447256707    0.3879070343
 H   -0.2737531429    5.0536932814   -1.5417458507
 H    1.4603237297    5.2424121632    0.0040003114
 H    1.8507600413    3.7943874401   -1.7772718304
 H    2.1255855397    1.7901614164   -0.0647898055
 H    1.3792667700    1.4254786121   -1.6088011308