19

 C   -0.0567202300    1.5512362793   -0.0629672870
 O    1.3046265822    2.0151646720   -0.0392711980
 C    2.1245347444    0.9479952505   -0.4430241056
 C    2.6421691419   -0.0590769628    0.6384378816
 C    1.7519642799   -0.0249666423    1.8794028700
 C    0.3305529176   -0.4655091824    1.4489286784
 C    0.0186061380    0.0187086354    0.0158675580
 C    1.2822327747   -0.2630215563   -0.8554029480
 O    2.2148696471   -1.1641122902   -0.2196469444
 H   -0.5886452218    1.9998461539    0.7819358115
 H   -0.5422023571    1.8871183516   -0.9912502999
 H    2.8948400036    1.2933548638   -1.1347178980
 H    3.7138267322   -0.1004042995    0.8470681356
 H    2.1385980639   -0.6939845190    2.6541521509
 H    1.7520534148    0.9915239307    2.2872688269
 H    0.2891034009   -1.5573716909    1.4535208810
 H   -0.4272864298   -0.1066180557    2.1521997470
 H   -0.8897964137   -0.4503307539   -0.3703946958
 H    1.0866978212   -0.5214310642   -1.8979852542