20

 C   -0.1785742055    1.5552037441   -0.0275683070
 C    0.0231872098    0.0563795576   -0.0608752101
 C    0.6394951402   -0.6840402076   -1.1956189906
 C    1.4116242441    0.0902714047   -2.2196756042
 C    2.8148566361   -0.4169356905   -2.5154781334
 C    2.5948647093    0.6910622401   -1.5166195834
 O    2.9779145402    1.9981715667   -1.8245620502
 C    2.5103862332    0.2821111964   -0.0421037689
 N    1.3357976751   -0.6061443272    0.1182547218
 H    0.5324211975    2.1053164421   -0.6457501543
 H   -1.1874571120    1.7941442153   -0.3810684080
 H   -0.0969650883    1.9300283324    0.9992268560
 H   -0.7512115619   -0.4838558047    0.4828756699
 H    0.2589213408   -1.6664096187   -1.4689787542
 H    0.8977660946    0.6461559147   -2.9961259533
 H    3.1057175620   -1.4013637300   -2.1606107748
 H    3.2330241682   -0.1251509591   -3.4725451928
 H    3.9354448859    2.0595722544   -1.7388787792
 H    3.3976414599   -0.2704053327    0.2896418721
 H    2.4243578809    1.1778021621    0.5827645444