18

 C   -0.0564219522    1.5124471977    0.0598716759
 C    0.0188625279    0.0177467855   -0.0413585073
 C    0.0098847845   -0.6774263510   -1.1873555273
 C    0.0753259625   -2.1361914949   -1.1118549319
 C    0.8444765283   -2.8476095168   -0.0433099637
 C    0.8826129430   -2.0949446823    1.2860529563
 C   -0.6132249346   -2.1528310432    1.2616391238
 C    0.0752579939   -0.7907068324    1.1830794196
 N   -0.6450535293   -2.9275801380   -0.0232787433
 H    0.8167554735    1.9219196876    0.5834593876
 H   -0.1050374234    1.9743386155   -0.9300507881
 H   -0.9404169633    1.8311774350    0.6267969248
 H   -0.0590487450   -0.2033206077   -2.1603452690
 H   -0.0007050612   -2.6792088923   -2.0488095239
 H    1.4543196479   -3.7201446137   -0.2534914439
 H    1.5898222760   -2.2702408636    2.0849217803
 H   -1.3541467388   -2.3823710494    2.0154932065
 H    0.0425941602   -0.2577219559    2.1293969838