20

 C   -0.1837730856    1.2347590819   -0.3730641614
 C    1.2172505650    1.0252964292    0.0859803516
 N    0.2482352655   -0.0686577283    0.1164697145
 C   -0.2158298248   -0.5175678639    1.3937038392
 C   -0.5653685078    0.3523040401    2.6692984001
 C   -1.2423485544   -0.9824540938    3.0606075770
 C   -1.6254537446   -1.1588676103    1.5719310029
 O   -0.1365474365   -1.8842174870    3.2346656012
 C    0.6492927907   -1.6032166790    2.0588697076
 H   -0.8270154594    1.8397964997    0.2617793234
 H   -0.4158323751    1.2798138402   -1.4331112764
 H    2.0259861602    0.9192069333   -0.6310937529
 H    1.4994741003    1.4841712071    1.0313902736
 H    0.2476879375    0.7008871044    3.3103329091
 H   -1.2802609360    1.1510256256    2.4640317339
 H   -1.9420428801   -1.0867965680    3.8869181621
 H   -2.4305342172   -0.4964638032    1.2481724663
 H   -1.7783315991   -2.1768023020    1.2070291679
 H    0.7503749297   -2.4981010620    1.4350416192
 H    1.6469389017   -1.2460147439    2.3410320612