16

 C   -0.5048628442    1.2896869065   -0.2169172565
 C   -0.0051194035   -0.1126554093   -0.0493237110
 C    0.3780445608   -1.0043707408   -1.0084055972
 N    0.4272508624   -0.9821412950   -2.4021886701
 C   -0.5407421771   -0.5022321487   -3.2458279453
 O   -1.5705859268    0.0364596505   -2.9124899036
 O    0.8265364011   -2.1688572004   -0.4593400773
 C    0.7294573395   -2.0223360098    0.8928136541
 C    0.2206896505   -0.8032951607    1.1936695268
 H   -0.9973035202    1.6304197910    0.6980522466
 H    0.3157858960    1.9874466783   -0.4244603956
 H   -1.2155438046    1.3534677210   -1.0434474765
 H    1.1993096589   -1.4758967975   -2.8270459779
 H   -0.2484544081   -0.6554159859   -4.3026194533
 H    1.0638977348   -2.8625258694    1.4774875522
 H    0.0286445804   -0.4124601897    2.1813565545