19

 C    0.1350078407    1.5079944967   -0.0013055911
 C    0.0146474074    0.0017133327    0.0843819822
 C    1.2576950543   -0.8841184242    0.0118370306
 C    0.5217746066   -0.7814289058    1.3032158602
 C    1.1096501840   -0.0686500479    2.4821233972
 C    2.4104979993   -0.4616354495    3.0455688435
 O    2.2739215454    0.7279741480    2.2648284051
 C   -1.1994765163   -0.5819661531   -0.5413773712
 O   -2.0696055934    0.0535343408   -1.0831633016
 H    1.0522528018    1.8613046282    0.4712836553
 H    0.1333638285    1.8248382680   -1.0482431070
 H   -0.7191938941    1.9916464070    0.4819193985
 H    1.2006153059   -1.8100726233   -0.5507534854
 H    2.1998499278   -0.3531900190   -0.0625634570
 H   -0.0891490766   -1.6353431235    1.5902258698
 H    0.3856848223    0.3876926335    3.1586393692
 H    2.6143237392   -0.3034159594    4.1030558201
 H    2.9714291830   -1.2651249239    2.5715256531
 H   -1.2576007856   -1.6958187152   -0.4749578113