19

 C    0.1723394800    1.5724845334    0.0028647677
 C   -0.0215246082    0.0681369069    0.0297351420
 O    0.6336295158   -0.4731774454   -1.0945005431
 C    0.0954891051   -1.6433422473   -1.6881868441
 C   -0.3443305297   -2.7402286826   -0.6945935758
 C    0.5244677521   -2.7996155860    0.5577853630
 O    1.3404616774   -3.6691092795    0.7432632201
 C    0.2489473822   -1.7204318473    1.6221129467
 O    0.5631901338   -0.3991479703    1.2240352983
 H    1.2421989779    1.7948930600    0.0100363310
 H   -0.2698628423    1.9903254741   -0.9042161366
 H   -0.2921131834    2.0310118821    0.8785500662
 H   -1.0942645831   -0.1949825562    0.0088644753
 H   -0.7510540535   -1.3888955187   -2.3431039001
 H    0.8996919673   -2.0298364165   -2.3197462737
 H   -1.3806726646   -2.5675416806   -0.3829666552
 H   -0.2988745038   -3.7118118745   -1.1926570172
 H   -0.8135852625   -1.7930562665    1.9148646502
 H    0.8711578795   -1.9386085650    2.4914800152