15

 C   -0.1553183022    1.4832979063    0.0168986759
 C    0.1522402698    0.0237536285    0.0111624705
 O   -0.7076112777   -0.8728112779    0.7180115096
 C    0.6891138811   -0.9221565973    1.0136714770
 C    1.3659191060   -1.7928182968   -0.0827811871
 C    0.8154657070   -0.8154249863   -1.1347764662
 O   -0.0229495982   -1.8572869996   -1.7052967355
 C    0.4227718030   -2.7902692241   -0.7830961866
 O    0.1216091740   -3.9336260603   -0.7085163545
 H    0.7088386601    2.0644042168   -0.3203197208
 H   -0.9930000293    1.7002768315   -0.6549728883
 H   -0.4288974892    1.8114142891    1.0228750410
 H    0.9940659904   -0.7902978134    2.0446845528
 H    2.4175839716   -2.0455639453    0.0248031425
 H    1.4174605538   -0.2985178112   -1.8794567304