18

 C   -0.0258556472   -0.4592028425    1.4249074436
 N   -0.0688749171    0.0708042027    0.0679457059
 C   -0.2766618272    1.4115707111   -0.1252452416
 O   -0.4124471299    2.2369548786    0.7492789181
 C    0.0790646350   -0.8168405955   -1.0436730455
 C    1.3743897595   -1.6763983299   -1.2766587593
 C    0.4938227551   -2.8785466870   -1.7246561897
 C   -0.7069540744   -2.1544170523   -1.0901677196
 O   -1.7558493387   -2.5072513599   -0.6394355697
 H   -0.7890957537   -1.2310761130    1.5580757224
 H    0.9579604833   -0.8840829462    1.6539769829
 H   -0.2192017572    0.3712871453    2.1033048692
 H   -0.3074295112    1.6660581879   -1.2034096175
 H   -0.1472648098   -0.2615534980   -1.9623148128
 H    2.0799425572   -1.2772684813   -2.0052722762
 H    1.9005296491   -1.8834200502   -0.3430332147
 H    0.3911404132   -2.9612174780   -2.8110267996
 H    0.7197425740   -3.8655313718   -1.3170340960