15

 C    0.3180211828    1.3656103038    0.1871205213
 N    0.0899071229   -0.0663123758    0.1295183984
 N   -0.0540520761   -0.6753569004   -1.0663831117
 N   -0.2405984429   -1.9449415138   -0.8476942314
 C   -0.2154386649   -2.1680070504    0.4917885183
 C   -0.0050456913   -0.9720433461    1.1382718014
 C    0.0801679828   -0.6353737614    2.5970060557
 C    1.3622589364   -0.0369624339    2.9862014435
 N    2.3671075955    0.4540445917    3.2752224546
 H    1.2700755206    1.5855196005    0.6762749679
 H    0.3384751142    1.7242498354   -0.8414277773
 H   -0.4908443842    1.8646395362    0.7291734155
 H   -0.3466085446   -3.1531356162    0.9107392287
 H   -0.7204415557    0.0543980968    2.8942591817
 H   -0.0690019355   -1.5509270163    3.1773392234