14

 N    0.1911857783    1.2617558167   -0.0330969942
 C   -0.0128485669   -0.0936378009    0.0039277272
 N   -1.1281246284   -0.7265328844    0.2025233482
 C   -0.7411124725   -2.0648170086    0.2165987030
 C    0.5909245647   -2.1759576789    0.0255827753
 C    1.5761955526   -3.2794591780   -0.0818855693
 O    2.1015600868   -3.4612632186   -1.3946832713
 O    1.0819370492   -0.8766790042   -0.1135013856
 H    0.9712914930    1.5617766726   -0.5986862295
 H   -0.6569904857    1.7814983069   -0.2030770026
 H   -1.4593602107   -2.8564871366    0.3630970849
 H    2.3916938066   -3.1293793168    0.6429708860
 H    1.0734698532   -4.2148463658    0.1785442635
 H    2.5310384197   -2.6373935334   -1.6468595056