17

 O   -0.5726757235    1.5308326573    0.0075220063
 C   -0.6168917807    0.2411796223    0.5335389587
 C   -1.1710008768   -0.7578867358   -0.4608944934
 O   -1.4864513421   -0.4087714206   -1.5766211211
 C   -1.3635897740   -2.1933885648    0.0245539785
 C   -2.8103056388   -2.3402434914    0.4925057978
 O   -3.1664319152   -1.9970291219    1.5977746036
 C   -3.8097637088   -2.8848032983   -0.5067879307
 O   -5.1072325621   -2.8868086258    0.0015585940
 H   -0.8921196639    1.4529737784   -0.9045924061
 H    0.3855800800   -0.1087526056    0.8367775242
 H   -1.2445932353    0.1870765340    1.4394347686
 H   -1.1544489724   -2.8693619084   -0.8077794711
 H   -0.7051021839   -2.4089139626    0.8692074263
 H   -3.7268672559   -2.2738804238   -1.4219351249
 H   -3.4820044286   -3.9009116179   -0.7886572611
 H   -5.0336083279   -2.5543466852    0.9093657904