19

 C    0.0192063110    1.5551474072    0.0354419398
 C    0.0151520416    0.0200160708    0.0213018779
 C    0.7806331913   -0.5267283410    1.2346560401
 C   -1.4333615805   -0.5524822477   -0.0168327837
 C   -2.2455178705   -0.0641191844   -1.2485544540
 C   -3.6369499736   -0.5084576832   -1.2276370081
 N   -4.7423762503   -0.8418445415   -1.1969473531
 C   -1.4088079672   -2.0195938553   -0.0003729048
 N   -1.3653695183   -3.1742225938   -0.0071343189
 H    1.0437597993    1.9207983162    0.1485219793
 H   -0.3773374937    1.9936624510   -0.8842538816
 H   -0.5640666741    1.9440146811    0.8785198730
 H    0.5226382853   -0.3242365693   -0.8895668839
 H    1.8090786774   -0.1547332672    1.2300888083
 H    0.3132489398   -0.2005021149    2.1711221913
 H    0.8154390161   -1.6188023171    1.2357958075
 H   -1.9580882577   -0.2221955038    0.8887644777
 H   -2.2399473519    1.0282720068   -1.2751764469
 H   -1.7699540239   -0.4164719240   -2.1700668800