17

 O    0.1216281322    1.3355741109    0.1618554915
 C    0.0333802036   -0.0574084697   -0.0560436569
 C   -1.4405381098   -0.5379971420    0.0020250822
 N   -2.1141517945   -0.2267126320    1.2690501896
 C   -1.6708186136   -1.0464951733    2.3918557262
 C   -2.4398210167   -0.7253629165    3.5981706400
 N   -3.0251494330   -0.4653297215    4.5590348864
 C   -2.1759925893    0.0839322810   -1.1033120465
 C   -2.7112469678    0.6524139212   -2.0174173279
 H   -0.3344112649    1.7687248470   -0.5704690265
 H    0.4780310280   -0.3589937193   -1.0152630648
 H    0.6118050274   -0.5304648181    0.7436963343
 H   -1.4569875487   -1.6291368646   -0.1268748925
 H   -1.9597354924    0.7564207379    1.4752847003
 H   -1.8467767990   -2.1013466355    2.1461118353
 H   -0.6013604970   -0.9566133934    2.6487629975
 H   -3.2205633846    1.1234281579   -2.8222341582