18

 O   -0.2088236362    0.1599265215    0.8180527179
 C   -0.0975672744    1.2061835322    0.2116985062
 C   -1.2712749766    1.8596657151   -0.4352306588
 C   -1.5381574355    3.1651857580   -0.5510058226
 C   -0.7420083822    4.3552310465   -0.0849367894
 C    0.3997697143    4.0562564175    0.8985819958
 C    1.4628822896    3.1888602201    0.2704471970
 C    2.1118861062    2.0616613075    1.0260107054
 N    1.1407771597    1.8060031784   -0.0131402130
 H   -2.0200708317    1.1401298042   -0.7538330343
 H   -2.4870857258    3.4281489965   -1.0165575472
 H   -0.3435638309    4.8810892587   -0.9657266634
 H   -1.4398388078    5.0667873637    0.3755592444
 H    0.8453763581    4.9981265396    1.2378529167
 H   -0.0058039705    3.5549070252    1.7857139690
 H    2.0492239956    3.6738746562   -0.5104639295
 H    3.1376504448    1.7800289046    0.8050076390
 H    1.7942860633    1.8840926043    2.0507551768