18

 C    0.0048857670    1.5610629647    0.0876474426
 O    1.3898355253    1.9118544589   -0.0666313908
 C    2.2227737765    0.7503516105    0.0575726226
 C    1.3169990231   -0.2899811263    0.7100101526
 N    1.6589801228   -1.6947534267    0.5894571625
 C    0.6544031191   -2.4694543364    0.6157940110
 O   -0.6664351275   -2.1800326849    0.7287524417
 C   -1.0853347872   -0.7907004009    0.7149101455
 C   -0.0185889423    0.0390015695    0.0363905837
 H   -0.3712678708    1.9418997597    1.0499050514
 H   -0.5686049803    2.0376334169   -0.7144377635
 H    2.5648106648    0.4060776521   -0.9290648069
 H    3.0979908911    1.0136637417    0.6584853014
 H    1.2407865645   -0.0382333581    1.7791295666
 H    0.7787795812   -3.5479772911    0.5427583650
 H   -2.0472262262   -0.7847125126    0.1954031014
 H   -1.2477851413   -0.4711908684    1.7515405412
 H    0.0538415301   -0.2821275887   -1.0112356781