20

 C    0.1560787847    1.5704220999    0.1380214442
 C   -0.0401227597    0.1049444961   -0.0448891109
 C    0.4256654680   -0.8885450282   -1.0445525210
 N    0.9038288643   -0.9636544258    0.3936221265
 C   -0.2178663549   -1.6439430793    1.1257701246
 C   -1.2348565807   -0.9078444847    0.2386005593
 C   -0.9421084723   -1.5176291665   -1.1394573790
 C   -1.8329265981   -1.4859604127   -2.3400019319
 C   -1.3994675054   -2.8118171297   -1.7332953117
 H    1.1871749265    1.8415731502   -0.1093237918
 H   -0.5156363446    2.1439739656   -0.5100033475
 H   -0.0331049797    1.8743024716    1.1738207576
 H    1.1961369819   -0.8029220736   -1.8008014073
 H   -0.2064823468   -2.7394529647    1.0923829343
 H   -0.2046199783   -1.3010057442    2.1636479268
 H   -2.2536745825   -0.6802828452    0.5501874176
 H   -2.8665575834   -1.1810850267   -2.2093625394
 H   -1.4052248926   -1.1998323505   -3.2960574935
 H   -0.6832808895   -3.4132337510   -2.2840646747
 H   -2.1452304671   -3.3900498807   -1.1961475721