19

 C    0.7653304896    1.4827528325    0.0411906631
 C   -0.0144060557    0.1652117203   -0.0978840144
 C    0.4184002611   -0.7173070071   -1.2994536500
 C    1.2336057896   -1.8442617617   -0.6898418503
 O    2.2790771472   -1.3688411136    0.1589265958
 C    1.0725885513   -1.8914481350    0.7759555082
 C    1.1999046921   -3.0824291522    1.6746379332
 C    0.1819864720   -0.7238385109    1.1437141958
 O   -0.3127605566   -0.5441702127    2.2281533898
 H    1.8401979015    1.2896776941    0.0830584036
 H    0.5635513230    2.1394401686   -0.8109104685
 H    0.4688939954    2.0057637921    0.9548039703
 H   -1.0825278748    0.3975818725   -0.1523799368
 H   -0.4507080946   -1.1347193978   -1.8194281452
 H    1.0051370928   -0.1601285153   -2.0368193510
 H    1.4679806115   -2.7406942528   -1.2595762530
 H    1.9231584995   -3.7936984733    1.2692430788
 H    1.5285020740   -2.7699913528    2.6700891150
 H    0.2330759710   -3.5823247850    1.7878184457