17

 C    0.0139863976    1.4289614782    0.0112640766
 N    0.0173118423   -0.0206596006    0.0481570043
 N    0.0071624906   -0.7076372047   -1.0989023380
 C    0.0135041451   -1.9941964536   -0.7253386715
 C    0.0058456191   -3.0969424233   -1.6959332856
 O   -0.0069132126   -2.9862590868   -2.8984596155
 C    0.0280845355   -2.1145389570    0.6846577168
 C    0.0300466916   -0.8205605881    1.1593522507
 C    0.0430785727   -0.2719950459    2.5477008514
 H    0.9073562746    1.8322992462    0.4978787505
 H    0.0047583340    1.7239938313   -1.0367394609
 H   -0.8729475551    1.8286996989    0.5124482143
 H    0.0133994572   -4.0998941988   -1.2093164099
 H    0.0358757281   -3.0196899171    1.2715010901
 H    0.9288445015    0.3459072235    2.7360369779
 H   -0.8371131453    0.3489232428    2.7514192920
 H    0.0479994331   -1.0907607149    3.2696383067