22

 C   -0.1912742567    1.7056577092    0.3779481959
 C    0.0281600544    0.2349593648    0.0081194202
 C    0.8270689401    0.1063569285   -1.3021654148
 C    0.8892469732   -1.2689411330   -1.9437618876
 O    1.3828914965    1.0596902540   -1.7972619128
 C    0.7033428534   -0.5635682763    1.1329705352
 C    2.1336096725   -0.1816170614    1.4633066863
 C   -0.1653698757   -1.0881926784    2.2183201598
 N    0.4328672498   -2.0139518002    1.2348932359
 H    0.7597604967    2.2316070471    0.4820643827
 H   -0.7564497439    2.2194091201   -0.4038805188
 H   -0.7447980737    1.7847449261    1.3178972104
 H   -0.9488632577   -0.2386963792   -0.1680704511
 H   -0.1201381574   -1.6266357900   -2.1785865488
 H    1.4784976226   -1.2173753507   -2.8600374866
 H    1.3351832599   -1.9952167803   -1.2562186632
 H    2.1941758149    0.8443773582    1.8391934378
 H    2.5301449380   -0.8547724091    2.2265114357
 H    2.7810493380   -0.2517128186    0.5827436015
 H    0.2244212838   -1.1783685574    3.2286126179
 H   -1.2336711904   -0.8938128821    2.1634387405
 H   -0.2787912384   -2.2895817312    0.5619626239