19

 C   -0.0693646704    1.5342901065    0.1141515593
 C    0.0165321292    0.0401317961   -0.0888488791
 C    0.7171103575   -0.6189381213   -1.2221453268
 C    1.7176119051    0.1613709403   -2.0688098313
 N    2.7299705734    0.5160455064   -1.0964860296
 C    3.8839483748    1.3224056741   -1.4106072741
 C    2.4545954047    0.0708495073    0.1764096709
 O    3.1065438733    0.2959749763    1.1671208047
 N    1.2640610590   -0.7397614210    0.1452800776
 H    0.7676520538    2.0747803404   -0.3320190692
 H   -0.9953877693    1.9104261197   -0.3330396825
 H   -0.0906706354    1.7725291643    1.1820669619
 H   -0.8464455825   -0.4962495730    0.3012072067
 H    0.3037745495   -1.5260822099   -1.6516872786
 H    2.1287848794   -0.4720973805   -2.8666605438
 H    1.2854369817    1.0526343577   -2.5479227042
 H    3.5925429811    2.3146352883   -1.7792319775
 H    4.4627972062    1.4381025884   -0.4926612660
 H    4.5082631789    0.8423702601   -2.1746926883