18

 O    0.1884160628    1.3446548877   -0.2635331738
 C    0.0606447858   -0.0273175818   -0.0093519680
 C    0.2200342287   -0.8650889380   -1.2881786679
 O   -1.0118532932   -1.5712637345   -1.0280488730
 C   -1.3538025696   -0.6891913735    0.0734695742
 C   -1.4625622241   -1.3454022881    1.4309865717
 C   -0.6014514606   -2.5294391757    1.6726298276
 N   -0.1649693050   -1.2174306516    2.1533397684
 C    0.7863047156   -0.5097517198    1.2763096480
 H    0.0649097673    1.8247723565    0.5626043174
 H    0.1582118680   -0.2515102851   -2.1942368278
 H    1.0818945700   -1.5388267962   -1.3509244119
 H   -2.2074315459   -0.0509096109   -0.1748821259
 H   -2.3586231787   -1.1786577989    2.0210641426
 H   -0.8617373503   -3.2355730646    2.4559270655
 H   -0.1174342991   -2.9643262862    0.8021623316
 H    1.6493181818   -1.1452953247    1.0518488153
 H    1.1654147564    0.3652343656    1.8181491058