17

 N    0.0127970275   -1.1746048373   -0.1541918560
 C    0.0016736888   -0.0213773000   -0.0937689046
 C   -0.0171486973    1.4422418091    0.0122671943
 N    1.3227323086    1.9864969897    0.0504878066
 C    2.1551485105    1.7372415639    1.2557459961
 C    2.5631995102    3.2110446944    1.2131309209
 C    3.1911214200    4.0813886111    2.2003635411
 O    3.8926352226    3.6416316210    1.0250226625
 C    1.4523567391    3.4581509992    0.1902072253
 H   -0.5403986709    1.8441516993   -0.8633836408
 H   -0.6252583963    1.7085089080    0.9001865671
 H    1.5718615695    1.4771263550    2.1527352110
 H    2.9505375156    1.0009603600    1.1121877361
 H    2.9424066035    5.1416323742    2.2258854621
 H    3.5495077971    3.6647313320    3.1407883435
 H    1.7375550076    3.9782799734   -0.7293880170
 H    0.5662890338    3.9448492069    0.6283072618