16

 C   -0.0663919336    1.5254715640   -0.2480990373
 C   -0.0357074987    0.1077218307    0.3329109213
 C   -1.3846825956   -0.5665167484    0.2542772506
 N   -1.7643681598   -1.1327777891   -1.0438184578
 C   -1.5480389136   -2.0490627610    0.1050482435
 C   -0.4330487553   -2.9537534095    0.0392527633
 C    0.4874172858   -3.7272148826    0.0194616285
 H    0.9198569563    1.9956968148   -0.1924792434
 H   -0.3734288399    1.5024750936   -1.2982208322
 H   -0.7710378690    2.1657852467    0.2948962585
 H    0.6932166454   -0.5045568885   -0.2062324400
 H    0.2851031881    0.1346728335    1.3820220541
 H   -2.1725618355   -0.0790585591    0.8298262414
 H   -2.7629667271   -1.0326016622   -1.2068005428
 H   -2.4362142747   -2.4745457422    0.5682710934
 H    1.3025563973   -4.4069796406   -0.0107396212