18

 O    0.0912644790   -0.4313657286   -0.1745596555
 C    0.3753708266    0.6332312638   -0.6552422687
 C    1.2623976605    1.6676682375    0.0406372169
 N    1.4122141304    2.8410759604   -0.7989522992
 C    1.3328706506    4.2455838976   -0.5262505015
 C    2.2166723636    4.7966458547    0.6470561338
 C    3.0221272800    3.7614569697    1.3818832345
 C    3.4462805087    4.1772782094    0.0007539236
 C    2.5487700330    3.6331101156   -1.1653378013
 H    0.0131567734    0.9582603295   -1.6565826610
 H    0.7941903727    1.9017685355    1.0044853229
 H    2.2225832519    1.1821020302    0.2534819446
 H    0.5341610489    4.8292380843   -0.9721334304
 H    2.0994442292    5.8071189642    1.0159840959
 H    3.6454715071    4.1781308122    2.1685142071
 H    2.6492185567    2.7759523673    1.6168225607
 H    4.4011159262    4.6477401720   -0.1938258672
 H    2.8720735815    3.6515630446   -2.2009703052