16

 O   -0.1103354361   -0.0016723799   -0.1278854087
 C   -0.0437112218    1.1906087523   -0.1087576536
 O    1.0922953607    1.8565458057    0.1625669350
 C    1.0677891251    3.2867654325    0.1686531215
 C    1.6159896906    3.9679693744    1.4594455289
 C    2.6467329520    4.6988469918    0.5891040782
 C    3.5101120709    3.6930372357   -0.1080821330
 C    2.1395405025    3.9694908605   -0.6661629239
 H   -0.8992399705    1.8662185008   -0.3101252319
 H    0.0589998385    3.6325030418   -0.0798619244
 H    0.8761079725    4.6163044728    1.9330843181
 H    2.0256897712    3.2839305522    2.2079985700
 H    2.9238430525    5.7399310773    0.6877941664
 H    4.3231870528    4.0994569212   -0.7002321033
 H    3.7286612153    2.7362799135    0.3579804715
 H    1.9959191536    4.3426750275   -1.6725648510