16

 C    0.0521283431    1.3632492064   -0.1613195336
 O    0.0843379700   -0.0372731305   -0.0236003325
 C   -1.2138494074   -0.6003993163    0.0554754396
 C   -1.1235291281   -2.0793898763    0.1336780619
 C   -1.2975904549   -2.9715162656    1.1469311277
 C   -1.0713087996   -4.2714468130    0.5906810927
 C   -0.7771339282   -4.0672187875   -0.7198717414
 O   -0.8080918271   -2.7436432424   -1.0163956449
 H    1.0870500994    1.7080455344   -0.2210315505
 H   -0.4800003872    1.6737114196   -1.0750243615
 H   -0.4354288518    1.8502450100    0.6989427037
 H   -1.7448307715   -0.2315407860    0.9476589534
 H   -1.8061470058   -0.3037901126   -0.8265679765
 H   -1.5518978157   -2.7305994670    2.1674302135
 H   -1.1217777421   -5.2218912421    1.0979822152
 H   -0.5352212832   -4.7244022513   -1.5389406168