16

 N    0.0593790870    1.3605379493    0.1140977349
 C   -0.0086797734    0.0045058133    0.0072466380
 C   -1.1398759390   -0.7484582787   -0.0374112375
 C   -0.9729662378   -2.1987434979   -0.0090161969
 O   -1.8709055254   -3.0192530973    0.0209475532
 C    0.5136697324   -2.6114706512    0.0089501261
 C    1.2636866726   -1.8466053172    1.1287388082
 C    1.3047762753   -0.7663795584    0.0192218502
 O    1.2259571153   -1.8055174370   -0.9841794768
 H    0.9056163349    1.8248240751   -0.1736185412
 H   -0.7858244757    1.8956280410   -0.0124382887
 H   -2.1389538802   -0.3274982021   -0.0668173261
 H    0.6424508704   -3.6857374776   -0.1257560323
 H    0.7412034155   -1.6217279658    2.0591434844
 H    2.2512441022   -2.2706894771    1.3196413631
 H    2.1844362059   -0.1249120584   -0.0945814586