20

 O    0.0924000013    1.4258336208   -0.0961581457
 C    0.1074800067    0.0228494560    0.0433578792
 C   -1.3180928989   -0.5374281072    0.0589041182
 O   -2.0283550015   -0.0411911363   -1.0843303606
 C   -1.3754209082   -2.0450035780    0.1294712080
 C   -0.8186427898   -3.0105154163    1.2045525957
 N   -1.4700529023   -3.9883455833    0.2094887548
 C   -2.6192707992   -2.9626051318    0.1717385066
 C   -0.8270429866   -3.1030749324   -0.8701635262
 H   -0.6028458926    1.6090275033   -0.7420478461
 H    0.6749986196   -0.4585711691   -0.7745473533
 H    0.6222227771   -0.2128830447    0.9812980915
 H   -1.8489788585   -0.1097594810    0.9181305027
 H   -1.7023493556   -0.5165255741   -1.8581863775
 H    0.2652884029   -3.1302625104    1.2848692233
 H   -1.2936829859   -3.0098824868    2.1894666094
 H   -3.2298808507   -2.9586692859    1.0787806396
 H   -3.2388784603   -3.0327396148   -0.7257696131
 H   -1.3111829200   -3.1972850252   -1.8472769693
 H    0.2558964224   -3.2317792627   -0.9500429671