16

 C   -0.0060564114    0.9248759651   -0.5104986280
 N   -0.1986922056   -0.0921919984    0.5014344980
 C   -1.0868175919   -0.9528150365    0.2983505437
 O   -1.3276034257   -1.9154342349    1.2261482046
 C   -2.2935922035   -2.8798882160    0.8948743150
 C   -1.8003853492   -3.8845477025   -0.1378940008
 O   -0.7915493174   -3.7551695004   -0.7848524229
 C   -2.6867330314   -5.1162481854   -0.3592180392
 O   -3.7156618084   -5.2945927655    0.2379807800
 H    1.0250734964    0.8828240619   -0.8784617902
 H   -0.6850860118    0.8340692893   -1.3740348640
 H   -0.1454379521    1.9161443182   -0.0647416729
 H   -1.7389950614   -1.0011379720   -0.5867053495
 H   -2.5561378677   -3.4082289028    1.8155429668
 H   -3.2271510796   -2.4314686899    0.5193999474
 H   -2.2845845393   -5.8136387301   -1.1228717880