18

 C   -0.0268430546    1.3452169887    0.4032181706
 C    1.1632480761    2.2545624442    0.0726018440
 C    2.5159410120    1.6939791090    0.4588323666
 O    2.5492980564    0.6426350807    1.4359009283
 C    3.0095343145    0.3568464503    0.1095842313
 C    2.3099470958   -0.6933239944   -0.7216114940
 C    0.8102947182   -0.7417808073   -0.8406693424
 C   -0.1440309819    0.0721191313   -0.3916366399
 H    0.0116117006    1.0996301333    1.4724956070
 H   -0.9444958464    1.9263366107    0.2586437922
 H    1.1701517797    2.4984739686   -0.9975268490
 H    1.0269758320    3.2047944579    0.6036995682
 H    3.2810734573    2.4566954897    0.6212551149
 H    4.0965706053    0.2510642462    0.0546274465
 H    2.7411321641   -0.6327213112   -1.7337496527
 H    2.6430095490   -1.6740622979   -0.3485259423
 H    0.4773295324   -1.6211824249   -1.3910105598
 H   -1.1682311204   -0.2287860849   -0.6055277395