18

 O    0.0662933630    1.3893581824   -0.0959497838
 C    0.0579060981    0.0240831067   -0.0364517241
 C    0.0175303954   -0.7946720001   -1.1383729877
 N    0.0223015396   -2.0969795707   -0.6678449449
 C    0.0647620201   -2.1147270423    0.7009293008
 C    0.0877753042   -0.7987217639    1.1245747800
 C    0.0802810115   -3.3528809865    1.5008130258
 C   -0.6949875428   -4.5885895916    1.0859027003
 C    0.8087132585   -4.6002733944    1.0387240530
 H    0.0970335890    1.7285294733    0.8027208380
 H   -0.0133851217   -0.5660508884   -2.1894981421
 H   -0.0021000795   -2.9092748000   -1.2573888913
 H    0.1221775582   -0.4691929236    2.1529551366
 H    0.1152652721   -3.1553385933    2.5667530930
 H   -1.1936185451   -5.1622633850    1.8593318179
 H   -1.2412147418   -4.5453420188    0.1491934040
 H    1.2957811191   -4.5651151581    0.0696050371
 H    1.3458761520   -5.1819833755    1.7796673075