21

 C   -0.0591831621    1.6008343602    0.0920259052
 C    0.0069465121    0.0685237216    0.0054433979
 C    0.7768302232   -0.4448066052   -1.1981969359
 C    1.7748068710   -1.2752376936   -0.8788446144
 C    2.7390802340   -1.9476286997   -1.8043459798
 C    1.8393130707   -1.4278384126    0.6220990863
 C    2.4072792230   -2.6524623350    1.2824090271
 O    2.1362949840   -0.1609958108    1.2740377321
 C    0.7690769763   -0.5753862760    1.1636438673
 H    0.9485521772    2.0124814366    0.1905541091
 H   -0.5217947530    2.0256378234   -0.8044819793
 H   -0.6491530901    1.9206996704    0.9570786491
 H   -1.0191887495   -0.3278629234   -0.0052298077
 H    0.5524390647   -0.1083746398   -2.2060824610
 H    2.5205357487   -1.7061315376   -2.8479389788
 H    3.7718448171   -1.6418957840   -1.5940591733
 H    2.7082942780   -3.0390929162   -1.6973156210
 H    3.4706026088   -2.7688160093    1.0458563119
 H    2.3092523489   -2.5780409669    2.3679804506
 H    1.8881692015   -3.5557765551    0.9441081354
 H    0.2702772257   -0.7770098170    2.1093647792