20

 C    0.0946295748    1.2534832840   -0.3744601656
 O   -0.0305905392    0.1726443938    0.5313495157
 C   -1.1897803344   -0.5724065271    0.3092021818
 C   -1.4421881448   -1.6019617803   -0.7622967559
 C   -0.3375481967   -2.6555989878   -0.9110072443
 C    0.8540437355   -2.4844405190   -0.0515602709
 N   -0.3881192157   -3.0420389707    0.5385943259
 C   -1.4515344817   -1.9753880851    0.7432210512
 C   -2.5478104345   -2.3741364484    1.6832566572
 H    1.0090596220    1.7894700131   -0.1115276406
 H    0.1630801468    0.9037534739   -1.4138802247
 H   -0.7592260088    1.9433879618   -0.2947741860
 H   -2.0917229492    0.0322888285    0.4553270059
 H   -2.2696473414   -1.5241250185   -1.4573806974
 H   -0.3978206474   -3.4223595689   -1.6771610552
 H    1.6157562407   -3.2557023319   -0.1382320197
 H    1.2032895008   -1.5073941401    0.2446597519
 H   -2.1658788576   -2.4231060697    2.7100547068
 H   -3.3732378753   -1.6566010495    1.6585842092
 H   -2.9347969438   -3.3648969280    1.4263266445