17

 C   -0.2199061554    1.8934143119    1.1134202373
 C   -0.0536186691    0.5858508791    0.3376585756
 C    0.7791378886   -0.4391661037    1.1563222744
 C    1.7771886063   -1.2750744958    0.3862827562
 O    0.6250931262   -0.5342539120    2.3482666383
 C   -1.4179194444   -0.0395319574    0.0220039803
 O   -2.4394998129    0.3141427875    0.5642758898
 C   -1.4236018727   -1.0899860643   -0.9843201939
 C   -1.4352657462   -1.9485755854   -1.8286207023
 H    0.7533017313    2.3645202289    1.2764229079
 H   -0.8603887777    2.5878182676    0.5651152712
 H   -0.6758077742    1.6921101064    2.0829012306
 H    0.4553381099    0.7423077851   -0.6207482607
 H    1.2857234037   -1.7718565049   -0.4564513433
 H    2.5508952455   -0.6226205984   -0.0363133049
 H    2.2387750892   -2.0110807568    1.0453829697
 H   -1.4665114283   -2.7102108076   -2.5700390961