21

 C   -0.0258774367    1.5279894137    0.0611879664
 C   -0.0425813881    0.0084904892   -0.0805898744
 C    0.8047769833   -0.5299012401   -1.2478851821
 C    1.2772745070   -1.9065676080   -0.7602523383
 C    2.4616442410   -2.5077421610   -1.5088315659
 C    1.5593014640   -1.6002668412    0.7330009238
 N    0.4880455078   -0.6807497936    1.1210999664
 C    1.5741827924   -2.8108250111    1.5685078056
 N    1.6133777506   -3.7678942332    2.2152338278
 H    0.9986227627    1.9002016607    0.1791318863
 H   -0.4605654234    2.0044536875   -0.8232840896
 H   -0.6106988956    1.8480889385    0.9301833245
 H   -1.0858179430   -0.3083988986   -0.2230221455
 H    0.2473454481   -0.5816760678   -2.1869983651
 H    1.6753668413    0.1192971681   -1.4137473818
 H    0.4321048866   -2.6043469778   -0.7965091132
 H    3.3203490045   -1.8265195768   -1.5018614900
 H    2.7755922375   -3.4543346719   -1.0579095311
 H    2.2012135178   -2.7061256434   -2.5528801590
 H    2.5650445846   -1.1528485218    0.8085302203
 H    0.7818455975   -0.0352536513    1.8420336048