17

 C    0.0589175201    1.5140327804   -0.3496771435
 C   -0.0165925625    0.0966013261    0.2251034219
 C   -1.4112326142   -0.5157569675    0.1286690623
 C   -1.8676811398   -1.1320812805   -1.1974251623
 C   -1.5706480350   -2.0202788920   -0.0246038295
 O   -0.3950813321   -2.7649895949    0.0108662400
 C   -2.4255292295    0.1472601721    0.9109330032
 N   -3.2324760774    0.6855022005    1.5421212546
 H    1.0727112940    1.9132944758   -0.2534594492
 H   -0.2094563670    1.5266958023   -1.4112448814
 H   -0.6209348487    2.1923919389    0.1751204869
 H    0.6766094634   -0.5701115758   -0.2932637388
 H    0.2891117022    0.1027438015    1.2774299485
 H   -2.8972039083   -0.9958072953   -1.5063244605
 H   -1.1324427763   -1.1050815687   -1.9945766493
 H   -2.4177478673   -2.4672858171    0.4936105102
 H   -0.4776981718   -3.4863798158   -0.6219462930