20

 C    0.0407987281    1.3428804343    0.2040560610
 O   -0.0708866234   -0.0527225371    0.3538745687
 C   -1.2470003514   -0.5777758337   -0.2448665764
 C   -1.2198653985   -2.0628378890   -0.1238132423
 C   -2.2224598963   -2.9975381955    0.0495128536
 C   -3.6918129572   -2.7341218600    0.1976501619
 C   -1.5924858821   -4.2790012708    0.0329367035
 C   -0.2432058571   -4.0852854949   -0.1433303203
 N   -0.0298856311   -2.7377060821   -0.2561144091
 H    0.9768709646    1.6491406753    0.6772204620
 H    0.0620975667    1.6405343244   -0.8564884122
 H   -0.7927551660    1.8728946933    0.6907534346
 H   -2.1501396437   -0.1748258451    0.2403957187
 H   -1.2855314668   -0.2540953333   -1.3019176867
 H   -4.2373610505   -2.8761659654   -0.7440636276
 H   -4.1408529933   -3.4118737637    0.9314491469
 H   -3.8905038053   -1.7108631088    0.5327854446
 H   -2.0871550758   -5.2327262325    0.1433040207
 H    0.5759837772   -4.7851989731   -0.1833019673
 H    0.8603509722   -2.2709211122   -0.2769848743