15

 C   -0.0345380511    1.5325002505    0.0693586806
 C    1.5277909874    1.5536674096    0.0545089975
 C    1.5493172799   -0.0009675032   -0.0344808844
 C    1.5275641532   -0.7780582509    1.3055533089
 O    0.7888711592   -0.0043884297    2.2586653077
 C    0.0528594560   -0.7978688846    1.3198580502
 C   -0.0156495546   -0.0221788642   -0.0194260992
 H   -0.4964561301    1.9361561967    0.9719133739
 H   -0.4875797713    2.0058750268   -0.8047991904
 H    1.9511236140    2.0390051495   -0.8279405722
 H    1.9956995275    1.9698345034    0.9482563792
 H    2.1166736724   -0.4774179119   -0.8340638564
 H    2.2597203727   -1.4706747736    1.7068473768
 H   -0.6524939666   -1.5098149832    1.7350915488
 H   -0.5851496286   -0.5141023451   -0.8080409412