21

 C    0.1575421751    1.6658339387    0.0825088571
 C   -0.1031271368    0.1585956203   -0.0055804138
 C    0.6336141905   -0.5053668336   -1.1660459233
 C    2.1972411266   -0.6334778666   -1.1146433391
 C    2.0821844006   -2.1442407989   -1.3382409631
 C    1.2775831109   -2.7915469963   -0.2738621073
 C    0.5201095001   -2.0294277643   -1.3391559926
 C   -0.3658008980   -2.7281870421   -2.2800188452
 O   -0.3934245766   -3.9268227957   -2.4508148571
 H    1.2236456272    1.8780333391    0.2184213891
 H   -0.1667606562    2.1774953505   -0.8305292126
 H   -0.3796837299    2.1136233057    0.9239082657
 H    0.1864091261   -0.3193024545    0.9385129701
 H   -1.1798281976   -0.0238389929   -0.1203700358
 H    0.3431549553   -0.0145614795   -2.1030233309
 H    2.6978177467   -0.1031368514   -1.9263299047
 H    2.6690071706   -0.3469738721   -0.1682864486
 H    2.6584204045   -2.7245987169   -2.0482032631
 H    1.1583094302   -3.8661128758   -0.3599283008
 H    1.2979982111   -2.4066544609    0.7422860330
 H   -1.0239364203   -2.0521702127   -2.8748352471