19

 C   -0.0599991355    1.5721458588   -0.0100817708
 C   -0.0014503315    0.0492340815   -0.0171568972
 C    1.0866087902   -0.5528041630   -0.9634668040
 C    1.8219237816   -1.1251685863    0.2702931461
 C    3.2458487325   -1.1871680998    0.4168338080
 N    4.3995487738   -1.2171591973    0.4982780455
 C    0.7547054532   -0.5461323042    1.1926625591
 N    0.9867259718   -1.9623031381    1.1092369500
 C    0.0308187377   -2.9126663808    0.5574149988
 H    0.9339063700    2.0054205877    0.1476971969
 H   -0.4466014802    1.9541684813   -0.9601580010
 H   -0.7137919278    1.9356425699    0.7899154308
 H   -1.0068149766   -0.3620372211   -0.1533341850
 H    0.7716874329   -1.2857025732   -1.7107582294
 H    1.6716079482    0.2251886634   -1.4576276888
 H    0.8888945784   -0.0567043908    2.1526172795
 H   -0.5268805828   -2.5610560423   -0.3204081429
 H    0.5695664867   -3.8232184915    0.2817845878
 H   -0.6879340226   -3.1664754642    1.3417562966