19

 C   -0.1193624952    1.4338662631    0.1500744455
 C   -0.1286303963   -0.0168261103    0.0322924048
 C   -0.1394408910   -1.2192219538   -0.0431810998
 C   -0.1629627544   -2.6724100189   -0.1960817592
 O   -1.3456238667   -3.1166157058   -0.8664830788
 C    1.1076304714   -3.1875458283   -0.9169694568
 C    1.1029800904   -4.7171928627   -0.9345183081
 C    0.7061442223   -5.3859481366   -2.2317199101
 O    1.3678542737   -5.3380705165    0.0690007561
 H    0.4782102759    1.8971355539   -0.6424840976
 H   -1.1338845177    1.8419216737    0.0856800293
 H    0.3024298495    1.7466035589    1.1113930941
 H   -0.1938109898   -3.1523990893    0.7890618163
 H   -1.5405897565   -2.4739496037   -1.5571493127
 H    1.1462620561   -2.7628934733   -1.9251445508
 H    1.9865067924   -2.8531351393   -0.3584775223
 H    1.3775062077   -5.0827152063   -3.0433353956
 H    0.7207526640   -6.4707850504   -2.1210045279
 H   -0.3006940059   -5.0458986944   -2.4992861864