24

 C   -0.1908931134    1.5698587746    0.1885496771
 C   -0.0517796686    0.0424252042    0.0827834378
 C   -1.4303258726   -0.6139061992   -0.1113164392
 C   -1.4116798773   -2.1213273099    0.0186811034
 C   -1.5770997955   -2.7685492353    1.3718523115
 C   -2.6755125256   -2.8747615498    0.3406649986
 N    0.8478577045   -0.4761760770   -0.9611155386
 C    1.0937569901    0.2685433378   -2.1880819346
 C    2.1658109651    0.0954648268   -1.1650831959
 H    0.7763796585    2.0768080385    0.2583522470
 H   -0.7367620932    1.9883480257   -0.6636679230
 H   -0.7539775514    1.8229305845    1.0921541554
 H    0.3683894012   -0.3270250628    1.0276494437
 H   -2.1285432544   -0.1927673479    0.6236244696
 H   -1.8130864300   -0.3262982509   -1.1008468774
 H   -0.7168896422   -2.6086293117   -0.6568306559
 H   -0.9947399218   -3.6546583868    1.5995830106
 H   -1.7506931926   -2.1229104528    2.2275473504
 H   -3.5814598471   -2.3002900160    0.5077983778
 H   -2.8441042229   -3.8338058245   -0.1371940298
 H    1.0991395364   -0.3188983109   -3.1026437647
 H    0.6792724932    1.2679558915   -2.2979920592
 H    2.4548297471    0.9809752977   -0.6016769708
 H    2.9700820325   -0.6203029257   -1.3171758139