19

 C    0.0233568252    1.5721345496    0.0420481749
 C    0.0256376001    0.0612087799    0.0345548982
 C    0.9480523941   -0.7841250009   -0.9189615869
 C    0.5991284155   -1.9239243439    0.1026355864
 C    0.6598095641   -0.7950040670    1.1918595234
 C   -0.9051643221   -2.0090105513   -0.1032183089
 C   -1.2956410680   -0.7199402425   -0.1499021215
 C   -2.6524188687   -0.2318390336   -0.3326611928
 O   -2.9890853067    0.9338832674   -0.3726645294
 H    1.0398838019    1.9549657874    0.1824913299
 H   -0.3697984418    1.9723903632   -0.8964806301
 H   -0.6070143118    1.9633729271    0.8452838656
 H    0.6241635217   -0.9152327117   -1.9543898332
 H    1.9987139262   -0.4802779021   -0.8753598652
 H    1.1735743335   -2.8455569115    0.1763280458
 H    1.6832759468   -0.4921907721    1.4346233083
 H    0.0703508110   -0.9361288971    2.1011599723
 H   -1.5071212027   -2.9043980283   -0.1900394024
 H   -3.4043857983   -1.0473265825   -0.4395906941