16

 C   -0.0974514381    1.5326149065   -0.0024243479
 C   -0.0271094458    0.0099381636    0.0941148166
 C    0.7760211666   -0.5268728807    1.2465494286
 N    1.3296938894    0.3167406304    2.0472611838
 O    2.0779112769   -0.1502503811    3.1214355594
 N    2.2595842298   -1.4867221853    3.3761379729
 C    1.7092292016   -2.3303338505    2.5801245337
 C    0.9023441001   -1.9796886066    1.4210536143
 N    0.3365530372   -2.7893651967    0.6032006100
 H    0.8971692299    1.9720124195   -0.1136273730
 H   -0.7001701666    1.8208609238   -0.8678512627
 H   -0.5486750980    1.9690529808    0.8923437144
 H   -1.0293223922   -0.4309193135    0.1678901690
 H    0.3913567829   -0.4281135993   -0.8208526493
 H    1.8847309401   -3.3755993412    2.8274317963
 H    0.5235908663   -3.7603284097    0.8674899637