13

 O    0.0799856539    1.3165933999   -0.0085819689
 C    0.0648214081   -0.0294626781   -0.0688301537
 C    0.0045392911   -0.7872290195   -1.2182528510
 N    0.0148609657   -2.0979325319   -0.7331296835
 C   -0.0126095167   -3.4490676917   -1.0590465868
 C    0.0359351167   -4.1124114885    0.1163715876
 O    0.0932442059   -3.2264152274    1.1777325830
 C    0.0786502221   -1.9999121384    0.6215566562
 N    0.1115810449   -0.7793182551    1.0883347175
 H    0.1256532984    1.5448515383    0.9278779414
 H   -0.0415537321   -0.5341528773   -2.2603845837
 H   -0.0628318864   -3.8210176612   -2.0670815910
 H    0.0380786785   -5.1571554091    0.3681001729