19

 O    0.1261988910    1.2449017976    0.7852702167
 C   -0.1202890921   -0.1313929603    0.5514599341
 C   -1.5506915300   -0.4450769780    0.1213706495
 C   -2.6670588446    0.3976983961    0.6906018443
 C   -2.2795231439    0.5140884510   -0.7714285577
 N   -1.6595399531   -1.8652433311   -0.1379173760
 C   -2.0740758358   -2.7362059436    0.9617926711
 C   -2.9608091889   -2.5118555934   -0.2123090614
 H    0.2336412160    1.6756525763   -0.0675979639
 H    0.5682732953   -0.5493169381   -0.1963020528
 H    0.0840660553   -0.6401401216    1.5008164503
 H   -3.6212597491   -0.0576129563    0.9312696181
 H   -2.3728679841    1.2087383038    1.3464725078
 H   -1.7808879220    1.4216857164   -1.0955704700
 H   -2.9529774423    0.0903883066   -1.5089048764
 H   -1.5179356509   -3.6630328679    1.0690105787
 H   -2.3716647329   -2.2641097496    1.8962187792
 H   -3.8592318547   -1.9210416067   -0.0497525562
 H   -3.0558936834   -3.2685543812   -0.9862783753