17

 C   -0.0603271437    1.4797655899    0.0120409233
 N    0.0715252252    0.0404011989   -0.0141686944
 C    0.1077466062   -0.7460971913   -1.1741546760
 C    0.1394553555   -2.0536668733   -0.7720949207
 O    0.1975689883   -3.1629734344   -1.5528078914
 C    0.1119765954   -2.0935517457    0.6569581935
 N    0.1457045679   -3.3086750667    1.3962336129
 C    0.0653916542   -0.7764488124    1.0708799784
 O    0.0141579844   -0.2290452055    2.3144060109
 H    0.6229843320    1.9281180375   -0.7151413764
 H   -1.0823299382    1.7999693771   -0.2256363793
 H    0.1967922664    1.8454296763    1.0067854343
 H    0.1164767012   -0.2924419284   -2.1494642160
 H    0.2060582038   -3.9065170465   -0.9325458948
 H   -0.6774837216   -3.4747373538    1.9642577878
 H    0.9722482749   -3.4262640170    1.9716382362
 H    0.0760138582   -0.9525261146    2.9471215714