16

 O    0.0994030001    1.4160429808    0.0216977783
 C    0.0716789314    0.0424767182   -0.0120892051
 C    0.6523879944   -0.9321794217   -1.1893215870
 C   -0.0511648994   -1.8012557255   -0.1181151294
 C    0.6446320463   -0.9609337254    1.0030841049
 N   -0.9590548174   -2.8902033504    0.2339642858
 C   -1.9060772774   -1.9495372467    0.7435467475
 O   -2.8505534144   -2.0962289827    1.4564343614
 C   -1.2269430400   -0.8122746723   -0.1182386544
 H    0.9779782257    1.7038431862    0.2939283457
 H    0.1695766201   -0.8468323422   -2.1632124927
 H    1.7414395103   -0.9945294096   -1.2679806218
 H    1.7324772370   -1.0395049740    1.0706719485
 H    0.1659774263   -0.9834106063    1.9854032462
 H   -0.6951003494   -3.7286195989    0.7401617908
 H   -1.7586652436   -0.7195026494   -1.0684810587