18

 C   -0.0552803707    1.4241100293   -0.1571271964
 N    0.0168675860    0.0212611555    0.2047717964
 C   -1.2504885722   -0.6922040727    0.3084515761
 C   -1.0533667412   -2.0243561052    1.0303246736
 C    0.1070585239   -2.7902897670    0.3890444575
 N    1.3167458985   -1.9901944466    0.2482728290
 C    1.1767465089   -0.7198110190    0.1596327893
 C    2.4095872910    0.0410114069    0.0261330211
 N    3.3913709044    0.6411564838   -0.0838797493
 H    0.9378185794    1.8731367984   -0.1444816088
 H   -0.4854585321    1.5614246263   -1.1597497653
 H   -0.6865250622    1.9614009383    0.5599100259
 H   -1.9545085088   -0.0537773047    0.8548218318
 H   -1.6778504013   -0.8548028614   -0.6937728738
 H   -0.8249057214   -1.8332745664    2.0846605978
 H   -1.9791023617   -2.6062735393    0.9950676863
 H    0.3566206593   -3.6775444683    0.9802315611
 H   -0.1831816999   -3.1598683279   -0.6055824022