16

 C    0.0643686224    1.6528378180   -0.2282633950
 N   -0.0232149108    0.2265856201    0.0015343634
 C    0.5449451797   -0.5343614586   -0.8373585651
 N    0.5544622627   -1.9095161260   -0.7621838904
 C   -0.0293743702   -2.7078052308    0.2030551712
 N    0.0974529456   -4.0156467980    0.0900051580
 O   -0.5811365906   -4.5424677212    1.1856117819
 C   -1.0855363314   -3.5338931229    1.9086128743
 C   -0.7817586549   -2.3340390388    1.3558888681
 H    0.6332163603    1.9222768036   -1.1336033861
 H   -0.9422023146    2.0783000713   -0.3180937842
 H    0.5394095077    2.1403341296    0.6313456737
 H    1.0936283461   -0.1727384061   -1.7182373738
 H    1.0402272136   -2.4110548837   -1.4886705217
 H   -1.6376404777   -3.8203896831    2.7905763356
 H   -1.0267137678   -1.3386335135    1.6742018700