20

 C   -0.1519161391    1.5273461459    0.1094408182
 C    0.1276575239    0.0608613745    0.0309234325
 O   -0.7507299256   -0.8237067565    0.7448288708
 C    0.6604492012   -0.9113465315    1.0007553491
 C    1.2560083354   -1.7904915611   -0.1000655730
 C    0.7076020229   -0.7571692190   -1.1638144831
 C   -0.3326033815   -1.2919358743   -2.1435057918
 C    1.8399416379   -0.0194017914   -1.8768321462
 H    0.7110910804    2.1139395312   -0.2201110506
 H   -1.0033995381    1.7962581292   -0.5265127594
 H   -0.3961742367    1.8109085386    1.1367312755
 H    0.9803825646   -0.7838516797    2.0295161311
 H    2.3481407803   -1.8363708061   -0.0866705695
 H    0.8480087400   -2.8035418035   -0.1472563596
 H   -1.1561523881   -1.7664933276   -1.6046346875
 H   -0.7444540002   -0.4863869415   -2.7630372002
 H    0.1102876865   -2.0327822969   -2.8189632105
 H    2.3785622130   -0.6962055705   -2.5491641632
 H    1.4553282947    0.8107759028   -2.4801806390
 H    2.5656522083    0.3905174374   -1.1653871736