17

 C   -0.1641153223    1.2057832976    0.4276491846
 O   -0.2262023265   -0.1684898223    0.0872968823
 C    0.5190499993   -0.5187753649   -1.0429120108
 C    2.0890859909   -0.3606316332   -1.0570261957
 C    2.1818362474   -1.8755907163   -1.2512315091
 O    1.5551302776   -2.4782969175   -0.1128829410
 C    0.7234582822   -2.0494532628   -1.1826703923
 C   -0.1439922503    0.0143500614   -2.3099594470
 O    0.4219266431    0.2603607151   -3.3433006194
 H    0.8573254076    1.5129028800    0.6892224021
 H   -0.5232159941    1.8542392800   -0.3853506889
 H   -0.8096015960    1.3441200365    1.2971736370
 H    2.4217982247    0.2234449639   -1.9163421054
 H    2.5359190352    0.0021425878   -0.1303219061
 H    2.9243649055   -2.4560011255   -1.7836744089
 H    0.0531256457   -2.7734931127   -1.6304390315
 H   -1.2466681299    0.1246770630   -2.1988282498