17

 C   -0.0413554139    1.6742066597    0.3194249052
 C    0.0115941059    0.1553221134    0.1402252064
 C    0.9660481545   -0.4829049389   -0.9022998851
 N    1.6120785384   -1.3744641302    0.1295104305
 C    2.2401463257   -0.4599373481    1.0980821687
 C    0.7825787939   -0.6723326787    1.1884059762
 C   -1.4098791847   -0.3725850677    0.0247923235
 O   -1.8404834683   -1.0556186133   -0.8661822920
 H    0.9503826030    2.0804904227    0.5323662810
 H   -0.4184602204    2.1608543292   -0.5866341617
 H   -0.7016633086    1.9521443440    1.1492234041
 H    0.4332631258   -1.0773502405   -1.6447305383
 H    1.6708119632    0.1937011256   -1.3959449167
 H    2.8599339406   -0.9730391152    1.8274417086
 H    2.6439670290    0.4878334681    0.7485649349
 H    0.3241201672   -1.2173879951    2.0091356697
 H   -2.0641039014   -0.0616157349    0.8737207750