17

 O   -0.1199688285   -0.0735320679   -0.1229975508
 C   -0.0907468886    1.1115331647    0.0128532668
 C   -1.1554835205    2.2030599933    0.2312335573
 C   -0.0131279384    3.1511149216    0.6715998142
 O    0.0103869920    3.1886899085    2.0830459769
 C    1.2813727398    3.4908195070    2.6367415013
 C    2.3739861153    2.5915749875    2.1208957653
 C    2.2528505821    1.9435739299    0.9647236425
 C    1.0520765735    2.1639607431    0.1058194903
 H   -1.6260998487    2.4943924988   -0.7132146553
 H   -1.9252544078    2.0042909328    0.9791057880
 H   -0.0091110014    4.1628166181    0.2467340986
 H    1.5393698597    4.5513096481    2.4635669090
 H    1.1652639890    3.3667668374    3.7185878435
 H    3.2608732832    2.4863402884    2.7387284011
 H    3.0194119087    1.2605146730    0.6123221519
 H    1.3393422105    2.4348268953   -0.9194549307