19

 O    0.0874752273    1.2985416744   -0.3950173552
 C    0.0411137330    0.0210865669    0.2267678501
 C   -1.3391226931   -0.5907057162    0.1467670662
 C   -1.8483754220   -1.3220451853   -1.0607329277
 O   -0.8004572034   -2.0429224318   -1.7275586841
 C   -0.6433386273   -2.8729034573   -0.5604958949
 C   -0.5327261223   -4.3541128628   -0.6880058973
 C    0.6530534754   -3.5206134623   -0.2120600291
 C   -1.6501636939   -2.0788590167    0.2353785061
 H   -0.0925069759    1.1621306041   -1.3311255667
 H    0.7826988067   -0.6608566162   -0.2056884266
 H    0.3151381146    0.1899139431    1.2733754203
 H   -2.1145140611    0.0122005820    0.6165412316
 H   -2.7326604665   -1.0768566254   -1.6369297582
 H   -1.0541167595   -4.9752385899    0.0333539093
 H   -0.4864149524   -4.7597273581   -1.6926420037
 H    1.4734351062   -3.3862396427   -0.9089926804
 H    0.9464121968   -3.5749365933    0.8309347932
 H   -2.3716995427   -2.4964687824    0.9247493173