17

 C   -0.0205073753    1.4291244645    0.0537303127
 O   -0.1519989653    0.0326498686   -0.1103970076
 C    0.6138865711   -0.5337193840   -1.1505642327
 C    0.2227349279   -0.0312964039   -2.5359669800
 C    2.1465766350   -0.6306680097   -0.9016176721
 O    2.1041736733   -2.0661303748   -1.0246175359
 C    0.6616020242   -2.0689790977   -1.0146692982
 H    1.0313851975    1.7334558971    0.1627877145
 H   -0.4608616292    1.9957786360   -0.7781099614
 H   -0.5536767865    1.6899400680    0.9709496564
 H    0.4618631516    1.0283082885   -2.6688411674
 H    0.7654571485   -0.5915577200   -3.3028229102
 H   -0.8510746164   -0.1675325566   -2.6995777421
 H    2.8110716645   -0.1742492850   -1.6443926124
 H    2.4425638876   -0.3110218562    0.1064237632
 H    0.2502230719   -2.4158071049   -0.0590076174
 H    0.2429010894   -2.6578905198   -1.8383650793