17

 O   -0.1192877039    0.0534843406    0.1293689827
 C   -0.1050516398    1.2532783210    0.0585589087
 C   -1.3211404733    2.1830605330   -0.0281627691
 C   -0.6887735081    3.5498695354   -0.0361019298
 C    0.6458428991    3.5119429753    0.0072178644
 C    1.1812683143    2.1186908342    0.0547533995
 C    2.2644164921    1.6883979738    1.0788204349
 C    3.0501596858    1.2141855322   -0.1556980461
 O    2.0554091016    1.7636094461   -1.0506970379
 H   -1.9117197556    1.9691970401   -0.9281165021
 H   -1.9887073136    2.0082334621    0.8247871113
 H   -1.2788282742    4.4589314822   -0.0744440297
 H    1.2999984589    4.3760518837   -0.0026406085
 H    2.7138285309    2.5215834313    1.6215846547
 H    1.9521444066    0.9120507221    1.7778293887
 H    4.0334490950    1.6695670056   -0.3176554498
 H    3.1304129242    0.1269715112   -0.2607855619