21

 C   -0.0678451683    1.4816445750   -0.2852020981
 C   -0.0286451737    0.0408678363   -0.0739421571
 C    0.0365417583   -1.1503838865    0.0959897614
 C    0.0481768907   -2.5971625145    0.3112375341
 C   -1.3412340797   -3.1954753604    0.1073173322
 O   -2.3103985093   -2.6226950947    0.9421549401
 C   -1.7825171689   -3.6488162505   -1.2649441149
 C   -1.5510097706   -4.6571152650   -0.1484115104
 C   -0.4303003692   -5.6708026314   -0.2138317307
 H    0.8657166459    1.8403985784   -0.7325766585
 H   -0.8852039500    1.7652852424   -0.9573501985
 H   -0.2112495636    2.0210995918    0.6575209743
 H    0.7700681624   -3.0688794366   -0.3638165562
 H    0.3814217378   -2.8132427283    1.3348765499
 H   -2.3021612586   -1.6728304293    0.7655068962
 H   -2.8054516950   -3.4346729099   -1.5527848642
 H   -1.0610285462   -3.6165968892   -2.0760358734
 H   -2.4630853407   -5.0265941556    0.3128698037
 H    0.4549353297   -5.2730621570   -0.7196184193
 H   -0.1244257933   -5.9977599794    0.7863078022
 H   -0.7479472177   -6.5591106358   -0.7705771226