18

 C    0.0467490916    1.6109156707   -0.6345966872
 C    0.0313016833    0.1044291355   -0.3720440316
 N    0.9487675410   -0.6416173725   -1.2368054099
 C    2.1771190424   -1.0634678917   -0.7650153308
 O    3.0075758841   -1.6625354810   -1.4076465292
 C    0.5856496878   -0.9335535372   -2.5506708349
 N   -0.5307027597   -0.5727622164   -3.0273520793
 C   -0.8175664865   -0.9441479528   -4.3983866504
 H    1.0454334921    2.0290163282   -0.4744270423
 H   -0.2624558351    1.8201699192   -1.6603786022
 H   -0.6477483267    2.1143447154    0.0450413941
 H    0.3159929670   -0.1090929844    0.6628608550
 H   -0.9717383474   -0.2956588651   -0.5366210114
 H    2.3182144209   -0.7876427038    0.2968915202
 H    1.3589338375   -1.4948373107   -3.0819701086
 H   -1.7333388014   -1.5456262079   -4.4306087125
 H   -1.0110360492   -0.0419062386   -4.9900643877
 H   -0.0095172918   -1.5131913069   -4.8837138112