15

 O   -0.0178875335    0.0470949385    0.2540418869
 C    0.0289636572    1.2173670013    0.0179088639
 O   -1.1055853326    1.9531112189   -0.2283337920
 C   -0.7885514210    3.2583527162   -0.7650982522
 C   -1.6337737394    4.2728541221   -0.1482907002
 C   -2.3168220501    5.1298839061    0.3423381916
 C    0.7125555084    3.4535392733   -0.5338798574
 C    1.1729686671    3.3061119434    0.8784271150
 C    1.2214063894    2.1147211881   -0.0649085274
 H   -0.9931019126    3.2217097124   -1.8427113342
 H   -2.9271742712    5.8823894155    0.7781443246
 H    1.2559564330    4.0729609285   -1.2351299817
 H    2.1292164485    3.7436511252    1.1396084734
 H    0.4356821899    3.3103978954    1.6741696382
 H    2.1674878970    1.6770610151   -0.3510838982