13

 C   -0.0356611708    1.3799290733    0.0468886323
 O    0.0237090296   -0.0535217670   -0.0394389437
 C    0.6243503147   -0.5739947844   -1.0896965573
 N    1.1397460900    0.1980093805   -2.0062577260
 C    1.7529880427   -0.3746646379   -3.0778214824
 O    2.2769427904    0.1511100838   -4.0062013284
 O    1.7680395443   -1.8338487424   -3.0856127435
 C    1.2018660104   -2.4764748566   -2.0813191635
 N    0.6191244496   -1.9510999213   -1.0628239801
 H    0.9707542826    1.8027103266    0.0693062973
 H   -0.5747161937    1.7915695473   -0.8087369370
 H   -0.5651935474    1.5858560384    0.9763043584
 H    1.2684849776   -3.5573052504   -2.1846779861