16

 C    0.1137426805    1.4255442160    0.1935900007
 N    0.0669757385   -0.0253369519    0.1573052799
 N    0.0478286619   -0.6685328392   -1.0282566978
 N   -0.0407083458   -1.9456343396   -0.7862299546
 C   -0.0854875192   -2.1347762156    0.5579324201
 C   -0.0239333102   -0.9106174726    1.1875040771
 C    0.0124963799   -0.5112318427    2.6295839784
 C    1.4447267586   -0.1628773957    3.0277107732
 O    1.8352402439    0.9586859784    3.2204507539
 H    0.8642588396    1.7647544241    0.9100535294
 H    0.3715097175    1.7637988315   -0.8094993691
 H   -0.8612454818    1.8368522067    0.4737605156
 H   -0.1630409456   -3.1184487962    0.9935724280
 H   -0.6252355058    0.3538205756    2.8334426154
 H   -0.3312179595   -1.3549903631    3.2368327499
 H    2.1297925375   -1.0363122759    3.0883864399