21

 C    0.1085301683    1.5498900483    0.1626152959
 C    0.0434084777    0.0261881645    0.1674247420
 N   -1.2950409124   -0.4312563857   -0.1374732499
 C   -1.6058930766   -1.7526622756   -0.2628078267
 N   -0.6724652780   -2.6300576700   -0.2207843749
 C   -0.8450413759   -4.0558550539   -0.3636081247
 C   -3.1295057996   -1.9129368951   -0.4409920022
 C   -3.7319322042   -3.2362684936   -0.8467807810
 O   -3.8375393536   -0.9438764058   -0.2596503442
 H    1.1229195816    1.8877125752    0.3910246356
 H   -0.1736822942    1.9536529244   -0.8149526189
 H   -0.5628650137    1.9793994218    0.9147974265
 H    0.7321290074   -0.3963581470   -0.5730425872
 H    0.3713988937   -0.3731455907    1.1388167513
 H   -2.0821213306    0.1871085988   -0.0143859617
 H    0.1252653462   -4.5352576461   -0.2003145965
 H   -1.5422274670   -4.4979262888    0.3628523445
 H   -1.1807173028   -4.3570188294   -1.3665357059
 H   -3.2526295705   -3.6300130027   -1.7476254703
 H   -3.5949536964   -3.9851027563   -0.0606569723
 H   -4.7978079692   -3.0870624324   -1.0236587094