17

 C    0.0556656235    1.5104015526    0.0161996508
 C   -0.1118832410   -0.0000172474   -0.1070757085
 N    0.7275017110   -0.5225022704   -1.1759402265
 C    0.8464535307   -1.8651530314   -1.3698421640
 N    0.4582991525   -2.7593567014   -0.4836090765
 O    0.8511767766   -3.9891361219   -1.1142722684
 C    1.3917930923   -3.6433959073   -2.2807245473
 N    1.8901570866   -4.6382546163   -3.0616978907
 N    1.4231943834   -2.3621230199   -2.5195929880
 H    1.0964730365    1.7729311471    0.2267764377
 H   -0.2438360730    2.0188674260   -0.9078063327
 H   -0.5707459668    1.8980137269    0.8240914333
 H    0.1886485122   -0.4970314517    0.8204946227
 H   -1.1703409484   -0.2565908276   -0.2679405079
 H    0.7703613719    0.0143420932   -2.0290120457
 H    1.5149578786   -5.5601772142   -2.9053065357
 H    2.0471285934   -4.3872460162   -4.0244080829