18

 C   -0.0282886196    1.5748703400    0.0022348975
 C   -0.0078139255    0.0356906010    0.0234172749
 C    0.7356694825   -0.4997385476    1.2583073486
 O    2.0727542110   -0.0310189123    1.1934391782
 C   -1.3755603256   -0.5505588680   -0.0620626643
 C   -2.0177030370   -1.3768871204   -0.9244022423
 N   -3.3231306413   -1.5903307891   -0.4923721380
 C   -3.4073080064   -0.8958933418    0.5921907791
 O   -2.2761070970   -0.2332314874    0.9300380363
 H    0.9896948885    1.9591201866    0.0885517561
 H   -0.4708343377    1.9456881652   -0.9263910593
 H   -0.6181486504    1.9645259719    0.8378541185
 H    0.5407048729   -0.3220284356   -0.8560279185
 H    0.2276380735   -0.1484047649    2.1695275866
 H    0.6960966898   -1.5996733717    1.2563705825
 H    2.5269056704   -0.2992382630    1.9971069781
 H   -1.6373910042   -1.8322469710   -1.8251103826
 H   -4.2524187039   -0.7791199922    1.2523741887