16

 O   -0.2978257407    0.0149167268    0.0264054945
 C   -0.0905974161    1.1938920396    0.0116583892
 N    1.1561666289    1.8413407812   -0.0191016873
 C    1.1333430454    3.3127168145   -0.0981402298
 C    2.4096920588    3.9028950747    0.4746915609
 O    3.5194991814    3.3739343523   -0.2194346339
 C    3.6532503304    1.9912663365    0.0229408043
 C    2.3771859836    1.1406665621   -0.0413765000
 O    2.4650695619   -0.0597633452   -0.0530421073
 H   -0.9029656320    1.9501160302    0.0320166910
 H    1.0318867964    3.6317555904   -1.1424947977
 H    0.2621686979    3.6784451123    0.4547595683
 H    2.4219718557    4.9858433116    0.3282080215
 H    2.4829678626    3.6953128965    1.5549081159
 H    4.3461534763    1.5890305106   -0.7187668831
 H    4.0869833696    1.8041474260    1.0195898934