18

 C   -0.0677623744    1.4950623405   -0.1701929361
 C   -0.0739912868   -0.0078746670   -0.0346919086
 C    0.7998499940   -0.8604629005   -0.8435181993
 O    1.1154378135   -0.5993646794    0.5333208556
 C   -1.3239865134   -0.6744445297    0.5272668447
 O   -1.8483986773   -1.6396933535    0.0185443648
 N   -1.8231406045   -0.0508393017    1.6654821469
 C   -1.1073923557    0.0082071632    2.9341184744
 C   -2.3600241560   -0.8021216999    2.7756628397
 H    0.9056599706    1.8314351233   -0.5357775685
 H   -0.8402816226    1.8191350656   -0.8752624099
 H   -0.2669525296    1.9783872236    0.7896977460
 H    0.4850741317   -1.8759416653   -1.0672401196
 H    1.4706336346   -0.3947468646   -1.5635243853
 H   -0.1623358617   -0.5229867897    2.9954310684
 H   -1.1409057459    0.9622619321    3.4527298023
 H   -3.2929005776   -0.4322603028    3.1904917293
 H   -2.2702651588   -1.8834177440    2.7217697253