21

 O   -0.0610708594    1.4314586646   -0.0566894327
 C    0.0280088958    0.0134622578    0.0024592992
 C   -1.3875317319   -0.5475766479   -0.0005982506
 C   -2.1974398028   -0.2055719779   -1.2706885655
 C   -3.2489440460   -1.3320875806   -1.4089431635
 O   -3.6184044882   -1.6122139017   -2.7534299154
 C   -2.6057438059   -2.5487014333   -0.7712429579
 C   -1.1866213741   -2.8643615947   -1.1690752941
 C   -1.4568499646   -2.0707835582    0.0876273927
 H    0.8311671363    1.7883831862   -0.0849739609
 H    0.5841107774   -0.3877809947   -0.8600177272
 H    0.5545571977   -0.3135576809    0.9139616087
 H   -1.9039600696   -0.1308158557    0.8742417784
 H   -2.6434238265    0.7902935911   -1.2238590430
 H   -1.5534588565   -0.2258311769   -2.1568807042
 H   -4.1458259680   -1.0735196301   -0.8225329892
 H   -4.0558509357   -0.8314388742   -3.1075590082
 H   -3.2501227285   -3.3612134569   -0.4559996597
 H   -0.8618286157   -3.8907837801   -1.0398211413
 H   -0.7611335583   -2.3771119111   -2.0392444300
 H   -1.2448802453   -2.5395364850    1.0428827145