16

 C    0.0406966850    1.5577151275    0.0224070960
 C   -0.0413720367    0.0273041693   -0.0365180568
 O   -1.3873092680   -0.4125599118   -0.0652463076
 C    0.7400410133   -0.5801478786   -1.2130183229
 C    1.9878259090   -1.2107074734   -0.6014382862
 O    2.9427139186   -1.6775539711   -1.1624645003
 N    1.8201115336   -1.1727853483    0.7870585904
 C    0.6501255379   -0.5721061241    1.2052877825
 O    0.2226370142   -0.5249674914    2.3331772198
 H    1.0779024789    1.9077464620   -0.0095941570
 H   -0.4998129180    1.9794288406   -0.8292595939
 H   -0.4152678801    1.9218827668    0.9475161905
 H   -1.7270760803   -0.3178809990    0.8347488892
 H    0.1471352502   -1.3700172520   -1.6829554257
 H    1.0211410702    0.1367424754   -1.9864832110
 H    2.4756765424   -1.6102381819    1.4205391430