15

 C   -0.0319992640    1.4631992849    0.0667791897
 C   -0.0200001803   -0.0345470505    0.0079714694
 N   -0.0196763002   -0.5708665413   -1.1746712766
 O   -0.0005328801   -1.9409710866   -1.2545201514
 C    0.0043551924   -2.7103110875   -0.1468614664
 C   -0.0017335863   -2.2241566732    1.1196784515
 N   -0.0520618424   -2.9686831655    2.2789949110
 C    0.0012114157   -0.7783722870    1.2745252852
 O    0.0303120055   -0.2305042429    2.3744592433
 H    0.8416032433    1.8225115117    0.6192619360
 H   -0.0346703837    1.8838968740   -0.9391733811
 H   -0.9122255091    1.8094889583    0.6172773878
 H    0.0126836421   -3.7610835990   -0.4128484991
 H    0.3730657779   -3.8825619368    2.2662516457
 H    0.1849643794   -2.4080184687    3.0881804051