18

 C    0.0187099272    1.5366711469    0.1072489529
 C   -0.0506030894    0.0153448890   -0.0281346809
 O   -1.3856311155   -0.4610562653   -0.0301709499
 C    0.6858324703   -0.4869628606   -1.2761442067
 C    0.6789785604   -2.0118896749   -1.4506599064
 O    0.3872915976   -2.1911197539   -2.8414219018
 C   -0.1182663314   -1.0350713823   -3.3492004590
 N   -0.6073876767   -0.8517947021   -4.4918113858
 O   -0.0304542059   -0.0339594682   -2.4361695146
 H    1.0541469722    1.8769096999    0.2125452828
 H   -0.4082405842    2.0208839773   -0.7766999631
 H   -0.5440145816    1.8554343805    0.9877131688
 H    0.4241441786   -0.4510871553    0.8446672958
 H   -1.8082304890   -0.1000954935   -0.8196989972
 H    1.7026212115   -0.0767920737   -1.3138626758
 H    1.6418910672   -2.4772298987   -1.2324823550
 H   -0.1104408158   -2.4748067908   -0.8509082914
 H   -0.6141259755   -1.7254067143   -5.0126415526