18

 C    0.0022028309    1.3769298047    0.1106214670
 O   -0.0841336507   -0.0368051170   -0.0490194111
 C    0.5907399556   -0.5418712818   -1.1280113507
 C    2.1669075556   -0.5233383143   -1.3112510369
 C    1.7939544571   -1.6478557097   -2.2977317498
 C    0.6901078030   -2.0898962997   -1.3141529942
 O    1.0331654655   -0.9273548712   -3.3210961911
 C    0.1921471655   -0.1592099662   -2.5501748243
 N   -0.6837706441    0.6526254280   -2.9472600524
 H    1.0461620881    1.6954812090    0.2411962599
 H   -0.4363491450    1.8984805216   -0.7445602636
 H   -0.5555414037    1.6163736333    1.0177694053
 H    2.6422426460    0.3666876154   -1.7272061952
 H    2.6831751737   -0.8791015058   -0.4183291495
 H    2.5034783546   -2.3149793710   -2.7779864161
 H    1.0746067410   -2.5818919543   -0.4197499755
 H   -0.1735483095   -2.6160344253   -1.7242221256
 H   -0.7151491934    0.6840471242   -3.9683138461