19

 O   -0.0475026612    1.4024992864   -0.1307827013
 C   -0.0459717015    0.0104497506   -0.0027229280
 C   -0.3808415657   -0.6994713888    1.2923917805
 C   -1.1471019447    0.1597032897    2.2574535734
 C   -2.3769276076    0.3864521770    1.7838810464
 C   -3.4266879519    1.4604503919    1.5929632559
 C   -3.2747332183    1.1495953283    0.0563215119
 C   -2.6299353716   -0.2442188792    0.4395718738
 C   -1.2945828239   -0.8336528836    0.0319017575
 H   -0.3860147869    1.7644701816    0.6970538222
 H    0.7749545453   -0.4148774884   -0.5732026977
 H    0.2669306416   -1.4979758787    1.6404553349
 H   -0.6818480687    0.6360201853    3.1139372653
 H   -4.4154267626    1.1666196746    1.9608884078
 H   -3.2042968874    2.4696800877    1.9463081156
 H   -4.1979799708    1.1107984574   -0.5248992195
 H   -2.5536407619    1.8085907467   -0.4257051938
 H   -3.4137560914   -1.0107544771    0.4591721490
 H   -1.2816170608   -1.7519540714   -0.5441784338