17

 C   -0.0272767513    1.1107575864   -0.6969735255
 O   -0.2745997367   -0.2839359739   -0.5781708584
 C   -1.3395217311   -0.5938397282    0.2803758690
 O   -2.5918125505   -0.1963149604   -0.2243632054
 C   -3.1719602210   -1.0578665492   -1.2060729573
 C   -2.2311113272   -2.1744629405   -1.6231523121
 O   -1.7635774926   -2.8788152306   -0.4582912474
 C   -1.2640122816   -2.1082801092    0.5328705018
 O   -0.8278322976   -2.5882275776    1.5387266178
 H    0.8243552856    1.2234192556   -1.3700417546
 H   -0.8947692022    1.6372550383   -1.1106334572
 H    0.2238091367    1.5491945247    0.2788732160
 H   -1.2318042598   -0.0774947437    1.2410537897
 H   -4.0875112666   -1.4872913918   -0.7800209753
 H   -3.4477519946   -0.4569099766   -2.0802874329
 H   -2.7568228570   -2.9132495936   -2.2308769888
 H   -1.3742211626   -1.7879389195   -2.1799166494