21

 C    0.1203154707    1.4430543719    0.2516588903
 C   -0.2898485395    0.0393525822   -0.2320194863
 C    0.4907182410   -0.4256575948   -1.3722250102
 C    1.1460716859   -0.7760014023   -2.3253473139
 C    1.9177242396   -1.2550073093   -3.4108298025
 C    2.2288103046   -0.5934902761   -4.5370111190
 C    3.1149214442   -1.3973923023   -5.4519674694
 C    3.0335989537   -2.8265112332   -4.8560444752
 C    2.5603141393   -2.6367639877   -3.3950181300
 H    1.1693835777    1.4564156029    0.5591942480
 H   -0.0062763030    2.1802450539   -0.5457394303
 H   -0.4940306885    1.7470915068    1.1045235748
 H   -0.1903464926   -0.6764714751    0.5942900281
 H   -1.3554451334    0.0427658052   -0.4979699649
 H    1.9172422312    0.4215226247   -4.7543620967
 H    2.7936957635   -1.3595535384   -6.4993094378
 H    4.1425678358   -1.0044844365   -5.4360152003
 H    2.2860187316   -3.4054263622   -5.4073249609
 H    3.9793297961   -3.3695421085   -4.9265178777
 H    3.3964571717   -2.6501282778   -2.6830660844
 H    1.8628991802   -3.4146149133   -3.0686939318