20

 C    0.4696034401    1.2749231738    0.0314232118
 C   -0.0655722037   -0.1748084299   -0.0009535522
 C    0.4813845806   -0.9895141347   -1.2306330805
 C    1.5376221679   -1.9403042349   -0.6924333141
 C    2.6782629756   -1.3791671609    0.1199854700
 C    1.4676140405   -1.9481833471    0.8174880531
 C    0.3656493531   -1.0025394187    1.2655134213
 C   -1.5301774884   -0.0995544100   -0.0684835696
 N   -2.6837542073   -0.0368173579   -0.1214948683
 H    1.5600432073    1.2867403797    0.0820466315
 H    0.1634790439    1.8192078104   -0.8662970902
 H    0.0814597818    1.8099838139    0.9025800689
 H   -0.3281412767   -1.5685907995   -1.6837129147
 H    0.8587151532   -0.3094696239   -2.0014278800
 H    1.7111349825   -2.8548259461   -1.2483981340
 H    3.5871145332   -1.9700596001    0.1590421727
 H    2.8571708034   -0.3099740614    0.1338590123
 H    1.5893805120   -2.8685288565    1.3775691066
 H    0.6697106717   -0.3307438820    2.0749584846
 H   -0.4820456009   -1.5859155043    1.6356883705