18

 C    0.4122510669    1.4488162212   -0.2859161591
 C    0.0443580525   -0.0003641182    0.0147783238
 O    0.3498047057   -0.8663222079   -1.0790335774
 C    1.3387366859   -1.7906166633   -0.7033951118
 C    2.6699239095   -1.5424219066   -1.4148835086
 O    3.2633320885   -0.3199850850   -1.0331420314
 O    1.5349995549   -1.6582430975    0.7088592339
 C    0.8234752101   -0.5882047970    1.1727339780
 N    0.8161147618   -0.1638897140    2.3583030564
 H    1.4697045045    1.5144344897   -0.5515479821
 H   -0.1862030004    1.8204889506   -1.1217613340
 H    0.2158710057    2.0645887539    0.5956490327
 H   -1.0286858916   -0.0806419706    0.2277310443
 H    0.9830183393   -2.8110718518   -0.9051663011
 H    3.3344230582   -2.3996865989   -1.2279097116
 H    2.4775180768   -1.4876228401   -2.4902770477
 H    3.5016134527   -0.3968807575   -0.1027946191
 H    1.4204437391   -0.7257100971    2.9589233548