16

 C    0.0854811606    1.4981329207    0.1153761022
 C    0.0300446657   -0.0422065904    0.0046858841
 N   -1.3150011353   -0.6336990734    0.0796817060
 C   -2.0194724498   -0.3817396291    1.3296313791
 C   -3.2873485690   -1.1178420697    1.3645701975
 N   -4.2998484809   -1.6726944154    1.3896338569
 C    0.6640250581   -0.4833301293   -1.2386269677
 C    1.1757925724   -0.8055982282   -2.2764311479
 H    1.1196857987    1.8461283916    0.0484465078
 H   -0.4826259324    1.9597180592   -0.6980562536
 H   -0.3247789399    1.8407805062    1.0696440858
 H    0.5966714497   -0.4653659612    0.8470057606
 H   -1.8728172680   -0.3336548943   -0.7132452364
 H   -1.3943959571   -0.7364955641    2.1592445375
 H   -2.2466895940    0.6772684434    1.5405508584
 H    1.6324163013   -1.1092413062   -3.1860819203