18

 O   -0.1840899113    1.3776433028    0.6422486457
 C    0.0123775732    0.1280320981    0.0139543400
 C    0.9119709122   -0.8441148235    0.8229612174
 C   -0.0296425306   -1.7634076412    1.6419291062
 C   -1.3379477194   -1.7540552355    0.8655724922
 N   -2.1405794622   -0.5182073442    1.0512161019
 C   -1.3165057320   -0.6358580024   -0.1452302204
 C   -2.0642780508   -2.9991410729    0.5287526568
 O   -1.6878255462   -4.1139468952    0.7888433751
 H   -0.8804738670    1.2364190204    1.2990213450
 H    0.4510905628    0.3436195479   -0.9646525919
 H    1.4853226935   -1.4580368779    0.1191686767
 H    1.6250037892   -0.2865711205    1.4342023739
 H    0.3474898907   -2.7848452487    1.7247064686
 H   -0.1970653846   -1.3848759972    2.6540726439
 H   -3.1221184266   -0.6867110064    0.8330491165
 H   -1.7995940818   -0.7264646235   -1.1131601824
 H   -3.0254081691   -2.8202673003   -0.0138389552