14

 N   -0.0508264188    1.2495989624    0.0006992423
 C   -0.0076943971   -0.0015541789    0.0535492218
 N    1.0975484887   -0.9518846699   -0.0904120375
 C    1.0477431991   -1.8261897390    1.1176778245
 C    0.0750972954   -2.0886135366    0.0447471474
 C   -1.0584692329   -1.0836016304    0.1334299851
 C   -2.3917229723   -1.1377119470    0.7378534698
 O   -2.2050057214   -1.1118218376   -0.6838197917
 H    0.8857323639    1.6391456612   -0.1347330046
 H    1.9173259446   -2.4709383200    1.1958604650
 H    0.7116177333   -1.3953219342    2.0576795089
 H    0.1032039285   -2.9440946584   -0.6181348899
 H   -2.7555498017   -2.0798086306    1.1449417906
 H   -2.8166715595   -0.2318995011    1.1655960882