15

 O   -0.2230839854    0.0238578329    0.0027731745
 C   -0.0697629161    1.2204907791    0.0105616962
 N    1.1330159551    1.8876282229    0.0031921271
 C    1.2473422399    3.3537679574    0.0130976736
 C    2.7888447055    3.5483677345   -0.0023235979
 N    3.3878157092    2.2114905902   -0.0195686928
 C    2.4410853577    1.3500434930   -0.0155598873
 C    2.6732393264   -0.0534540281   -0.0291310790
 C    2.9488306559   -1.2223741311   -0.0413346145
 H   -0.9141161129    1.9381797038    0.0254701295
 H    0.7594729226    3.7861943293   -0.8653918744
 H    0.7788870676    3.7727248225    0.9085112534
 H    3.1262014916    4.1079586146   -0.8810263464
 H    3.1455516978    4.0938691708    0.8776036379
 H    3.1621708751   -2.2629902617   -0.0520275700