18

 N    0.0500808500    1.2637247456    0.3997967687
 C    0.0358825922    0.0452906982    0.0588372088
 C   -1.2664316502   -0.7215345668   -0.0161458242
 C   -1.2809667833   -1.7537285455   -1.1621301114
 C   -0.0195865172   -2.6097852017   -1.0790959662
 C    1.2062403503   -1.7089681677   -1.1270525736
 O    1.1875926144   -0.6611340122   -0.1427091798
 C   -2.5617835865   -2.5615436673   -1.1310664861
 O   -2.6113813431   -3.7636292691   -1.0858672671
 H    1.0144859652    1.6023718478    0.4345369296
 H   -1.3868029151   -1.2544494789    0.9371794724
 H   -2.0795438791    0.0022052130   -0.0913273323
 H   -1.2949731829   -1.1984934547   -2.1146954207
 H   -0.0315459264   -3.1882241485   -0.1489950170
 H    0.0241920617   -3.3303531778   -1.9010249586
 H    2.1236067035   -2.2680541121   -0.9293749592
 H    1.2995339527   -1.2471003799   -2.1205321243
 H   -3.4922387960   -1.9481458222   -1.1489635692