15

 N    0.1286309375    1.2832268648    0.0069446852
 C    0.0164825290    0.0242342820    0.0039083419
 N   -1.2213351036   -0.6431659789    0.0120242095
 C   -1.2793256757   -2.0381440519    0.0089345225
 N   -0.2593456523   -2.7898516436   -0.0010869694
 C   -2.7571960213   -2.3694187086    0.0198400220
 O   -3.4211086499   -1.1128994297    0.0285093181
 C   -2.5132253145   -0.0816783774    0.0236622309
 N   -2.8003499857    1.1396582359    0.0287814770
 H    1.1189686768    1.5279178358   -0.0005696987
 H    0.8219755566   -0.7127319847   -0.0050979940
 H   -0.5260254325   -3.7727277469   -0.0014812856
 H   -3.0462782781   -2.9391186101   -0.8704227943
 H   -3.0320934354   -2.9439061548    0.9115095139
 H   -3.8132571109    1.2535306980    0.0370766912