21

 C   -0.2182062476    1.9035020830    1.0187415873
 C   -0.2410354282    0.3780098514    1.0017702233
 C    1.0885494925   -0.2620751672    1.3721996345
 O    2.0875809608    0.3957521659    1.5666505405
 C    1.0897684156   -1.7729787331    1.5118356173
 C    2.4610242434   -2.4712777700    1.4833850040
 O    2.3132974557   -2.9586044630    2.8324081576
 C    1.0204678548   -2.3385655722    2.9783645858
 C    0.9747091607   -1.3814555119    4.1532839288
 H    0.5424250522    2.2872162467    0.3345618714
 H   -1.1896117005    2.3093144601    0.7232327431
 H    0.0247905551    2.2795706859    2.0160484090
 H   -1.0098611107   -0.0227433636    1.6777849884
 H   -0.5182932545   -0.0045375506    0.0084452054
 H    0.3319577032   -2.2157262460    0.8623373710
 H    2.5560750978   -3.2881416316    0.7587664422
 H    3.3054829471   -1.7816122261    1.3872117591
 H    0.2351053063   -3.1000973470    3.0809890575
 H    1.7173716923   -0.5875026056    4.0441184399
 H   -0.0193059289   -0.9309871420    4.2548245727
 H    1.1905568528   -1.9336533433    5.0731961911