22

 C   -0.1421524261    1.5123946090   -0.0023340475
 C    0.0815043123    0.0006226518    0.0315870886
 C    1.0992023612   -0.5911757144   -0.9756248574
 C    2.4278903543    0.1048944100   -0.6140276704
 C    2.2630279543   -0.7516590350    0.6382179938
 N    1.6253318239   -1.8432432121   -0.2237089088
 C    0.6731064544   -2.0980882809    0.9081567219
 C    0.8058945974   -0.6042181031    1.2697623520
 C    0.5276431550   -0.0561046787    2.6493194329
 H    0.7490821631    2.0848535120    0.2672219009
 H   -0.4550665444    1.8365560248   -1.0013409696
 H   -0.9348893367    1.7992086529    0.6965085611
 H   -0.8962243802   -0.4804134146   -0.0920363316
 H    0.7809696939   -0.7424387674   -2.0073270161
 H    3.2544840011   -0.2754598570   -1.2182903931
 H    2.4711516410    1.1919744529   -0.5521198531
 H    3.0807677400   -1.0352259165    1.3040471574
 H   -0.3144452338   -2.4933111553    0.6448658874
 H    1.1621233319   -2.7753370962    1.6161361064
 H    1.1197897467   -0.5776286784    3.4092282506
 H    0.7650189550    1.0110786284    2.7184553528
 H   -0.5294668643   -0.1760483322    2.9154845415