14

 O   -0.0679516285   -0.0836704622   -0.4302245494
 C   -0.0821869274    1.1226705487   -0.3303586927
 C    1.1182928583    1.9182483289   -0.2098886155
 C    2.1443946435    2.5420730064   -0.1309487728
 C   -1.3975664550    1.9319837339   -0.2808557280
 O   -1.3959580658    3.1084376510    0.0053691960
 N   -2.5033694493    1.2142831569   -0.6594002920
 C   -3.0568023269    0.0237492007   -0.0521019051
 C   -3.8151498178    1.3218358526   -0.0673824281
 H    3.0455284704    3.1015829645   -0.0587815834
 H   -3.3276156331   -0.7729768629   -0.7379781922
 H   -2.6281160350   -0.3063198690    0.8891783755
 H   -3.8905839792    1.8889400299    0.8565051755
 H   -4.6377891442    1.4547818905   -0.7634912278