16

 C    0.0268964372    1.4922373449    0.0218619263
 C    0.0130203447   -0.0194774662   -0.0091905643
 O    1.0305374800   -0.6968842591   -0.0383653619
 C   -1.2917051012   -0.6760385632   -0.0065081837
 N   -2.4974440730   -0.1370703581    0.0303831862
 C   -3.3738778622   -1.1806695833    0.0284660864
 C   -2.6880348212   -2.3887446617   -0.0165268832
 N   -3.1228450726   -3.7051029927   -0.1142888158
 N   -1.3703828693   -2.0515580969   -0.0409630492
 H    1.0596487484    1.8420895379    0.0241641501
 H   -0.5062568971    1.8943928166   -0.8450251358
 H   -0.5000319144    1.8593791396    0.9077745954
 H   -4.4434768163   -1.0349687756    0.0593658774
 H   -4.1193521882   -3.7899174216    0.0331592525
 H   -2.6311800193   -4.3512729148    0.4912500231
 H   -0.5621203954   -2.6502632257   -0.1076963735