18

 C   -0.0283742875    1.5100366879    0.1568521805
 C    0.0378502008   -0.0127041105    0.0060965639
 C    0.6955583345   -0.4650028974   -1.3091744370
 C    2.1686871783   -0.0661293361   -1.3503273646
 O    2.7649925436    0.2238929668   -2.3550771866
 C    0.5881806423   -1.9738762089   -1.4939844869
 C    1.4324602157   -2.7319682516   -2.4226079954
 O    1.6822581633   -2.7634258743   -1.0109320035
 H    0.9690499129    1.9628921362    0.1381374749
 H   -0.6082082867    1.9611301413   -0.6556576170
 H   -0.5004077487    1.7916004362    1.1025255025
 H    0.5904125679   -0.4516286021    0.8471216030
 H   -0.9738657146   -0.4318407088    0.0560329997
 H    0.2029349981    0.0177043056   -2.1629784194
 H    2.6774143966   -0.0759720016   -0.3612517536
 H   -0.3937437838   -2.3851697480   -1.2517102472
 H    1.0565331103   -3.6620747509   -2.8453010006
 H    2.1794673473   -2.2091508337   -3.0157606428