21

 O    0.2351392109    1.2886569385   -0.5424245823
 C    0.0708259210   -0.0451711275   -0.1097224668
 C    0.2981346134   -0.4180439425    1.3914209496
 C   -1.0657320779   -1.1746982709    1.3877578876
 C   -2.3257152337   -0.4720532911    1.9886178565
 C   -2.1604281872    0.8731604472    2.7365745937
 C   -2.1904149899    1.6286435739    1.3700953472
 C   -2.5134012845    0.2894289481    0.6326861249
 C   -1.3790063111   -0.5614763325   -0.0235968658
 H    1.1781329707    1.4763963411   -0.5878964354
 H    0.6522572344   -0.7247455844   -0.7506588626
 H    1.1774879113   -1.0369929419    1.5874818959
 H    0.3384512783    0.4500981092    2.0526510388
 H   -0.9956538583   -2.2513076595    1.5465886078
 H   -3.0732427884   -1.1689581142    2.3735163264
 H   -3.0288318039    1.1006800666    3.3609879906
 H   -1.2672637730    0.9940592532    3.3567670664
 H   -2.9901175100    2.3691919481    1.2913415706
 H   -1.2577076614    2.1013946034    1.0663220956
 H   -3.4588009329    0.2769452778    0.0881506595
 H   -1.7246524178   -1.1676844424   -0.8634156282