17

 C    0.0791001025    1.5254468728   -0.0820824978
 C   -0.0549585812    0.0054904270   -0.0841155806
 C   -1.4606939336   -0.5020935199    0.0335807211
 N   -2.4594422503    0.3165748067    0.1295939908
 C   -3.7264517799   -0.2144332611    0.2350369810
 N   -4.0360321164   -1.4712772468    0.2490129984
 N   -2.9908410679   -2.3174894252    0.1486037280
 C   -1.6503631024   -1.9702484500    0.0348348257
 N   -0.6567048349   -2.7748140908   -0.0605960423
 H    1.1315575785    1.8088534847   -0.1708525688
 H   -0.4709725019    1.9736712553   -0.9135677347
 H   -0.3189458160    1.9579520729    0.8395023442
 H    0.3772653939   -0.4383158457   -0.9908352632
 H    0.5264464291   -0.4535416352    0.7266100990
 H   -4.5476959380    0.4874584264    0.3143261928
 H   -3.2467344715   -3.2944308939    0.1607672388
 H   -0.9516733101   -3.7530717272   -0.0450014623