19

 C   -0.0339108539    1.5600017702   -0.1024737560
 C   -0.0378819624    0.0334502099   -0.0093313019
 C    0.7325725299   -0.5398782124    1.2040137912
 C    0.7225465691   -2.0791466138    1.2085389611
 O    2.1094500774   -0.0379318044    1.2325382103
 C    2.9572197321   -0.3484027723    0.2361102846
 O    4.0884787333    0.0395975751    0.2218330342
 C    0.1449367795   -0.0524441058    2.4549233789
 C   -0.3768579476    0.3133906161    3.4725042113
 H    0.9817698698    1.9532007885   -0.1964136098
 H   -0.6056748738    1.8861858033   -0.9757308630
 H   -0.4849013110    2.0071658515    0.7873971563
 H   -1.0660456094   -0.3378205203    0.0640196597
 H    0.3814865437   -0.4049372045   -0.9222448293
 H    1.1018264358   -2.4829197371    0.2662626103
 H    1.3353779412   -2.4544747723    2.0309664655
 H   -0.3002093107   -2.4382074820    1.3458437524
 H    2.5196739829   -0.9824300075   -0.5540456003
 H   -0.8254088160    0.6456098177    4.3765246244