21

 C   -0.1461742045    1.3623279568   -0.0352656478
 O   -0.0708864991   -0.0439685994   -0.0645037285
 C    0.7729989527   -0.5412801679   -1.0899519872
 C    0.6457592474   -2.0604974340   -1.0480100201
 O   -0.7162129894   -2.4406574536   -1.1571399467
 C    1.4055846304   -2.7266731177   -2.1912236227
 O    2.7681020979   -2.3514426922   -2.0782131805
 C    1.2760438016   -4.2461920310   -2.1545976478
 O    2.1310322317   -4.7320833194   -3.1902824217
 H    0.8383285248    1.8161223852    0.1542989250
 H   -0.5356945290    1.7686739472   -0.9815189410
 H   -0.8246574554    1.6379550899    0.7757970326
 H    0.4412731457   -0.1633005469   -2.0712769236
 H    1.8157659877   -0.2351680471   -0.9334711241
 H    1.0727518804   -2.4113598250   -0.0937164671
 H   -1.2017199135   -1.8196949883   -0.5999580254
 H    0.9822953370   -2.3729890939   -3.1463893604
 H    3.2513090320   -2.9776614027   -2.6321874283
 H    1.6025350182   -4.6149451789   -1.1708799904
 H    0.2323958666   -4.5407683616   -2.3143939710
 H    2.2317072369   -5.6817140397   -3.0848754131