14

 O   -0.0070319412    1.3929655755   -0.0051220525
 C   -0.0511530139    0.0139056509    0.0314547994
 C   -1.3298102033   -0.7895778705    0.0814565924
 C   -2.4137953184   -0.1042423119   -0.7518986346
 N   -1.4518608872    0.0913660256   -1.8925993315
 C   -0.4565725442   -0.7642240280   -1.1972039702
 C    0.3022001021   -1.7705007071   -1.8551440747
 N    0.9134177587   -2.5919168136   -2.3967853377
 H   -0.4117402626    1.6501022034   -0.8499183083
 H    0.7670312996   -0.4151018847    0.6015775057
 H   -1.4844756384   -1.5962540485    0.7860531923
 H   -3.2315921254   -0.7836310935   -1.0048713710
 H   -2.8200697987    0.8316872031   -0.3568461810
 H   -1.7827262170   -0.3257804506   -2.7549463481