25

 C    0.1107443256    1.6112558394    0.2754267592
 C    0.0507204717    0.0832225965    0.1711808735
 C   -1.3640132587   -0.4713729558   -0.0837171694
 C   -1.9028092225   -0.1151154227   -1.4771345257
 C   -1.4491030783   -1.9869089061    0.1819410894
 C   -0.5632476553   -2.8414288280   -0.7173471384
 C   -1.4237304161   -2.3866122306    1.6840016776
 C   -2.8745960206   -2.8433013314    1.4516588920
 O   -2.8406086230   -2.4287784990    0.0735546618
 H    1.1289472755    1.9494415771    0.4920651444
 H   -0.2051489769    2.0950031415   -0.6538410315
 H   -0.5392183851    1.9779576869    1.0778685774
 H    0.7232753722   -0.2502295617   -0.6293332351
 H    0.4461275538   -0.3484624070    1.1000694460
 H   -2.0385760121   -0.0119174907    0.6533504031
 H   -1.2127687435   -0.4244790556   -2.2700020948
 H   -2.8639523934   -0.6071146714   -1.6460912597
 H   -2.0542163191    0.9633355337   -1.5776978129
 H    0.4952839322   -2.6012806784   -0.5750025610
 H   -0.7072540695   -3.9007295881   -0.4862771530
 H   -0.8127713810   -2.6924677646   -1.7716569558
 H   -0.7159787933   -3.1755463711    1.9448142827
 H   -1.3034718078   -1.5541029612    2.3798179745
 H   -3.0539444596   -3.9213272898    1.5508362149
 H   -3.6431953052   -2.3083057921    2.0229830106