22

 C   -0.1953849510    1.7112611991    0.2728255516
 C   -0.1529488282    0.1820385613    0.1966864172
 C   -1.5270735460   -0.4858670832    0.0009316178
 C   -2.1862186085   -0.1083755696   -1.3330801549
 C   -1.4159970943   -2.0302803099    0.0912464834
 O   -0.5706076203   -2.5392256810   -0.9075391267
 C   -0.8868366054   -2.5083859485    1.4532076275
 N   -1.6638045306   -2.2572033518    2.5347528837
 O    0.1885210232   -3.0830292364    1.5250061530
 H    0.8005492138    2.1153994008    0.4795059344
 H   -0.5417401780    2.1613388250   -0.6623166262
 H   -0.8625816749    2.0532994228    1.0728573257
 H    0.5034428642   -0.1355566064   -0.6207459051
 H    0.3039215011   -0.2018610603    1.1171981673
 H   -2.1888578601   -0.1568942671    0.8168707719
 H   -3.1715889812   -0.5770767551   -1.4313051285
 H   -2.3245426409    0.9721751596   -1.4232478599
 H   -1.5690170425   -0.4500860157   -2.1689308182
 H   -2.4275340378   -2.4510974722   -0.0403134670
 H    0.1585114780   -2.9594238508   -0.4186613618
 H   -2.5758009973   -1.8440643391    2.4513375495
 H   -1.3599141533   -2.5866964515    3.4363107555