14

 C   -0.0635683432    1.5131599674    0.1008849763
 C    0.0364002354   -0.0018312595   -0.0558502313
 C    0.7617236138   -0.4267846735   -1.3211492319
 O    1.2163061890    0.3568353285   -2.1276215355
 C    0.8829488275   -1.8611993891   -1.5152094876
 C    0.9859350064   -3.0587518119   -1.6800657387
 C    1.0997674478   -4.3993946952   -1.8621004964
 C    1.2002714846   -5.5921248205   -2.0227494894
 H    0.9289479553    1.9693499581    0.1336976645
 H   -0.5994082202    1.9589229508   -0.7407969073
 H   -0.5930013077    1.7664554784    1.0232429427
 H    0.5572032997   -0.4637194539    0.7940735087
 H   -0.9554137918   -0.4741403760   -0.0695936706
 H    1.2895014733   -6.6409862836   -2.1655742933