16

 C    0.0636485880    1.3128667882    0.0603432279
 O   -0.0269390805   -0.1013176106   -0.0636263351
 C    0.6996657910   -0.6178220484   -1.1327438036
 O    2.0974299311   -0.4749026057   -0.9770498969
 C    2.7019914977   -1.7369257935   -0.9980481338
 O    3.8888862512   -1.8534657783   -0.8963784616
 C    1.6486976365   -2.7401792957   -1.1531932452
 C    0.4593337802   -2.1131935082   -1.1999342049
 N   -0.8179118860   -2.5582399948   -1.3269744275
 H    1.0912252438    1.6235593751    0.2746292569
 H   -0.2783780988    1.8120326468   -0.8579318992
 H   -0.5863410734    1.5982281453    0.8892189522
 H    0.4132684174   -0.1074750607   -2.0679555410
 H    1.8587006659   -3.7982648933   -1.1727492334
 H   -0.9932205569   -3.5376855809   -1.1648605942
 H   -1.5295348274   -1.9398015652   -0.9656534508