16

 O   -0.0985268025    1.3972518723   -0.0098761347
 C   -0.0434359590    0.0195631258    0.0318894495
 C    0.3631391451   -0.8407636612    1.2794408113
 C   -0.3778718662   -1.9130335501    0.4519139957
 C   -1.3567716757   -0.8067901868   -0.0033139126
 O    0.4890892088   -2.0932449558   -0.6985840769
 C    0.7783429219   -0.7361249093   -1.0607919057
 C    0.3615715527   -0.4401026265   -2.4359324753
 N    0.0453947448   -0.1894011081   -3.5184623728
 H    0.7922606515    1.7589218007    0.0610722228
 H    1.4225918548   -1.0094182026    1.4871872447
 H   -0.1758134095   -0.5268229468    2.1740425777
 H   -0.6796414644   -2.8854597897    0.8296721772
 H   -2.0487643869   -0.4944720521    0.7791945733
 H   -1.8655876339   -0.9349118069   -0.9599212656
 H    1.8554960186   -0.5403953629   -0.9750992584