16

 N    0.9284880188   -0.0081567711    0.8841072851
 C    0.3293280908   -0.6423362251   -0.1559095564
 O    0.9100173115   -1.0805802925   -1.1314999118
 C   -1.1756748541   -0.8067910131   -0.0001626843
 C   -1.9560901969   -0.8509955862   -1.2967592181
 C   -1.9615773232    0.4794636065   -2.0291243951
 O   -2.9381516734    0.9580156035   -2.5422733115
 C   -1.6751105493   -1.5026844443    1.2015394864
 O   -1.7637789727   -0.0808795356    1.0918604914
 H    1.9122920772    0.1937975381    0.8166902699
 H    0.3588877036    0.4812800843    1.5552687856
 H   -1.4562188563   -1.5784454798   -1.9488894457
 H   -2.9888868245   -1.1642814441   -1.1319915041
 H   -0.9734626773    0.9878706081   -2.0814727134
 H   -2.6230898492   -2.0342822693    1.1454163662
 H   -0.9669926049   -1.8709584695    1.9410576559