17

 C   -0.3000139364    1.5073872146    0.2740639223
 N   -0.1154802010    0.0764787069    0.1592613423
 C   -1.2530730812   -0.8029354229    0.4722851593
 C   -0.2790295499   -1.8065187244    1.1678643520
 C    0.7357600917   -0.5968923680    1.1469007898
 C   -0.6735771177   -2.2638438627    2.5722541752
 O   -1.3484607676   -1.5920630684    3.3044936736
 C    0.1367936104   -2.9320471937    0.3482426330
 N    0.4612142712   -3.8551738221   -0.2674756951
 H    0.6493157287    2.0176316825    0.0823762143
 H   -1.0186984662    1.8444746835   -0.4795416820
 H   -0.6683037292    1.8191161386    1.2687723654
 H   -1.9462880765   -0.3939720239    1.2211321705
 H   -1.8051077672   -1.1767027990   -0.3939570221
 H    1.7526108850   -0.8250441093    0.8164573839
 H    0.7603876393   -0.1040048413    2.1306982942
 H   -0.2717184234   -3.2502345402    2.8807679034