17

 C   -0.0107250952    1.3770238045   -0.3679204925
 O    1.3404186785    1.6417195469    0.0555513934
 C    1.4581657352    0.3319317697    0.6434064415
 C    0.0762142758   -0.1049393031    0.0867553497
 C   -0.9508229987   -0.6447758602    1.0206134746
 C   -1.4010683506   -0.1247496390    2.2119159140
 N   -2.3479251563   -1.0136195660    2.6684993850
 C   -2.4331674979   -2.0188361026    1.7537186142
 N   -1.6079887036   -1.8294454054    0.7510502684
 H   -0.7437766563    1.9755347581    0.1899115416
 H   -0.1495307573    1.5511910795   -1.4413008749
 H    2.3310994334   -0.2137369331    0.2666056001
 H    1.5076589874    0.3736713455    1.7400213792
 H    0.1642884388   -0.7942702290   -0.7535107683
 H   -1.1467356494    0.7656653624    2.7625828012
 H   -2.8764952458   -0.9317237283    3.5207602241
 H   -3.1086573881   -2.8526787700    1.8731591087