17

 C   -0.0515166870    1.4703857264    0.1391710785
 N    1.2338313417    0.7866604587   -0.1112208894
 C    1.6335274152    0.2088355647    1.2224868553
 C    0.3689507275   -0.6767658948    1.2853435109
 O    0.6836876975   -2.0582898496    1.1016429794
 C    0.3143061333   -2.6610543363   -0.0617619380
 N   -0.2801595750   -2.2071757183   -1.0782328363
 C   -0.6794430049   -0.8037073861   -1.1062259197
 C   -0.0756647523    0.0060715498   -0.0017055752
 H   -0.2272749470    1.9368140229    1.1077516713
 H   -0.3912381947    2.0569219611   -0.7099370095
 H    2.5417456712   -0.3880934782    1.1285022387
 H    1.7585664810    0.9573505256    2.0114435501
 H   -0.2838341439   -0.6092052972    2.1613533910
 H    0.6189327076   -3.7052419117   -0.0233244581
 H   -0.4027620313   -0.3792230873   -2.0782457185
 H   -1.7766663589   -0.7636249798   -1.0511736404