17

 O    0.0575052704    1.1675465170    0.6766267973
 C   -0.0537966534   -0.2102418245    0.3471290811
 C   -1.4304398642   -0.5397548800   -0.2525321749
 C   -1.6635479797   -2.0485462866   -0.3832174851
 C   -2.3886968268   -2.4278191198    0.9115164142
 O   -2.5738449183   -3.5401258776    1.3275951276
 C   -2.8245969488   -1.1273346966    1.5892322037
 N   -2.5496779251   -0.0901136451    0.5964887381
 H    0.0711812743    1.6686902343   -0.1458629475
 H    0.7451383091   -0.5284523849   -0.3405227076
 H    0.0924859326   -0.7511210153    1.2895258949
 H   -1.5038769634   -0.0344077994   -1.2252426533
 H   -2.3319202678   -2.2778776209   -1.2205143757
 H   -0.7564765216   -2.6443735088   -0.5129140021
 H   -3.8858335332   -1.1731623549    1.8573395580
 H   -2.2577218034   -1.0386656235    2.5317188973
 H   -2.3140845808    0.8002769967    1.0209878841