18

 C    0.2120009401    1.5608007758    0.1949828757
 N    1.1623966470    0.6120399493   -0.4115739307
 C   -0.1689905346    0.1371463362   -0.0002489016
 C   -0.3706155364   -0.7939724717    1.1682723734
 C    0.1593954347   -2.2489915597    1.2847239058
 C    1.5277994553   -1.6021386225    1.5914271293
 N    0.5564082579   -0.7077726188    2.4018611379
 C   -0.1003066721   -2.0472401520    2.7920261599
 H    0.4908404149    1.8930006402    1.1900727599
 H   -0.2519355889    2.3146546571   -0.4350123435
 H    1.1845987221    0.7342903938   -1.4202311544
 H   -0.8852142904   -0.0558524009   -0.7994794632
 H   -1.4205251095   -0.6781958280    1.4702002212
 H   -0.0729809248   -3.1170178496    0.6563332722
 H    2.2116386301   -2.1655286943    2.2332327585
 H    2.0492559044   -1.0679376251    0.8026507851
 H   -1.1337457596   -1.9469611090    3.1375355117
 H    0.5030389298   -2.6275938710    3.4947220630