15

 C    0.0703123922    1.4851328401    0.0053664395
 C   -0.0620561483    0.0078282525    0.0351613051
 C   -1.1138384048   -0.8626939580   -0.0466466290
 N   -2.4992924291   -0.9050617866   -0.1867138045
 C   -2.7714552613   -2.1778450075   -0.1772281535
 N   -1.6734704538   -3.0174113794   -0.0407057574
 C   -0.5719591062   -2.1858729257    0.0473359226
 C    0.7749006164   -2.0758909537    0.1815013679
 O    1.0782129765   -0.7329967634    0.1731415744
 H    0.6969125000    1.8209091501   -0.8292610288
 H   -0.9205155947    1.9302840011   -0.1085639316
 H    0.5179473717    1.8724611230    0.9281854477
 H   -3.7658226581   -2.5955349496   -0.2664278844
 H   -1.6981802760   -4.0208983607   -0.0137353914
 H    1.6074767257   -2.7474996622    0.2861022834