20

 C   -0.1091345950    1.5854248084   -0.3265952648
 C   -0.0618508674    0.0768360953   -0.0664421172
 C   -1.4556856743   -0.5368183052    0.0895422680
 O   -2.2421488508   -0.3904237913   -1.1168005298
 C   -2.3588735835   -1.8212698913   -1.2900510301
 C   -1.6096820290   -2.1000040124    0.0298843166
 C   -0.3718501727   -2.9819399606   -0.0108525488
 C   -2.1570238995    0.0576732382    1.2424509639
 N   -2.6994658120    0.4988827058    2.1630278989
 H    0.8981659775    1.9763965229   -0.4935581666
 H   -0.7128890917    1.8003210853   -1.2122649190
 H   -0.5445676737    2.1215214081    0.5218130878
 H    0.4285009480   -0.4289903853   -0.9036861027
 H    0.5223534193   -0.1427783141    0.8351123578
 H   -3.4049653980   -2.1416894821   -1.3328554119
 H   -1.8412416586   -2.1588092328   -2.1967674892
 H   -2.2839776601   -2.4474735209    0.8149757481
 H    0.3154015293   -2.6955863396   -0.8119167443
 H    0.1746336134   -2.9496132674    0.9368616006
 H   -0.6658422312   -4.0223346410   -0.1850129772