21

 C    0.0819993792    1.4825162308    0.1232431072
 C   -0.0196952945   -0.0381600249   -0.0969002519
 C   -1.3973885519   -0.5238249923   -0.0870154719
 C   -2.5568936014   -0.8613631723   -0.0787598874
 C   -3.9210665715   -1.3572119353   -0.0597507322
 C   -4.5481704120   -1.5710893584   -1.4791021143
 C   -4.0939978698   -3.0530489223   -1.4362922055
 C   -3.9663446974   -2.9271698201    0.1058620763
 O   -2.9343478293   -3.5700225369    0.7872505576
 H    1.1287424921    1.8002679209    0.1068142314
 H   -0.4560375573    2.0248998691   -0.6588045520
 H   -0.3495893158    1.7645259920    1.0872796165
 H    0.4539427068   -0.3024313288   -1.0512159255
 H    0.5571167249   -0.5580146734    0.6787740149
 H   -4.5246859891   -0.7893394112    0.6542327454
 H   -5.6354932545   -1.4672346299   -1.4428120709
 H   -4.1568963399   -0.9445297427   -2.2809087100
 H   -4.7683792406   -3.8160098010   -1.8308578323
 H   -3.1071498905   -3.1811801858   -1.8906633679
 H   -4.8990434037   -3.2164011555    0.5994437658
 H   -2.1146030339   -3.1148217218    0.5513370065