24

 C    0.0057387070    1.5883957127   -0.0603844230
 C   -0.0155302809    0.0576909661   -0.0787796581
 C   -1.4236591774   -0.5288561985    0.0696395944
 C   -1.4435245844   -2.0596866998    0.0581370430
 C   -2.8516282248   -2.6462688546    0.2047688577
 C   -2.8278301399   -4.1648223013    0.3666269419
 O   -1.9716168754   -4.7358349988    1.0204241779
 N   -3.8466385982   -4.8264836154   -0.2583144403
 C   -4.0144715896   -6.2635680366   -0.1737986463
 H    1.0235847595    1.9760819044   -0.1685137219
 H   -0.5965800614    2.0031112620   -0.8766316931
 H   -0.4007139041    1.9788800512    0.8793744722
 H    0.4294838016   -0.3043304242   -1.0151013816
 H    0.6217989920   -0.3289414047    0.7271522966
 H   -1.8707096505   -0.1658453172    1.0061687091
 H   -2.0628088094   -0.1429884398   -0.7376913427
 H   -0.9940153156   -2.4269995669   -0.8738127843
 H   -0.8257200597   -2.4569353493    0.8698637383
 H   -3.3252257631   -2.2362179140    1.1073928778
 H   -3.4867034442   -2.3514407848   -0.6399111503
 H   -4.5173068458   -4.2904968073   -0.7825604560
 H   -4.9628839505   -6.5303730671    0.3066540553
 H   -3.9823528143   -6.7288884556   -1.1654232654
 H   -3.1900993210   -6.6486171006    0.4274909788