15

 O    0.4101597463    0.1324922152   -0.2848812816
 C    0.4937459569    1.2658201637    0.0689257244
 O    1.0574563890    2.2265925622   -0.7106248727
 C    1.0262241633    3.5443247243   -0.2238515553
 C    1.8732620399    3.9326472963    0.9643652469
 C    2.2866228800    4.3490664351   -0.4170761032
 O    3.4311898361    3.7081027180   -0.9141740759
 C    3.4061120382    3.3376102755   -2.2244080291
 O    4.3478364786    2.8353472171   -2.7512858808
 H    0.1385821974    1.6616135398    1.0375584881
 H    0.0754344691    4.0458850639   -0.3810231013
 H    1.4961286779    4.6786207192    1.6536352109
 H    2.4815289763    3.1510658972    1.4056096511
 H    2.1921961129    5.3898758357   -0.7126630605
 H    2.4416906680    3.5592758667   -2.7137952909