18

 C    0.0036815807    1.5308232887   -0.0075161855
 C   -0.0264900696   -0.0066425740   -0.0034740136
 C   -1.4540482537   -0.5453720469   -0.0274509172
 O    0.6868184138   -0.5386758841   -1.1234360065
 C    2.0502794068   -0.7483335431   -0.7545765812
 C    2.0109617179   -1.2087062028    0.7042622247
 C    0.7466099684   -0.5259926468    1.2247623616
 O    0.4021529976   -0.3990430541    2.3701739159
 H    1.0295619617    1.9120641722   -0.0218603973
 H   -0.5124452104    1.9061877206   -0.8956384599
 H   -0.4901499524    1.9205163096    0.8867882921
 H   -1.9928209824   -0.1544963793   -0.8953033547
 H   -1.4505608120   -1.6369626699   -0.0874863840
 H   -1.9776395891   -0.2444514253    0.8835581816
 H    2.4649152666   -1.4869839113   -1.4438823525
 H    2.6335582370    0.1796566440   -0.8569455831
 H    1.8636607976   -2.2927897936    0.7762400413
 H    2.8834846215   -0.9459907337    1.3053323285