16

 C   -0.0344277615    1.4161404780    0.0067767909
 N    0.0194476074   -0.0241468720    0.0583882644
 C   -1.1845563377   -0.8293399010   -0.1006070875
 C   -0.7066238338   -2.2856190074    0.0423223759
 C    0.8111584982   -2.1967907499   -0.0533134782
 O    1.5998954052   -3.1010965519   -0.1356097663
 C    1.1898609693   -0.7282092627   -0.0229582602
 N    2.3659197503   -0.2340034641   -0.0598889503
 H    0.9652941389    1.8016348871    0.2118143007
 H   -0.3546886832    1.7752831054   -0.9818803150
 H   -0.7376863183    1.8000494493    0.7550926342
 H   -1.9275713875   -0.5538663530    0.6571577464
 H   -1.6464158291   -0.6536430164   -1.0838187226
 H   -0.9662591029   -2.7066995784    1.0192131256
 H   -1.1079786497   -2.9582082212   -0.7184020925
 H    3.0337867041   -1.0065098318   -0.0887793256