18

 C    0.0494219230    1.4660176298   -0.0112731262
 C    0.0080957213   -0.0285452721   -0.0805261458
 N    0.6691564190   -0.8561835295   -1.1481110155
 C    0.0389150052   -1.8908692314   -0.2654970558
 C    0.3715383768   -1.0855007020    1.0140882837
 O   -0.9732903672   -1.1565352412    1.5726818731
 C   -1.2027379066   -1.0209115034    0.1294025298
 C   -2.6278215019   -1.0472130497   -0.3271367800
 O   -3.2551363749   -2.2629717644    0.0377509522
 H    1.0845221797    1.8208203762   -0.0052665258
 H   -0.4608107587    1.9202019166   -0.8675163566
 H   -0.4442552486    1.8082182881    0.9036708701
 H    0.1523849380   -0.7792371317   -2.0283347224
 H    0.1031528330   -2.9642637644   -0.4391158710
 H    1.2269983538   -1.1411591685    1.6851761082
 H   -3.1568082610   -0.1744467563    0.0884648713
 H   -2.6719832681   -0.9742150124   -1.4197525561
 H   -3.0485040828   -2.4082264637    0.9687905467