15

 N   -0.0815516876    1.4368829712    0.1032162916
 C    0.0394982924   -0.0121169278    0.0149585202
 C    0.8603333689   -0.5370855076    1.2446790910
 N    0.3177905498   -0.0829836745    2.5316668938
 C    0.9133980158   -2.0005617085    1.1984119245
 C    0.9041199231   -3.1990961775    1.1365110585
 C    2.2367307778    0.0090759045    1.1084432787
 N    3.2792281352    0.4797142746    0.9469836493
 H    0.7659558718    1.8889369256   -0.2256814491
 H   -0.8456860275    1.7698094789   -0.4723951791
 H   -0.9564002257   -0.4580913448    0.0935830393
 H    0.5052471168   -0.3869922583   -0.9077972264
 H   -0.0156644656    0.8694183251    2.3849130015
 H   -0.4852744709   -0.6602336243    2.7626989879
 H    0.9160076258   -4.2606672767    1.0926185084