19

 C   -0.0410128590    1.5164083213   -0.0920608752
 C   -0.0505071349    0.0258339292    0.1313665913
 O    1.1893470617   -0.6780995536   -0.0548658912
 C    0.6144235657   -0.6333305679    1.2610839677
 C    1.3905384302    0.0613670542    2.3820452656
 C    1.9275634523   -1.0893123654    3.2749343973
 C    0.9694173664   -2.2385195207    3.0217845824
 O   -0.4114804313   -1.8591398152    3.1090837379
 C    0.1881508533   -1.9668114316    1.8083565906
 H    0.8206586463    1.9875355206    0.3854104268
 H   -0.0047417046    1.7404147946   -1.1632296350
 H   -0.9542355002    1.9652262483    0.3134190139
 H   -0.9074723639   -0.4921425978   -0.3058549243
 H    2.1902982393    0.6836461814    1.9782489005
 H    0.7147321565    0.7010441010    2.9556464750
 H    2.9336010113   -1.3938676671    2.9644798311
 H    1.9770723023   -0.8107908031    4.3315418424
 H    1.1979135192   -3.2465859506    3.3577354651
 H   -0.2082304307   -2.7320483178    1.1469729480