19

 C   -0.0999448531    1.5460028325    0.1249785274
 C    0.1343676515    0.0736155988    0.0181828858
 O   -0.7801116939   -0.8019585492    0.6823808396
 C    0.6121910305   -0.9450266113    0.9841223382
 C    1.2514588456   -1.7761382559   -0.1626949314
 O    0.4310231634   -2.8085613552   -0.7258319351
 C   -0.1163589081   -1.8951112146   -1.7121863282
 C    0.7513389987   -0.7231958091   -1.1827209092
 C    1.6651464701    0.0251939604   -2.1244764014
 H    0.7867830382    2.1119083417   -0.1759425136
 H   -0.9310984691    1.8549044227   -0.5195355696
 H   -0.3534184953    1.8124164835    1.1544644389
 H    0.8973230728   -0.8714028674    2.0288393566
 H    2.3018097817   -2.0541540056   -0.0356692244
 H    0.1404927715   -2.2165068060   -2.7293513248
 H   -1.1996334664   -1.7863695530   -1.6116748328
 H    1.1001311502    0.7084397334   -2.7696444196
 H    2.4019317543    0.6231100910   -1.5763319014
 H    2.2140258474   -0.6671604064   -2.7707367649