17

 C    0.2638548822    1.4343296323    0.3276900812
 C   -0.0176044761   -0.0067958227   -0.0211360506
 C    0.6318534257   -0.7201763283   -1.2218556471
 C    1.5393749399    0.0494675115   -2.1113694071
 O    2.5568243739    0.6048472493   -1.7662692628
 N    0.9521930600   -1.0418465001    0.1551856661
 C    2.1652619289   -0.8810424034    0.8584701871
 N    3.2238305571   -1.5725524784    0.3190730012
 O    2.2021435893   -0.3113090968    1.9276013433
 H    1.2455374797    1.7555017494   -0.0231144946
 H   -0.5039927089    2.0793198673   -0.1105370117
 H    0.2442646701    1.5504037100    1.4138029053
 H   -1.0388350144   -0.3308517928    0.1785530096
 H    0.0307275901   -1.4628065577   -1.7453812946
 H    1.1976509175    0.0805798240   -3.1693829280
 H    3.2599910419   -1.6755460754   -0.6822482025
 H    4.1060998833   -1.3391714381    0.7487562050