22

 C   -0.1928092717    1.4724187438   -0.0585130730
 N   -0.0023208422    0.0653588236    0.2596383703
 C    1.2057078499   -0.6593753772   -0.0592349212
 C    2.4857385514    0.1726313607    0.1542586989
 C    2.0778594105    0.3828930237    1.6421107798
 C    2.9731105014   -0.1952448068    2.7726268553
 C    2.5294746361    0.9788051220    3.6851218955
 C    2.0334140521    1.7285553464    2.4199211895
 C    0.7843152073   -0.4168108396    1.3723523219
 H    0.7057356578    2.0987966926    0.0155860503
 H   -0.5731873151    1.5461966158   -1.0825689938
 H   -0.9515697877    1.8861124878    0.6132818453
 H    1.1269277450   -1.5573257236   -0.6633356230
 H    3.3949724227   -0.4283387543    0.0668623371
 H    2.5986874884    1.0650508977   -0.4700757844
 H    2.7551495431   -1.2136786043    3.1081156698
 H    4.0349769991   -0.1363724475    2.5132968342
 H    1.7027451586    0.6972123020    4.3429104966
 H    3.2997651905    1.4635026187    4.2890997950
 H    2.7807695121    2.4346788767    2.0423343248
 H    1.0725623019    2.2440596184    2.4852488092
 H    0.3092826590   -1.0873058864    2.0836335119