20

 C   -0.0184436488    1.5143525045   -0.0152119916
 C    0.0804154265    0.0081610680    0.0315599208
 C    0.4710163854   -0.7096904581   -1.2493056509
 C    0.3609406110   -1.9951807056   -0.9333079575
 C   -0.0889307543   -1.9695231550    0.5177215059
 C   -0.4298043305   -3.2902823073    1.1657926069
 C    0.6765399504   -0.8024882673    1.2366335807
 C   -0.6266300150   -0.5071391842    1.9830746218
 N   -1.1543058667   -0.8080673021    0.5762469983
 H    0.9382840224    1.9418144071   -0.3345447422
 H   -0.7804180583    1.8184805846   -0.7404555370
 H   -0.2761747804    1.9602417012    0.9477846453
 H    0.7386499359   -0.2348366335   -2.1830649946
 H    0.5119244154   -2.8826274496   -1.5321930312
 H    0.4326128278   -3.9639865816    1.1169686210
 H   -0.7174158036   -3.1949728694    2.2149782408
 H   -1.2587551660   -3.7674637623    0.6326749247
 H    1.7136972138   -0.8016769582    1.6011959589
 H   -0.9660256619   -1.2123526187    2.7432849754
 H   -0.8181418330    0.5132225475    2.3187003047