23

 C    0.1009717599    1.5496321333    0.1816693292
 C   -0.0984713367    0.0495966328   -0.0671769441
 C    0.6764725175   -0.4845565316   -1.2640845599
 C    2.2420580004   -0.4318199176   -1.2556186108
 C    2.1926637890   -1.7124189912   -2.1373710871
 C    0.8381663915   -2.0308660702   -1.4415181822
 C    1.9612358110   -1.3359347819   -3.6111605350
 C    0.8269904164   -0.3428104896   -3.7178268845
 C    0.2154479537    0.0644801566   -2.6057156067
 H    1.1551485390    1.7802560812    0.3685973959
 H   -0.2187926162    2.1489833201   -0.6770088116
 H   -0.4731107718    1.8841259184    1.0511807600
 H    0.2084721850   -0.5077923466    0.8268740784
 H   -1.1676425980   -0.1625539061   -0.2071963390
 H    2.7241724795    0.4608177787   -1.6629751679
 H    2.6441269936   -0.6490123507   -0.2607762472
 H    3.0040538779   -2.4367149819   -2.0329529064
 H    0.9931219640   -2.5294751643   -0.4794295215
 H    0.0693609639   -2.5582390681   -2.0128525019
 H    2.8799477420   -0.9170305900   -4.0465226380
 H    1.7346742772   -2.2352893853   -4.2017827569
 H    0.5300410842    0.0117227341   -4.7008380559
 H   -0.6127725430    0.7674540601   -2.6319867967