16

 C    0.0104799183    1.5890696949    0.0195460611
 C    0.0302163657    0.0813719282   -0.0551644655
 C   -1.1669789653   -0.5925796965    0.5684265934
 O   -2.1474926720   -0.0027427777    0.9367348687
 C    0.6634250013   -0.7283608307   -1.1268065174
 C    1.9119789255   -0.0746612920   -1.7133203708
 C    2.3985544023   -0.0173290171   -0.2558701462
 O    3.3708793150    0.3607575161    0.3123621447
 N    1.2522235019   -0.7511174815    0.2806005897
 H    0.8266499738    2.0559782676   -0.5329503094
 H   -0.9395900319    1.9528367860   -0.3792709713
 H    0.0734443563    1.9113560526    1.0625324338
 H   -1.0636000470   -1.6947130827    0.6593469126
 H    0.1975843473   -1.6228983303   -1.5249695288
 H    2.5201557012   -0.7692897648   -2.2987236554
 H    1.8096361878    0.8639976980   -2.2610149391