15

 C   -0.0589770062   -1.2088784051   -0.0458951673
 C   -0.0189938525   -0.0058513824   -0.0323283411
 C    0.0207269084    1.4106271177    0.0091663569
 C    0.3448621092    2.3008475755   -1.1829469843
 C    1.1810294845    2.4277752943    0.0394612578
 N    0.4790093643    3.2973722459    1.0021269991
 C   -0.6086158227    2.2706434769    1.1332319950
 C   -1.9655402637    2.7806261678    0.9262564054
 N   -3.0394447839    3.1702915120    0.7532320041
 H   -0.0984253051   -2.2698246767   -0.0662997427
 H    0.7890093861    1.7579678062   -2.0095400478
 H   -0.3311936078    3.1064228117   -1.4547729645
 H    2.2491170124    2.2570204508    0.0811515121
 H    0.9832838783    3.3781667091    1.8785083005
 H   -0.5684606913    1.7335187563    2.0847958566