22

 C   -1.5118957795    0.4845719423   -0.4747190684
 C   -0.1176851470    0.0197524934   -0.0124080874
 C    0.6686903148   -0.6064138058   -1.1396279774
 C    0.7151466820   -2.1073180015   -1.2735785752
 C    1.6620943110   -2.7587542506   -0.2630517429
 O    1.5379375848   -4.1577019596   -0.3871895963
 C    2.3850717645   -4.8618090201    0.4880811759
 N    1.3032899205    0.0525112152   -2.0338222599
 O    1.2062704391    1.4426742170   -1.8342490982
 H   -1.4190961272    1.2406299570   -1.2574595148
 H   -2.0982698243   -0.3502743792   -0.8717793106
 H   -2.0682992485    0.9181329944    0.3616467416
 H    0.4369429187    0.8786898506    0.3757157789
 H   -0.2234295876   -0.7052567991    0.8010908337
 H   -0.2875624390   -2.5243733744   -1.1175329043
 H    1.0370947337   -2.3733724777   -2.2829503588
 H    2.6981842630   -2.4385611132   -0.4626448814
 H    1.4186328755   -2.4430421403    0.7663359315
 H    3.4469083224   -4.6345785556    0.3022075390
 H    2.1666420185   -4.6311975934    1.5433162964
 H    2.2178494830   -5.9283473420    0.3187669940
 H    1.7308755215    1.7854208525   -2.5649939954