20

 O   -0.1132359799   -0.0500020380    0.0466757597
 C   -0.0725317188    1.1620338875    0.0541420372
 N   -1.1542526485    2.0003746442    0.0359689391
 C   -0.8494779916    3.4192759993    0.0126367391
 C    0.6366322442    3.4549952781    0.4321605136
 C    0.8802554896    3.5881574378    1.9481003575
 C    2.2260674082    2.8795317837    2.1668996268
 C    2.1700518121    1.6485951595    1.2321889046
 C    1.1832088561    2.0433224603    0.1018335275
 H   -2.0845233645    1.6265176326   -0.0642137516
 H   -0.9988313718    3.8492435803   -0.9876617180
 H   -1.4865707300    3.9752375962    0.7104533063
 H    1.1725605805    4.2431187852   -0.1031387556
 H    0.8733403988    4.6272678865    2.2901409038
 H    0.0873848282    3.0575910927    2.4913566250
 H    3.0439109090    3.5445452882    1.8637517666
 H    2.4023708416    2.6105689523    3.2120866488
 H    3.1558191886    1.3855422890    0.8418043141
 H    1.7922879386    0.7636530359    1.7528193238
 H    1.6511306696    1.9900356389   -0.8860737781