16

 C    0.0521000990    1.5001969013    0.0467902853
 C    0.0037812712    0.0118134882   -0.0408953796
 C   -0.0079006011   -0.7371299776   -1.1551740578
 C   -0.0635624159   -2.1723923976   -0.8492840481
 O   -0.1193073137   -3.1060332251   -1.6058878563
 C    0.0001412627   -2.2903753840    0.7158126601
 C   -0.0523774620   -0.8273653965    1.2177931993
 C   -1.0472549935   -3.1457890260    1.2525548836
 N   -1.8910973187   -3.8045109042    1.6882046631
 H    0.9353494040    1.8244848906    0.6109374702
 H    0.0783961822    1.9675275494   -0.9396351142
 H   -0.8200160882    1.8822192754    0.5916029337
 H    0.0098125720   -0.3725917246   -2.1743310825
 H    0.9678069715   -2.7487350785    0.9487911585
 H    0.7781291709   -0.5916427924    1.8923158143
 H   -0.9722116105   -0.6217122685    1.7765394804