17

 O   -0.3590008810    1.1995297069   -0.3293797555
 C   -0.1505214748   -0.1554474242   -0.1002680410
 C   -0.4000893251   -0.6428381828    1.3131791319
 O   -0.8377562779    0.3531343433    2.1936244550
 C   -1.3527738842   -1.0416160138    0.2114382928
 O   -2.6105112908   -0.4536636514    0.3277971115
 C   -3.1780416875   -0.0388832238   -0.9067333492
 C   -4.5106224665    0.6213431448   -0.6098337410
 O   -5.2851205979    0.9679658872   -1.4603245217
 H   -0.4434479697    1.6018166744    0.5493848183
 H    0.6618889382   -0.5816164789   -0.6825891477
 H    0.2445585349   -1.3833015661    1.7763800716
 H   -1.8021660504    0.3794909273    2.1218487146
 H   -1.3548275809   -2.0716596747   -0.1447686156
 H   -2.5211723805    0.6791694314   -1.4141892857
 H   -3.3431829558   -0.8932984687   -1.5790123371
 H   -4.7089378402    0.7665583191    0.4761014786