19

 C    0.0573586469    1.5746069985    0.0919538988
 O    1.3905509200    1.9985050462   -0.2090121931
 C    2.0137728400    0.9972060211   -0.9657995444
 C    2.5846300852   -0.2091115342   -0.2577645738
 C    2.7021820310   -0.3587122914    1.2484740817
 O    1.5353612052   -0.0177643889    1.9783817889
 C    0.3508795230   -0.5681216422    1.4356883264
 C    0.0612966177    0.0279254490    0.0541740592
 C    1.2140629769   -0.2715448211   -0.9157545922
 H   -0.2066215561    1.9777803260    1.0737808743
 H   -0.6391858467    1.9810353399   -0.6562930569
 H    2.4879825923    1.3581602004   -1.8737460406
 H    3.3871193204   -0.7095005404   -0.7950597897
 H    2.9764338702   -1.4064000314    1.4642551517
 H    3.4963266544    0.2818819299    1.6452148642
 H    0.4199287272   -1.6675906758    1.3688021374
 H   -0.4453365824   -0.3209942350    2.1455722497
 H   -0.8859478025   -0.3661962343   -0.3252808458
 H    1.0387246074   -0.8955268464   -1.7835441155