14

 C    0.0228432349    1.4999310695   -0.0435717804
 C   -0.0525652010    0.0266830911    0.1013991376
 C   -1.0902775140   -0.8481218635    0.2289903933
 O   -2.4052582217   -0.5428071370    0.2972506054
 C   -3.3141626145   -1.4788141430   -0.1245190341
 N   -4.5355607694   -1.2100463294   -0.0094389851
 N   -0.5757172943   -2.1092682756    0.3365340126
 N    0.6873047767   -2.0645545832    0.2761503703
 O    1.0670454951   -0.7066533439    0.1347419133
 H    0.5583503192    1.7767720723   -0.9570285365
 H   -0.9872369402    1.9116647131   -0.0865226444
 H    0.5498297516    1.9518533369    0.8029419324
 H   -2.8461684373   -2.3815539203   -0.5232637371
 H   -5.0974372953   -1.9804911469   -0.3659883675