21

 O    0.1468422780    1.3623573283    0.2962676802
 C    0.0340588240    0.0155717725   -0.1464343241
 C   -1.3819296121   -0.5059106348   -0.0676700358
 C   -1.8617026239   -1.0828489958    1.2429623271
 C   -1.6058832963   -1.9990089112    0.0666848639
 C   -2.7857838806   -2.6552888531   -0.6479487004
 C   -3.4928501431   -1.6770927070   -1.5940895238
 O   -3.6381853587   -0.3929714307   -1.0096594915
 C   -2.3897119040    0.2668065857   -0.9072110952
 H   -0.1898449959    1.3941017679    1.1983657766
 H    0.3823517669    0.0243657827   -1.1862625055
 H    0.7063237523   -0.6502901794    0.4184768338
 H   -1.1710128702   -1.1190369378    2.0804400895
 H   -2.8980021169   -0.9088443931    1.5142779124
 H   -0.7096804566   -2.6090098732    0.1365050300
 H   -2.4416684497   -3.5195511837   -1.2266711002
 H   -3.5005922487   -3.0366047555    0.0902059993
 H   -2.9269031658   -1.5879783945   -2.5365345254
 H   -4.5006458218   -2.0243820543   -1.8389060439
 H   -2.5907303910    1.2480810115   -0.4688980092
 H   -1.9684378357    0.4310405853   -1.9152122777