20

 C   -0.0740313598    2.0230286198    2.0000563494
 C   -0.1439215728    0.5514597217    1.6069486071
 C    0.0333318847    0.1161972302    0.1115016824
 C    1.0971936694   -0.9056074970    0.5410961471
 C    2.2535551650   -0.2427618684    1.2101764368
 N    2.8062380825    1.0001292290    0.7448159185
 C    3.8888483023    1.5751026837    1.3375628623
 O    4.4181011112    1.1752500387    2.3518377053
 C    0.9854947476   -0.4128059860    2.0033919811
 H    0.8380816619    2.4996110483    1.6340701486
 H   -0.9323858938    2.5724481268    1.5968527906
 H   -0.0919762094    2.1341803382    3.0896515424
 H   -1.0902429883    0.1350215370    1.9674041318
 H   -0.8627996077   -0.3486681636   -0.3036658397
 H    0.3580303999    0.8940351066   -0.5903747880
 H    1.1678015619   -1.9169981383    0.1582601831
 H    3.0336101860   -0.9230586760    1.5403399426
 H    2.5205272933    1.3487210085   -0.1566472854
 H    4.2384700534    2.4670943469    0.7788587936
 H    1.0027163427   -0.9943250162    2.9183678305