16

 C   -0.0434305750    1.5216248458    0.0116518827
 C   -0.0145846506    0.0245919386    0.0043194526
 C   -0.0124359585   -0.8120393019   -1.0958342846
 N    0.0018918168   -2.1045769788   -0.6805370465
 C    0.0163634661   -2.1372157198    0.7098369335
 C    0.0501778660   -3.3242670347    1.4557784067
 N    0.0854420755   -4.2926497966    2.0978539420
 C    0.0009515799   -0.8154043070    1.1539248095
 N   -0.0681943740   -0.3849029375    2.4725270846
 H    0.8551607244    1.9501338369    0.4750867679
 H   -0.1016242687    1.9187018332   -1.0053181579
 H   -0.9061519288    1.9055197914    0.5690670332
 H   -0.0242790737   -0.5651527954   -2.1461240488
 H    0.0024929030   -2.9183055020   -1.2689077837
 H    0.1882145740   -1.0870921143    3.1534541126
 H    0.4133007537    0.4855189019    2.6498004464