19

 C    0.3282093597    1.4785832845    0.2404785083
 C   -0.1638236255    0.0650078625   -0.0995501259
 C    0.4591558051   -0.4863476722   -1.3580961436
 C    0.2076511572    0.1570367899   -2.7224703272
 C    0.7455072787   -0.8628499833   -3.7511674259
 C    0.7257727350   -2.2139312191   -3.0248402510
 O    0.6148971661   -3.3034764421   -3.5255561113
 C    0.7813556915   -1.9184047710   -1.5489531406
 O    1.8093044349   -0.9505769087   -1.2470653713
 H    1.4166344585    1.4916484643    0.3505567585
 H    0.0575899006    2.1993092368   -0.5375776741
 H   -0.1124478542    1.8243076791    1.1796978964
 H    0.0692391764   -0.6144220866    0.7269152985
 H   -1.2546647609    0.0646713591   -0.2170936782
 H   -0.8690017145    0.3123294972   -2.8546819502
 H    0.6926648993    1.1339423621   -2.8000818709
 H    0.1604232968   -0.9203029765   -4.6704185301
 H    1.7801879834   -0.6384745458   -4.0293886500
 H    0.6082589818   -2.6954366202   -0.8110120712