15

 C   -0.2700277525    1.5319419832   -0.0552076084
 C    0.0734089203    0.0546048069    0.0444701852
 C    0.9190631097   -0.5046022690   -1.1338937215
 N    2.1936659959   -0.9230300385   -0.5385291612
 C    2.0874666798   -0.6971008579    0.7108295519
 O    0.9325787331   -0.1649462598    1.1978989880
 C    3.0967452909   -0.9577484663    1.6826851349
 C    3.9400351472   -1.1741991022    2.5102194373
 H    0.6341676558    2.1269042396   -0.2180007681
 H   -0.9497849361    1.7008796091   -0.8970377405
 H   -0.7580386561    1.8832087976    0.8578264717
 H   -0.8320107253   -0.5363437865    0.2152125284
 H    0.4441029494   -1.3600105473   -1.6263097812
 H    1.1008280217    0.2532972439   -1.9052455302
 H    4.6909122661   -1.3682970927    3.2359898737