17

 N    0.3571927624    1.1510687843    0.2246674264
 H    0.5071540751    0.1449646624    0.1208218211
 H    1.2238082654    1.6299391129    0.6069074145
 H    0.1561365722    1.5615012688   -0.6886299844
 C   -0.8062954202    1.5252937332    1.1856694063
 C   -0.8119764130    2.9879979837    1.3097700169
 C    0.1890519118    3.8152448895    1.8271870631
 C    1.4918678074    3.4176088690    2.4070301189
 O    2.3183370575    2.6910838117    1.4159979666
 N   -0.1732774557    5.0830831072    1.5664916955
 N   -1.3520147621    5.0336989228    0.9276211188
 N   -1.7479528059    3.7765283273    0.7387386965
 H   -1.7264414846    1.1427019911    0.7414632075
 H   -0.5760306110    0.9758243287    2.1044485819
 H    2.0484856462    4.2902152531    2.7584441414
 H    1.4055119018    2.7020608496    3.2313990778
 H    2.5609699327    3.3504357647    0.7534166013