18

 C   -0.0145225787    1.5141137597    0.0194200364
 C   -0.0130704033    0.0039954273    0.0568264137
 C   -1.1993666619   -0.6896172870   -0.5916797678
 C   -1.0806214996   -2.2259802925   -0.5834130602
 C   -0.6455339233   -2.7580347972    0.7573444238
 C    0.1619191518   -2.0594109152    1.5571538004
 C    0.6628212698   -0.7228708773    1.1515669643
 O    1.2587427057   -0.6120498408   -0.1671935515
 H    0.8651742318    1.9138982495    0.5299678232
 H    0.0004474707    1.8726568437   -1.0160029645
 H   -0.9124248595    1.9172970144    0.4999487874
 H   -2.1014405974   -0.3848711105   -0.0447400285
 H   -1.3213848294   -0.3316496768   -1.6207648411
 H   -2.0375512539   -2.6689947467   -0.8790223873
 H   -0.3510621538   -2.5324190657   -1.3431418966
 H   -0.9910256870   -3.7445100024    1.0536956409
 H    0.4772474416   -2.4466333841    2.5211436214
 H    1.1898541564   -0.1442112782    1.9085262563