16

 O    0.0647674606    1.4275329178   -0.0384694063
 C    0.0397357614    0.0116823551   -0.0024519099
 C    0.7046313353   -0.5741894360    1.2805245240
 C   -0.4967938979   -0.8968202519    2.1537745820
 O   -1.3042319071    0.3362543204    2.2855219146
 C   -2.1848357444   -0.1655926096    1.2703317971
 C   -1.5549780967   -1.5159189469    1.2123508943
 C   -1.3861282111   -0.5590921889    0.0440000999
 H   -0.3656956037    1.7145660779    0.7773939353
 H    0.5630546437   -0.3117081125   -0.9059267823
 H    1.2619089287   -1.4928825781    1.0626120379
 H    1.3882371237    0.1516038866    1.7286974161
 H   -0.3145117766   -1.3511180431    3.1283330860
 H   -3.2128068572    0.1756675613    1.2754173967
 H   -1.9561147782   -2.5191004655    1.1985414428
 H   -1.9414212407   -0.7293430066   -0.8710556882