19

 O    0.0183101056    1.3802705058   -0.1179304296
 C    0.0451042393   -0.0415609652   -0.0671781445
 C   -1.4062842663   -0.5173325364    0.0065147686
 C   -2.2230477387   -0.1931890418   -1.2277159361
 C   -2.8791313492   -1.2485792492   -1.7110486349
 C   -2.6131881197   -2.5003286194   -0.9204914330
 C   -1.4810289516   -3.4048881268   -1.4651310363
 O   -0.5162321042   -2.7865787110   -0.5873571514
 C   -1.5482323798   -2.0484643132    0.1145877521
 H    0.9155320200    1.6895004335   -0.2715441672
 H    0.5257714687   -0.4713362105   -0.9546564475
 H    0.5974785689   -0.3980252549    0.8165509094
 H   -1.8510618993   -0.0359502086    0.8896093811
 H   -2.2441441725    0.8077465389   -1.6420581784
 H   -3.5222612408   -1.2386210135   -2.5847383178
 H   -3.5107546645   -3.0159409339   -0.5707085459
 H   -1.6016812274   -4.4733084690   -1.2414090048
 H   -1.2180558417   -3.2824886644   -2.5220911727
 H   -1.6470921768   -2.4064840804    1.1452158489