18

 C    0.0359533674    1.5404410890   -0.1599256360
 C    0.0193639230    0.0421217449    0.0487669967
 O    0.2985956410   -0.5104026049   -1.2539224934
 C    0.3329171985   -1.8553738699   -1.3038079884
 N    0.1427632449   -2.6262645039   -0.3172381003
 C   -0.1231500117   -1.9109591215    0.9065363571
 C    0.7532196559   -0.6500961922    1.2411038045
 C   -0.4118910499   -0.1932613565    2.1541842090
 C   -1.1029460498   -0.6831809879    0.8571448702
 H    1.0121464146    1.8502982127   -0.5450664299
 H   -0.7179489404    1.8198651966   -0.9021205313
 H   -0.1634780480    2.0908454803    0.7595611546
 H    0.5468569321   -2.2188339606   -2.3059286777
 H   -0.2825291308   -2.6008765929    1.7363213469
 H    1.8233205935   -0.6385801797    1.4486376997
 H   -0.5828962139   -0.8170308139    3.0345117433
 H   -0.4830384101    0.8639892856    2.4069069360
 H   -2.1673159063   -0.7097812050    0.6231929492