21

 O   -0.0549911523    1.4567443014    0.0646921640
 C    0.0417137929    0.0361735667    0.0320169183
 C    0.8544754433   -0.5315561555    1.2004990245
 C    0.7740035650   -2.0633730025    1.2122077778
 C   -0.6618378287   -2.5197917136    1.5062612825
 C   -1.7047732753   -1.9051329687    0.5528227348
 O   -2.8475667171   -1.3764848477    1.2741660472
 C   -2.4192178092   -0.0167072339    1.0329244104
 C   -1.3878226279   -0.4903599824   -0.0083400646
 H    0.8381057904    1.8151196527    0.0950421837
 H    0.5435169559   -0.2832028329   -0.8983068247
 H    1.8958128541   -0.1964337575    1.1097524568
 H    0.4707837071   -0.1267621261    2.1456796545
 H    1.1092969270   -2.4554845097    0.2417902155
 H    1.4549360357   -2.4780983532    1.9626586912
 H   -0.7311452899   -3.6122928178    1.4850543392
 H   -0.9334553563   -2.2083357369    2.5211493123
 H   -2.0273102652   -2.6357651564   -0.1973629364
 H   -3.2348336128    0.6146642645    0.6676820121
 H   -1.9877601584    0.4460636163    1.9300835827
 H   -1.7891720384   -0.3697894868   -1.0170080920