14

 N    0.2212511492    1.3611414214   -0.2279005224
 C    0.0261276597   -0.0059617155   -0.0938853798
 C   -1.0873517040   -0.8044287526    0.0691891986
 N   -0.6793711441   -2.0920341471    0.2473203972
 N    0.6100701792   -2.1580260417    0.1974950220
 N    1.0642484088   -0.8791140902    0.0009446085
 C    2.4838099199   -0.6183149897   -0.0204881621
 C    2.9122361534    0.0344858222   -1.2648634940
 N    3.2103222649    0.5941137530   -2.2304327333
 H    0.8487043372    1.6210011273   -0.9815382964
 H   -0.6497016724    1.8671789268   -0.3124581799
 H   -2.1291117986   -0.5286069774    0.0637546810
 H    2.7734797782    0.0191842047    0.8233974531
 H    2.9794313585   -1.5860495411    0.0909838976