19

 C   -0.1171588697    1.6274001468   -0.0907494848
 C   -0.0509691791    0.1551841827    0.3303550598
 C   -1.3334589400   -0.5878987078    0.0247959291
 O   -1.5733080635   -0.7037028336   -1.4322829359
 C   -1.7097413046   -2.0602469443   -1.3613082106
 O   -1.9828473097   -2.8231340526   -2.2334551923
 C   -1.4298179800   -2.1301628120    0.1562808497
 C   -0.2003247602   -2.9271650675    0.5627647228
 O   -2.5683068122   -2.4822883290    0.9165409169
 H    0.8230360494    2.1395023261    0.1318338084
 H   -0.3070609541    1.7136152894   -1.1642143481
 H   -0.9200205380    2.1535651621    0.4365218377
 H    0.7869068054   -0.3384898426   -0.1739262861
 H    0.1353345306    0.0775357505    1.4091419171
 H   -2.2010968152   -0.1072364758    0.4851724311
 H    0.6877560706   -2.6335642587   -0.0029029431
 H   -0.0031754693   -2.7954894068    1.6304822741
 H   -0.3755515677   -3.9910360845    0.3706709896
 H   -2.7811873225   -3.4025284024    0.7217057445