16

 N   -0.6208023955   -1.0056876618   -0.7710917362
 C   -0.3007490860    0.0533717750   -0.4378037586
 C    0.0852089026    1.3982643948   -0.0024692200
 C   -0.2215335618    1.7548458283    1.4739406895
 C    1.3077924564    1.8478547035    1.6208221447
 C    2.0399490294    3.0758086713    2.1850604330
 O    2.6285604155    2.2846813168    3.2362598062
 C    2.1130149648    1.0623983915    2.6691328241
 O    1.5017561025    1.5231807037    0.2289556315
 H   -0.2674243582    2.1246696349   -0.7427934755
 H   -0.7618969290    2.6926405935    1.6066952860
 H   -0.7020942927    0.9661469243    2.0526173369
 H    2.7881954462    3.4816566632    1.4920231305
 H    1.4160652062    3.8896977153    2.5741206693
 H    1.5404765343    0.4736597923    3.3955814085
 H    2.8981790954    0.4392748735    2.2228596801