20

 C   -0.3850231726    1.4481031149    0.1320366648
 C    0.0034334040    0.0073803726   -0.0319627932
 N   -0.1737776438   -0.6120987851   -1.1219248668
 C    0.1634695378   -2.0224457564   -1.2365861264
 C    0.9331491362   -2.6160685843   -0.0710043408
 C    2.2870921941   -2.0409247199    0.3097679222
 C    1.0739588637   -1.7774851620    1.1623746038
 C    0.9423357102   -2.3473312290    2.5485553204
 O    0.5427008427   -0.4637037287    1.1313896470
 H    0.4903584319    2.0505397388    0.3952571476
 H   -0.8212004192    1.8153822703   -0.7958298169
 H   -1.1069260932    1.5550572166    0.9481483141
 H   -0.7783190998   -2.5745550536   -1.3579558459
 H    0.7124443236   -2.1632383974   -2.1774379164
 H    0.7954770880   -3.6828387619    0.0818265985
 H    3.0514071414   -2.7090029838    0.6917332916
 H    2.6613644842   -1.2153289560   -0.2874826221
 H    1.3928067053   -3.3425350482    2.5946949109
 H    1.4470084579   -1.7062820256    3.2786494294
 H   -0.1105032522   -2.4302983414    2.8371818780