15

 N   -0.1307190469    1.3117968775   -0.0345575162
 C   -0.1465738791   -0.0535434360   -0.0431824473
 C   -1.2000735544   -0.9333102666   -0.0125837577
 C   -2.6535788220   -0.5895753786   -0.0152184474
 O   -2.9472802117    0.4796827110   -0.9267670903
 C   -0.5304671123   -2.1840395220   -0.0010192953
 O   -1.1504767678   -3.3762502867    0.0241591982
 N    0.7786242308   -2.0957558697   -0.0172637073
 O    1.0261893322   -0.6944863006   -0.0511208505
 H    0.7139346158    1.7392661874   -0.3849040256
 H   -0.9905686502    1.7139822252   -0.3849769252
 H   -3.2511729901   -1.4831730612   -0.2380661865
 H   -2.9868705996   -0.2126556975    0.9584695223
 H   -2.7183655792    0.1663725469   -1.8090420628
 H   -0.4663812654   -4.0592574492    0.0186960216