18

 C   -0.1173087932    1.4344894203   -0.0650662681
 N   -0.0309148825   -0.0102549715    0.0243807363
 N   -0.0546926219   -0.7672666504   -1.1041857889
 C    0.0180458982   -1.9950847116   -0.6193144552
 N    0.0824201910   -2.0802976913    0.7345610277
 C    0.0456134201   -0.8100334733    1.1151235212
 C    0.1329384177   -0.3223841235    2.5232919753
 C    1.5900510725   -0.2380974446    3.0217845100
 O    1.6744192406    0.2466667508    4.3477799904
 H    0.7165482071    1.9081860007    0.4597130342
 H   -0.0727832768    1.6947816456   -1.1215649804
 H   -1.0588243955    1.7998052945    0.3565071608
 H    0.0228904212   -2.8587547215   -1.2676221899
 H   -0.3350677622    0.6607855917    2.6332587039
 H   -0.4197501365   -1.0239461880    3.1568819462
 H    2.0671939578   -1.2214257394    2.9075216697
 H    2.1543595138    0.4707556073    2.4062411721
 H    1.3171111887   -0.4278663957    4.9342178347