16

 C    0.0385081785    1.4859643514    0.0460129195
 C   -0.0961082695   -0.0256045164   -0.1026017060
 N    0.7656497596   -0.5134262804   -1.1692633222
 C    0.8574531299   -1.8601219240   -1.4105161836
 N    0.4861719018   -2.7884021769   -0.5338517394
 N    0.8234528677   -3.9358039184   -1.1985912857
 C    1.3462417230   -3.6446873704   -2.3993382126
 N    1.3876311905   -2.3392737357   -2.5805556170
 H    1.0731876349    1.7661793828    0.2642393919
 H   -0.2673221942    2.0037939926   -0.8707508138
 H   -0.5985492754    1.8482413379    0.8576114250
 H    0.2040888432   -0.5274172348    0.8225064872
 H   -1.1495178655   -0.3000495149   -0.2743616538
 H    0.7713139286    0.0337379193   -2.0176891025
 H    0.6545775079   -4.8289708001   -0.7691063390
 H    1.6787893391   -4.3966493719   -3.0994992881