14

 O   -0.1980844839    0.0408349384    0.2501700181
 C   -0.0306561645    1.2115328822    0.0155596813
 C    1.3053798939    1.8500972458   -0.0783488553
 O    1.3114687429    3.2771903585    0.2087417500
 C    1.6351008369    2.8774876110   -1.1092242636
 C    3.1273681484    2.7591912789   -1.4024649937
 C    3.5896310348    1.6814319482   -0.4425742826
 C    2.5820040348    1.1583440744    0.2591483404
 H   -0.8742002181    1.9173331584   -0.1452052311
 H    0.9347832221    3.1899699417   -1.8801853623
 H    3.3002346837    2.4782565472   -2.4487581141
 H    3.6397384844    3.7149402603   -1.2389730258
 H    4.6334593497    1.4074934853   -0.3416082770
 H    2.6381255946    0.3641696596    0.9906450458