20

 C   -0.1550646029    1.4670410432   -0.3783806156
 C   -0.0338962935    0.0525196587    0.2022231209
 C   -1.3623498135   -0.6574848305    0.3195476916
 C   -2.3941028601   -0.2070132223    1.3816448068
 C   -3.5189460273   -1.1854616362    1.0973544068
 C   -3.0518620802   -2.1729952269    0.3003752439
 C   -3.1658209793   -1.8856135152   -1.1970736631
 N   -1.7528863670   -1.2946036527   -1.0649142544
 C   -1.5288591059   -2.1069164536    0.1632807774
 H    0.8271643943    1.9425654641   -0.4560100320
 H   -0.5977355215    1.4306520958   -1.3778531336
 H   -0.7843209265    2.1079220828    0.2479635058
 H    0.6366727683   -0.5447433290   -0.4226918392
 H    0.4177657532    0.0964415298    1.2025905899
 H   -1.9064661373   -0.2321156844    2.3679936655
 H   -2.7771510849    0.8114573149    1.2485182577
 H   -4.5335270550   -0.8113883672    0.9867923461
 H   -3.0707215530   -2.7265060643   -1.8915214014
 H   -3.9566155125   -1.2038580992   -1.5228114614
 H   -0.7942496854   -2.9039362682    0.2206760183