21

 O    0.6455258132    0.8173114610   -0.6727130899
 C    0.2153737131   -0.3480856769   -0.0136350935
 C    0.3096942295   -0.4578130048    1.5354477904
 C   -0.0950943443    0.8134149812    2.3317567858
 C   -1.5397812837    0.2577984431    2.5114330326
 C   -1.1936596769   -0.9360858591    1.5876104050
 C   -1.2936447037   -0.6456506282    0.0818736460
 C   -2.3727984723    0.1172160556   -0.6384410427
 C   -2.1324030424   -1.3399831170   -0.9480157953
 H    0.1153248886    1.5526604846   -0.3472315855
 H    0.7614239670   -1.1667859846   -0.4943471476
 H    1.1420138638   -1.0359850610    1.9376079121
 H    0.4555892780    0.9479960771    3.2649174011
 H   -0.0138530837    1.7522377338    1.7737515217
 H   -1.7399489109   -0.0520964423    3.5405783181
 H   -2.3619857484    0.8995233984    2.1819179780
 H   -1.4932105687   -1.9360301787    1.9056525818
 H   -3.2708815500    0.3858863328   -0.0909856526
 H   -2.0594558882    0.8488336134   -1.3775128272
 H   -1.6676158452   -1.5921435793   -1.8965462137
 H   -2.8678314149   -2.0606481194   -0.6039512648