17

 C    0.1331059259    1.4650897235   -0.0841127927
 C   -0.0333997614   -0.0190265463   -0.0480786196
 C   -1.1937306835   -0.6993651584   -0.0647479707
 C   -1.2316544986   -2.1636748139   -0.0253837227
 O   -2.2676313958   -2.8151473972   -0.0390702605
 C    0.1036093195   -2.7645201209    0.0321697896
 C    1.2195481822   -2.0135479272    0.0455323833
 C    2.6284137264   -2.5069668802    0.1022988821
 O    1.1731528944   -0.6514993912    0.0063447330
 H    0.7224236267    1.7656369229   -0.9571433808
 H   -0.8390610904    1.9575679619   -0.1273905085
 H    0.6685877722    1.8144053174    0.8053030941
 H   -2.1338088395   -0.1632318193   -0.1083572551
 H    0.1786945242   -3.8445233189    0.0643710780
 H    3.1919126029   -2.1651028681   -0.7725742536
 H    3.1378860691   -2.1166268936    0.9899212661
 H    2.6503660758   -3.5969740504    0.1328971181