18

 C    0.1677815745    1.4130659284    0.1830770455
 C    0.0218196079   -0.0564944123   -0.0358386904
 C   -0.2528087734   -0.7800115658   -1.1766212279
 C   -0.2775206222   -2.1588334246   -0.8264648208
 C   -0.0266280860   -2.2477442148    0.5242109994
 C    0.0837840258   -3.4209685434    1.4515306459
 C    1.4873144058   -3.4262726534    2.0354740942
 O    1.7717994099   -2.9214753387    3.0933818542
 N    0.1563559138   -0.9624701771    0.9892562559
 H    1.1582952276    1.6767539236    0.5744128854
 H    0.0346035215    1.9433967981   -0.7624803586
 H   -0.5757489713    1.8027467957    0.8895804571
 H   -0.4231321325   -0.3581722453   -2.1557314593
 H   -0.4703302738   -2.9932534145   -1.4838932666
 H   -0.6343679442   -3.3618798977    2.2778374819
 H   -0.0952311153   -4.3398050729    0.8859563647
 H    2.2672344511   -3.8715032262    1.3790699269
 H    0.4025478009   -0.7380525693    1.9397380326