18

 O   -0.0465759035    1.3612997646   -0.0748327784
 C    0.0467028319   -0.0312478838   -0.0095320702
 C   -0.4024848901   -0.7851696977    1.2493758104
 C   -1.1938840021   -0.8360823741   -0.0145618475
 N   -2.5609237986   -0.1960148597   -0.2087063901
 C   -2.4182067710   -0.6522354728   -1.6719263805
 C   -1.8991617711   -1.8793362114   -0.8695258994
 O   -1.3290577437   -3.0616597520   -1.2899795642
 C   -3.1125386927   -1.6061336888    0.0681897219
 H   -0.9826993799    1.5858241530    0.0053052224
 H    0.9338244063   -0.3937654821   -0.5203197524
 H    0.1640968567   -1.6622317347    1.5473800708
 H   -0.7930953133   -0.1872521743    2.0677742008
 H   -3.3790350695   -0.7399614059   -2.1868623624
 H   -1.6945007327   -0.0660819255   -2.2407759939
 H   -1.9705001899   -3.5506875739   -1.8169609702
 H   -3.0300977981   -1.9069415350    1.1139294876
 H   -4.1203453488   -1.7560008158   -0.3294006747