15

 C    0.0558041392    1.4020408474    0.0091012635
 O    0.0044567974   -0.0182442221    0.0019367003
 C   -1.3064623557   -0.5809421391    0.0113698289
 C   -1.1246832427   -2.0430727952    0.0017818204
 C   -0.9933362100   -3.2350649557   -0.0058245782
 C   -2.0552634230   -0.1898680433    1.2277059284
 C   -2.6432608965    0.1393888825    2.2213114278
 C   -2.0782081757   -0.1768815001   -1.1862339691
 C   -2.6849499059    0.1630181636   -2.1648734630
 H    1.1167068162    1.6577955048    0.0004119808
 H   -0.4289812655    1.8275429976   -0.8780164400
 H   -0.4120131019    1.8179103684    0.9097941120
 H   -0.8732508418   -4.2905327135   -0.0124591136
 H   -3.1697267835    0.4205579594    3.1003170345
 H   -3.2279458806    0.4536888753   -3.0306327126