22

 C    0.3422103776    1.4548384018    0.2712365569
 C   -0.1579284834    0.0532735459   -0.1005810718
 C    0.4741417843   -0.4747583521   -1.3681188867
 C    0.1437127825    0.1854216513   -2.7145313504
 C    0.2955262545   -0.9373042325   -3.7168389472
 C    0.5707914231   -2.1108522586   -3.1336113294
 C    0.7536206037   -3.4432612074   -3.7895003818
 C    0.7190463256   -1.9225992852   -1.6538675577
 N    1.8263995748   -1.0347361556   -1.2147575467
 H    1.4295927995    1.4499917201    0.3950130376
 H    0.0934842311    2.1893835495   -0.5024618818
 H   -0.1053676723    1.7978220892    1.2089809082
 H    0.0690243109   -0.6418752527    0.7145856848
 H   -1.2492842747    0.0631016813   -0.2193365839
 H   -0.8805417477    0.5840447086   -2.7099259209
 H    0.8005079831    1.0383590564   -2.9321256250
 H    0.2108311360   -0.7808376216   -4.7871642572
 H    0.6149367462   -3.3809981438   -4.8721838022
 H    1.7528079959   -3.8518499492   -3.5933005120
 H    0.0366990873   -4.1760951707   -3.3979904978
 H    0.4741052721   -2.7260501797   -0.9643448439
 H    2.4064999200   -0.8058075649   -2.0205705411