15

 O   -0.0075685917    0.0368878535   -0.6441921193
 C    0.0425104845    1.1886096278   -0.2855091873
 N   -1.0109491378    1.9866697531    0.0598274537
 C   -0.6592962312    3.3162673220    0.5266996982
 C    0.7564197481    3.5008348249   -0.0571942728
 C    1.3227001025    2.0609509734   -0.1157254159
 C    2.0230936418    1.6735075329    1.1021051565
 C    2.5828007613    1.3752433924    2.1232019077
 H   -1.9315788381    1.5880113763    0.1542266976
 H   -1.3610385236    4.0678926888    0.1530261524
 H   -0.6516563207    3.3732059099    1.6236719503
 H    0.6843846515    3.8989882896   -1.0731696298
 H    1.3718516103    4.1758580497    0.5378413200
 H    1.9701727676    1.9005550660   -0.9820244455
 H    3.0863853754    1.0947828095    3.0149775842