21

 C   -0.2773445210    1.4088016789    0.0060690081
 C   -0.0020634861   -0.0676077579   -0.0152320799
 C    0.7973343198   -0.7864434309   -1.1327700773
 C   -0.1345450353   -1.9237047622   -0.6621190005
 C   -0.6633885086   -3.0285396539   -1.5391530139
 O   -1.7582342715   -3.6850275493   -0.9221989863
 C    0.3787371812   -2.2443833117    0.7604938900
 C    0.4851188345   -0.7759464999    1.2725017658
 O   -1.1584420671   -0.9044447205   -0.3774467608
 H    0.6389622341    1.9627184098    0.2354215441
 H   -0.6574956275    1.7512069201   -0.9602922816
 H   -1.0201994076    1.6491127301    0.7739702438
 H    0.5299707666   -0.4181334376   -2.1248194862
 H    1.8787757657   -0.9042623284   -1.0244754818
 H   -0.9435556386   -2.6138288396   -2.5196972388
 H    0.1110081136   -3.7861274601   -1.7032148696
 H   -2.3838833946   -2.9929731028   -0.6769264333
 H   -0.3498444427   -2.8432341408    1.3082474692
 H    1.3344733972   -2.7759814650    0.7529407443
 H    1.4994568439   -0.4819957971    1.5572068143
 H   -0.1843704260   -0.5682204312    2.1106842302