19

 C   -0.4857979290    1.6684137217    0.0162926673
 O   -0.2958539005    0.3868825731   -0.5626170972
 C   -1.2435436344   -0.5515864890   -0.1561720391
 C   -1.1106631842   -1.9790039607   -0.7399468559
 C    0.3456783296   -2.5153906720   -0.8032121335
 C    0.1584386665   -3.2322059450    0.5669481578
 C   -1.2593017713   -2.5974900518    0.7063350762
 C   -1.1696430976   -1.1707602061    1.2663779608
 O   -1.0206644512   -0.7155553086    2.3654361074
 H    0.3078604067    2.3117934224   -0.3696191949
 H   -1.4608558767    2.0920869932   -0.2704100378
 H   -0.4268468989    1.6292893898    1.1099355580
 H   -2.2746537743   -0.1787452350   -0.3102358017
 H   -1.7748306152   -2.2254675816   -1.5665224548
 H    0.5331334299   -3.1930431411   -1.6378718566
 H    1.0991241100   -1.7259482724   -0.8226851555
 H    0.1073309502   -4.3191420007    0.4736286582
 H    0.8649937933   -2.9881734433    1.3637576269
 H   -2.0813200428   -3.2248024631    1.0515685944