17

 O   -0.0758436556    1.4030338262    0.0471141159
 C    0.0277461493    0.0256067478    0.0481385543
 C   -0.1070338173   -0.8115093851   -1.2085281262
 O    0.7099416187   -1.9391315172   -1.4027618567
 C    0.8866170912   -2.5170250670   -0.1168553984
 C    1.8985588796   -1.6808189009    0.7134194061
 C    0.7016264057   -0.8130585723    1.1635358397
 C   -0.2994072633   -1.9492494744    0.7821699860
 C   -1.1115441275   -0.9953940634   -0.1083653983
 H    0.6845734683    1.7674268995   -0.4203732310
 H   -0.3725590650   -0.3065873028   -2.1294418726
 H    1.0452240534   -3.5899333661   -0.2344164082
 H    2.3062584310   -2.2561489930    1.5506836799
 H    2.7158725230   -1.2211625184    0.1512374138
 H    0.6774244038   -0.3333799796    2.1428597712
 H   -0.7723187358   -2.5966617890    1.5147664959
 H   -2.1840800097   -0.8938748843   -0.2044862914