19

 C   -0.3980928700    1.4291278344    0.0472493287
 N    0.0843558221    0.0576670969    0.0108946953
 C    1.1109116250   -0.3757644980   -0.9741753047
 C    1.8732952007   -1.0915530470    0.1553923625
 C    2.4772929799   -2.4614612140    0.0650574107
 C    2.3201132541   -0.0544170598    1.1802129042
 C    2.8142092256    1.2438825802    0.8194543299
 N    3.2283681344    2.2817060845    0.5148592017
 C    0.8478664181   -0.5014684961    1.0993405092
 H    0.3931050739    2.1867235530    0.1339415515
 H   -0.9701659242    1.6291132740   -0.8645326417
 H   -1.0794578488    1.5403555235    0.8971147542
 H    0.6985165055   -1.0537241018   -1.7290026881
 H    1.6581835512    0.4333617881   -1.4733874801
 H    3.3827510850   -2.4536658388   -0.5523185409
 H    2.7529399270   -2.8419139961    1.0534637115
 H    1.7714519195   -3.1688907069   -0.3829107407
 H    2.8394093460   -0.4922368301    2.0290855589
 H    0.3683857551   -0.9104348361    1.9839783479