18

 C    0.0662653357    1.4955841027   -0.0706511983
 C   -0.0552088857   -0.0204697416   -0.0300903103
 C   -1.1930400059   -0.5813194523    0.8750261745
 C   -0.0727111373   -1.2561052183    1.6910640862
 O   -0.0081937854   -2.0278425259    2.6021314062
 N    0.9395727612   -0.6583229933    0.8983667394
 C    1.8931943148   -1.3728379727    0.1273187594
 C    1.5658980011   -1.3792609821   -1.1668905705
 C    0.2373533810   -0.6818917993   -1.4073202722
 H    1.0272323587    1.7932578099   -0.5025379270
 H   -0.7312956952    1.9258891679   -0.6862481278
 H   -0.0024394894    1.9214790635    0.9345769713
 H   -1.7952356772    0.1570947955    1.4097169130
 H   -1.8545991247   -1.3111732075    0.4030597514
 H    2.7451993842   -1.8270588335    0.6136899957
 H    2.1511063397   -1.8401732460   -1.9514865956
 H   -0.5354484784   -1.3991846437   -1.7157335404
 H    0.2938648530    0.0729433466   -2.1989510350