16

 C    0.0021468379    1.5722429333   -0.0451790919
 C   -0.0890024817    0.0779715802    0.1049149278
 O    1.1191639245   -0.6809047031   -0.1142953497
 C    0.5766829965   -0.6449239787    1.1878438596
 C    1.3293385826   -0.1741540194    2.4298132668
 N    0.2862562975   -0.0756352337    3.4647960583
 C    0.9249395063   -1.4073735304    3.1948114709
 C    0.2268469182   -1.9446843500    1.9520945246
 O   -0.2178695750   -3.0029956732    1.6257498226
 H    0.9068048803    1.9601956624    0.4297658461
 H    0.0211407982    1.8513006595   -1.1035169062
 H   -0.8678995262    2.0498956095    0.4166481902
 H   -0.9712997618   -0.3953651676   -0.3273078808
 H    2.2679954442    0.3605482960    2.4732188546
 H    0.7243354417    0.2736041577    4.3182098171
 H    1.4408538368   -1.9511534323    3.9748859898