18

 C    0.0886620602    1.4926488679   -0.0969880121
 C   -0.0241982841   -0.0265070272    0.0342976140
 O    0.7343140000   -0.5122134422    1.1386146165
 C   -1.4716664830   -0.5051812505    0.1141309912
 C   -2.3234988244   -0.4318776995   -1.1947866865
 C   -2.6841135233   -1.9128258933   -0.9785125739
 O   -3.4884935152   -2.6464636178   -1.4739008434
 C   -1.6822740355   -2.0501007863    0.1765714195
 H    1.1389206439    1.7915769831   -0.1476622813
 H   -0.4205040591    1.8568031584   -0.9949309338
 H   -0.3678175158    1.9898819630    0.7683760095
 H    0.4454807144   -0.4972854583   -0.8402204157
 H    0.4012681883   -0.0834350837    1.9350207879
 H   -1.9777831299    0.0010121423    0.9444379372
 H   -3.1657517915    0.2636424940   -1.2269296537
 H   -1.7211238434   -0.2870468412   -2.0995264837
 H   -0.7887869809   -2.6169521114   -0.1073052473
 H   -2.0783620607   -2.4810110975    1.0993702856