19

 C    1.2793149960    0.8473114399   -0.6376552774
 C    0.1026234424    0.1499265943   -0.0061402389
 O    0.3230215713   -1.1093753086    0.6519316664
 C   -0.1112441929   -0.0003991131    1.4393021649
 C    0.8302833448    0.5351434178    2.4961904572
 O    0.6268698675    1.9333102848    2.5159867936
 C    0.7690888620   -0.1686673391    3.8783757163
 O    2.1759632002   -0.4659461044    3.8431367231
 C    2.3045085012    0.0508807566    2.5018859999
 H    2.1464784171    0.8865116622    0.0227423669
 H    1.5721017369    0.3346033653   -1.5597964732
 H    1.0016473653    1.8744751883   -0.8949949284
 H   -0.7979743081    0.1493701801   -0.6234443319
 H   -1.1439376937   -0.0743544542    1.7870456617
 H    1.1140522809    2.3005395510    3.2619585358
 H    0.4933971468    0.4863863389    4.7159518092
 H    0.1540077173   -1.0772153423    3.9146576990
 H    2.5339778588   -0.7383250147    1.7801618093
 H    3.0452770762    0.8579318971    2.4317648365