18

 O   -0.5100280203    0.4665972594    0.4634206962
 C    0.2703953941    0.9059156676   -0.3408614881
 C    1.2803702434    2.0023550679   -0.0516497434
 C    1.2441642964    3.0942456456   -1.0850461351
 C    0.0347653545    3.8952299251   -1.5486172907
 C    0.8801148763    4.1445290168   -2.8106540321
 C    2.0670951599    5.0215059646   -2.3674973303
 C    2.4749149676    3.7889642555   -1.5832242288
 N    1.7201999864    2.8594616990   -2.4986452093
 H    0.3094655085    0.5222874699   -1.3841111299
 H    1.1020857741    2.3926713881    0.9555686084
 H    2.2758263527    1.5361639300   -0.0655119248
 H   -0.8143651256    3.2380589057   -1.7561499077
 H   -0.3004234951    4.7569480209   -0.9617710321
 H    0.4219717114    4.2546428068   -3.7910456081
 H    2.7603985598    5.2035536466   -3.1924315649
 H    1.8591871030    5.9580156507   -1.8396118386
 H    3.4595845230    3.5280306496   -1.2101221009