17

 C    0.1358248170    1.5550743463   -0.1044260084
 C   -0.0022604176    0.0278251738    0.0278725678
 C    0.6082896357   -0.6403245413   -1.2055584735
 O   -0.0135961618   -1.2576149623   -2.0271859832
 C    0.6622729110   -0.5367700359    1.2520186364
 C    0.5319942501   -1.7743165437    1.8588424691
 C    1.4427189816   -1.7505960824    2.9339722461
 N    2.1005328553   -0.5962962732    3.0027785283
 N    1.6156207237    0.1176749534    1.9688228274
 H    1.1799025683    1.8540006394   -0.2552050176
 H   -0.4335491905    1.9146617318   -0.9650687197
 H   -0.2411586897    2.0585925351    0.7902584734
 H   -1.0608547912   -0.2474959821    0.0370812789
 H    1.7119145682   -0.5044596488   -1.2862559180
 H   -0.1322845899   -2.5697741953    1.5613035284
 H    1.6442702078   -2.5239314706    3.6605693511
 H    1.9539708620    1.0542227757    1.8287683633