9

 O   -0.0673329512   -0.0040378388    0.0049803991
 N   -0.0150076041    1.2180543095    0.0077636192
 O    0.9826444296    1.9156041304    0.0026818725
 C   -1.2999043986    1.8880469647    0.0188922204
 C   -2.5548312430    1.3714076011    0.0262966364
 N   -3.3952469399    2.4558821919    0.0355909256
 N   -2.7429049024    3.5318412460    0.0333941669
 O   -1.3413165374    3.2061196502    0.0233673915
 H   -2.8947446532    0.3515386851    0.0257419183