21

 C   -1.5543371982   -0.3215965001    0.1211802745
 C   -0.0700510046    0.0459859398    0.0357917253
 C    0.7431257253   -0.4138188056    1.2621347726
 C    0.8655659972   -1.9468352291    1.4013515934
 C    2.3713266709   -2.2396008541    1.4977928249
 O    2.8712726308   -3.3312227524    1.6506822764
 C    3.0639935939   -0.9450319774    1.3709483480
 C    2.1898667038    0.0659545377    1.2438645882
 C    2.5286841367    1.5169572187    1.1220147027
 H   -2.0225780361    0.1360343019    0.9998476144
 H   -2.0958203541    0.0259079482   -0.7638425980
 H   -1.7003144345   -1.4038954237    0.1950300078
 H    0.3737214381   -0.3932475109   -0.8674288017
 H    0.0201026096    1.1331632084   -0.0731341802
 H    0.2573465564    0.0130789068    2.1526179624
 H    0.3553676109   -2.3500554930    2.2803686500
 H    0.4614264747   -2.4778553737    0.5328344283
 H    4.1436044452   -0.8592827319    1.3994915508
 H    3.6003056759    1.6917541242    1.2418794640
 H    2.2266763663    1.9140707649    0.1456598734
 H    1.9928181018    2.1069767414    1.8759430429