19

 O    0.0631562822    1.3939348663   -0.0569785460
 C    0.0564719305   -0.0207162816   -0.0058516548
 C   -1.3498979961   -0.5751089141   -0.0349677366
 C   -2.3054332721   -0.5471222326   -1.2845691745
 C   -3.0947827736   -1.6140407425   -0.4733762956
 C   -1.7123578802   -2.0993962738    0.0491960784
 C   -3.6156478154   -0.7888295656    0.7206802443
 C   -2.3124262217   -0.0218010269    1.0065002727
 O   -2.0965615949    0.8340753057    1.8304165820
 H   -0.4209780998    1.6880232501    0.7263100978
 H    0.6264392582   -0.3723315767   -0.8730021278
 H    0.5707694444   -0.3970947424    0.8944891514
 H   -2.8010995459    0.3940636735   -1.5358651564
 H   -1.8095680039   -0.9609014069   -2.1657843484
 H   -3.7939795903   -2.2971034731   -0.9530651326
 H   -1.1592439642   -2.6805162041   -0.6927085711
 H   -1.6647991836   -2.5906789134    1.0257790639
 H   -4.4321042770   -0.1033558729    0.4730065360
 H   -3.9229336566   -1.3911861290    1.5815136073