21

 C   -0.0547273115    1.5536987517    0.1385870196
 C   -0.0454874082    0.0244962414    0.0707749093
 C   -1.4543745456   -0.5738685302   -0.0004321008
 C   -1.4651926162   -2.0976046208   -0.0632096275
 O   -0.8308919442   -2.6165458667    1.1119007009
 C   -1.4332401140   -3.8434372500    1.5028261679
 C   -2.8253344951   -3.8189861804    0.9116521825
 O   -3.5247420231   -2.5990731168    1.1841485654
 C   -2.8429430909   -2.7344609259   -0.0689250315
 H    0.9616497652    1.9565555078    0.1897004922
 H   -0.5414737906    1.9886607448   -0.7418865309
 H   -0.5974605012    1.9067159330    1.0224952465
 H    0.5314337837   -0.3012414990   -0.8054724196
 H    0.4673260873   -0.3867830361    0.9463051919
 H   -2.0408302917   -0.2708485683    0.8743948818
 H   -1.9764038631   -0.1898825881   -0.8876176502
 H   -0.9285079244   -2.4408895215   -0.9664160787
 H   -0.8836503901   -4.7142618416    1.1082532901
 H   -1.4214013207   -3.8908983436    2.5968635812
 H   -3.4274495252   -4.7202479337    0.8374442527
 H   -3.4613635403   -2.7285634362   -0.9624227027