18

 C   -0.0423350519    1.5538900849    0.0513670585
 C    0.1278593874    0.0683860015    0.0056579517
 N   -0.8037577070   -0.8542189402    0.7000764336
 C    0.6532751126   -0.9229992255    0.9872227291
 C    1.2918518140   -1.7797213882   -0.1304947150
 C    0.4247948282   -2.9123545025   -0.7536516540
 C   -0.1400326474   -1.8783978356   -1.7557558177
 O   -0.8979685099   -1.9464072007   -2.6768435377
 C    0.7392361644   -0.7440751140   -1.1733747267
 H    0.8711237478    2.0661993433   -0.2683464632
 H   -0.8565738122    1.8776038850   -0.6072142896
 H   -0.2779636083    1.8879583170    1.0682094925
 H   -1.2378357769   -0.3298179353    1.4589987174
 H    1.0182283049   -0.7835747999    1.9983557832
 H    2.3620593465   -1.9518883531   -0.0358879071
 H    1.0138774607   -3.6824777379   -1.2627219533
 H   -0.3187412071   -3.3877360892   -0.1121985835
 H    1.3802261842   -0.1842310696   -1.8551990083