14

 C   -0.2092305874    1.4828759435   -0.0276439291
 C   -0.0255966725   -0.0022365144   -0.0079490894
 N   -0.0250523118   -0.6705677094   -1.1123869293
 N    0.1425290622   -1.9980804570   -1.0531514776
 C    0.3212124942   -2.7608837014    0.0862701004
 N    0.4706646899   -4.0112503605    0.0192088746
 O    0.3190763389   -2.0413811800    1.2544965251
 C    0.1519850467   -0.6632817978    1.2986090867
 O    0.1625834139   -0.1169846277    2.3628372750
 H    0.6494484497    1.9858046506    0.4287680271
 H   -0.3267030052    1.8252394308   -1.0565804897
 H   -1.0888787531    1.7724509475    0.5562474157
 H    0.1374972792   -2.4868497843   -1.9342022085
 H    0.5889921053   -4.4163186599    0.9443706790