13

 O    0.1357274940    1.3697137458    0.2213757166
 C    0.0596732606   -0.0146350186    0.0597259124
 C   -1.3393649868   -0.6331520129   -0.0075909144
 O   -1.9472015497   -0.0480397636   -1.1789244659
 C   -1.0932957900   -1.1999825250   -1.3453650583
 C    0.3274599840   -0.6314922294   -1.3970466756
 O    0.6251906259    0.2407458635   -2.4453614326
 H   -0.5528574523    1.7554078532   -0.3333256650
 H    0.7065157560   -0.4707476432    0.8129973569
 H   -2.0099162357   -0.9598761823    0.7783679816
 H   -1.5300860768   -2.0650871476   -1.8300524550
 H    1.1083657530   -1.3952870502   -1.3714318036
 H   -0.1445656322    0.8099615305   -2.5640804572