18

 C   -0.0540831676    1.5434251299    0.3982292647
 C   -0.0415154563    0.0582613525   -0.0251226590
 C    0.8539371004   -0.6885076331    0.9496539767
 O    1.9366652653   -1.1373542626    0.6711046241
 C   -1.4568771393   -0.5248281046   -0.0748937138
 C   -2.3878838681    0.0715985299   -1.1091108641
 C   -1.7146737520   -1.8921086649    0.4050349219
 O   -2.0552818089   -0.7581565432    1.2105952689
 H    0.9651956772    1.9352619762    0.4572419905
 H   -0.6044700511    2.1539947779   -0.3216744819
 H   -0.5281948547    1.6603031537    1.3776439976
 H    0.4161918014   -0.0392530025   -1.0157880898
 H    0.4443444341   -0.7600233766    1.9810095491
 H   -1.9754537164   -0.0493314120   -2.1164112915
 H   -3.3612531767   -0.4231395900   -1.0696025596
 H   -2.5468873456    1.1394345216   -0.9339907041
 H   -2.5606391171   -2.4500275712    0.0060054517
 H   -0.9000759548   -2.5092152911    0.7827838588