23

 C   -0.2852923381    1.5686573155   -0.9267179912
 C   -0.0775550204    0.2544801654   -0.1614954119
 C   -1.3793078916   -0.4729764591    0.1646506550
 C   -2.3803945314    0.2888305006    1.0296638550
 C   -1.8641875498    0.6395853586    2.4298577121
 C   -1.9381574835   -1.4064925952   -0.8591265253
 C   -1.3568724158   -1.9900681648    0.4262401066
 C   -0.1246588197   -2.8041665672    0.3690798043
 O    0.1279015375   -3.7042851254    1.1341817777
 H    0.6783793631    2.0063445210   -1.2037750907
 H   -0.8561004622    1.4033631391   -1.8466824972
 H   -0.8229367340    2.3114531830   -0.3299726754
 H    0.5636092490   -0.3973078144   -0.7627795071
 H    0.4785692594    0.4513394028    0.7627927598
 H   -2.6829928624    1.2046290105    0.5072198408
 H   -3.2901580288   -0.3159839837    1.1217838664
 H   -1.5509106257   -0.2593588961    2.9707995593
 H   -1.0073433917    1.3191738940    2.3898120185
 H   -2.6449065870    1.1313578031    3.0178620679
 H   -3.0125104300   -1.4812866276   -0.9890708601
 H   -1.3661474504   -1.5676201642   -1.7685834179
 H   -2.0591656117   -2.3476764091    1.1726590170
 H    0.5774638252   -2.5503188069   -0.4575528536