12

 N    0.1358305793    1.2599758360    0.1398533197
 C   -0.0088356695   -0.0798034233    0.0515614087
 N   -1.1306166919   -0.7607684806    0.0209519375
 C   -0.7162337424   -2.0702648241   -0.0090354045
 C    0.6415365273   -2.1114670264    0.0006255466
 O    1.1161691381   -0.8202369658    0.0398214033
 N    1.5733526057   -3.1737227049   -0.0295753901
 O    1.0934304257   -4.3070975709   -0.0609871517
 O    2.7681585387   -2.8942618899   -0.0232461469
 H    1.0255904483    1.6563910705   -0.1149032833
 H   -0.6856557659    1.8060485013   -0.0617467112
 H   -1.4014879033   -2.9011668920   -0.0391142580