23

 C   -0.7963607219    1.5708269623   -0.9520306575
 C   -0.9539383438    0.0795561218   -1.1956291944
 O   -1.3310556211   -0.5317089386    0.0254092248
 C   -1.4899524170   -1.9419426436   -0.0461941460
 C   -1.6288930042   -2.4571738537    1.3945992920
 C   -0.3936082971   -2.1690982372    2.2495926789
 C   -2.6406470302   -2.3311593761   -0.8738186168
 C   -3.5929876443   -2.6522863098   -1.5381182571
 C   -4.7435806883   -3.0418783040   -2.3407009921
 H   -0.4990938254    2.0777000218   -1.8751175102
 H   -1.7391896890    2.0041556570   -0.6063051484
 H   -0.0338000289    1.7596520501   -0.1908262632
 H   -1.7152460603   -0.1109811100   -1.9664710966
 H   -0.0073061547   -0.3571227939   -1.5571915393
 H   -0.5777174630   -2.3817191943   -0.4892524711
 H   -2.5167809562   -1.9884988430    1.8326331398
 H   -1.8257099405   -3.5335764529    1.3498253927
 H   -0.1925205946   -1.0960968347    2.2874436020
 H   -0.5356921208   -2.5303087224    3.2725703405
 H    0.4948832620   -2.6650068048    1.8420542705
 H   -5.2082701816   -3.9537050586   -1.9494902495
 H   -5.5082442526   -2.2573142703   -2.3428308360
 H   -4.4609828465   -3.2336235948   -3.3817052031