21

 C   -0.0757417518   -1.2008310771   -0.0932977394
 C   -0.0476989371    0.0005958522   -0.1223871396
 C    0.0207706780    1.4565006053   -0.1510116880
 C    1.4427609323    1.9999478869    0.0954360926
 C    1.5001043956    3.5292102693    0.0619706817
 C    2.9107255773    4.0822478047    0.3052880120
 C    2.9530804199    5.5899422971    0.2637245525
 C    4.0876994620    6.3355412166   -0.2930792513
 O    2.8725135514    6.1951515514   -1.0314843534
 H   -0.1137163885   -2.2615354275   -0.0710246668
 H   -0.3452846396    1.8205349082   -1.1201489040
 H   -0.6630922526    1.8686277171    0.6029718580
 H    1.8011594255    1.6314295425    1.0641273555
 H    2.1178518579    1.5833111543   -0.6613798531
 H    1.1420247952    3.8943998877   -0.9087580615
 H    0.8138600349    3.9378684722    0.8168869349
 H    3.2808391708    3.7436844284    1.2827252336
 H    3.5998477553    3.6881952306   -0.4512685754
 H    2.3426532284    6.0939392735    1.0167608959
 H    4.3067938215    7.3415124688    0.0626984007
 H    4.9422448437    5.7899302179   -0.6921424349