18

 C   -0.1750283466    1.6009308941   -0.0268622450
 C    0.0047391323    0.0837154277   -0.0058855565
 C   -1.3466258772   -0.6321161937   -0.1539941500
 N    0.8813796889   -0.3403362470   -1.1192172469
 C    1.7348498163   -1.1532901744   -0.6422032898
 N    1.6434297803   -1.4616157567    0.7119856177
 C    0.7396029937   -0.4643862182    1.2972840858
 C    1.4802712828    0.5460925770    2.0660039315
 N    2.0823059193    1.3143974335    2.6856775605
 H    0.7868840650    2.1149420485    0.0327282118
 H   -0.6599262880    1.8916740548   -0.9622143783
 H   -0.7993068221    1.9377040332    0.8069324210
 H   -1.7860349168   -0.3896446824   -1.1245970222
 H   -1.2220807098   -1.7178265886   -0.0989616837
 H   -2.0418278250   -0.3191100489    0.6322102407
 H    2.4925761167   -1.6546512557   -1.2376539472
 H    2.4867307774   -1.6943160847    1.2174442231
 H    0.0191901627   -0.9343801483    1.9735905875