19

 C   -0.3863957506    1.5354727379   -0.2184504195
 C   -0.0385804189    0.0653579676   -0.0606534589
 C    1.1226187964   -0.6314902666   -0.8160395740
 C    2.3843930838    0.1793766086   -0.4547027250
 C    2.1596130211    0.2150975386    1.1021218101
 C    2.1900518022    1.5164448383    1.7458955259
 C    2.2270556241    2.5786194157    2.3096186333
 C    0.7910463898   -0.5371378047    1.1039894932
 O    1.1137524904   -1.6561830481    0.2296076745
 H    0.4778169613    2.1931138310   -0.1150694993
 H   -0.8360028282    1.7109756091   -1.2022018768
 H   -1.1191361963    1.8394984932    0.5363599023
 H   -0.9278756169   -0.5598313290   -0.1760993512
 H    1.0275528148   -1.0240959578   -1.8287120911
 H    3.2973937027   -0.3544489953   -0.7230986121
 H    2.4099950345    1.1729911273   -0.9064677899
 H    2.8876638249   -0.4366132870    1.5944696911
 H    2.2562656945    3.5184252317    2.8029867933
 H    0.3703752304   -0.8176049404    2.0693907743