17

 N   -0.1281276346   -1.1638202114   -0.2492968539
 C   -0.0700274014   -0.0155126820   -0.1331622043
 C    0.0021381511    1.4373396013    0.0268790688
 C   -0.7336910177    1.8655503606    1.3211851229
 N   -0.6328524809    3.3155998888    1.5378848142
 C    0.2090113607    3.7493259229    2.6570915458
 C    0.6731809216    3.9241040789    1.2509691731
 C    1.7368718431    3.0808667832    0.6545048437
 C    1.4403621210    1.9307813387    0.0537746279
 H   -0.5179039528    1.8824389494   -0.8335106023
 H   -1.7935772769    1.6025738092    1.2498093825
 H   -0.3063945100    1.2930247559    2.1539057464
 H   -0.1603417564    4.6011670124    3.2216445328
 H    0.6954312614    2.9777252824    3.2505330852
 H    0.5978185338    4.9247090893    0.8244420878
 H    2.7563743389    3.4561909209    0.6708390800
 H    2.1978460888    1.3188739295   -0.4230088107