20

 O    1.0737888398   -0.7570816980    0.4242434332
 C    0.2641786523    0.0589848352   -0.4109828062
 C   -1.1840111814   -0.4415693145   -0.4227506389
 C   -2.1498180335   -0.0120577722    0.7557367460
 C   -2.8348692902    0.8523935601   -0.3187501552
 C   -3.9991727972    1.1968154212   -1.2939316040
 C   -2.6094515372    1.3540062306   -2.0539043160
 C   -2.0984603091    2.1391562881   -0.8404560078
 N   -2.2666480668    0.0023275511   -1.4155746168
 H    1.0797802394   -1.6452853988    0.0522657214
 H    0.3613654156    1.0633219980    0.0058788160
 H    0.6434337773    0.0890439422   -1.4450329937
 H   -1.1177351522   -1.5304733584   -0.5353640361
 H   -2.7542694390   -0.8463761609    1.1166137923
 H   -1.7015756416    0.5159612829    1.6000471381
 H   -4.6050011963    0.3470650033   -1.6070851541
 H   -4.5750717709    2.1129423146   -1.1416288193
 H   -2.4710858819    1.5622434781   -3.1179108242
 H   -2.5694077023    3.1046699232   -0.6321595505
 H   -1.0206707747    2.1992505141   -0.7118249542