16

 C    0.1396246423    1.4110559420   -0.0825481819
 O    0.0310930993   -0.0101427602   -0.0538161233
 C    0.5819774025   -0.6821888934   -1.0712345389
 C    0.6246968950   -2.0251501192   -1.2890257155
 C    1.3379159824   -2.1719834435   -2.5289762683
 O    1.6363633783   -3.3340583497   -3.1662255752
 C    1.6797518582   -0.9354910746   -2.9825886009
 N    2.3608229707   -0.4988618678   -4.1046792098
 O    1.1924755946    0.0089225641   -2.0449072793
 H    1.1871463413    1.7292136560   -0.0725678441
 H   -0.3491884248    1.8284296951   -0.9688166149
 H   -0.3633643540    1.7629601833    0.8186085747
 H    0.2097025636   -2.7951252519   -0.6594052018
 H    1.2877190626   -4.0631203904   -2.6457894046
 H    3.2300184232   -0.0170121257   -3.9019206304
 H    1.8047344746    0.0714980059   -4.7325768858