19

 O    0.2540886034    0.2905909729   -0.7701967901
 C    0.0321612703    1.2780451129   -0.1475777064
 C   -1.1788222292    2.1228930641    0.2504126922
 C   -0.1298794666    2.9902244943    0.9746439399
 O    0.9338879343    2.0766302891    0.5075331193
 C    0.0893765295    4.4022536459    0.5001607652
 C   -0.9006234110    5.4987523323    0.9937478724
 C    0.3064836562    6.4652652568    1.1386992011
 C    1.2494732965    5.2318829279    1.1207690601
 H   -1.6913352538    2.5959060849   -0.5896405761
 H   -1.9043320107    1.6017455838    0.8767449570
 H   -0.1806809285    2.9405619423    2.0670888688
 H    0.1577557257    4.4072040207   -0.5935160148
 H   -1.7146469374    5.7854661012    0.3242050845
 H   -1.3287304217    5.2398073483    1.9680773913
 H    0.4344806774    7.0873929976    0.2486226989
 H    0.3325779710    7.1112319331    2.0186490800
 H    1.4863360747    4.8870939712    2.1324744062
 H    2.1787087898    5.2993736807    0.5523292806