23

 C   -0.2286034559    1.5431735620   -0.0100652197
 C    0.0221285355    0.0272876834    0.0007236004
 C    0.8415932813   -0.4826406062   -1.1858165751
 C    2.2815791935   -0.0512695117   -1.3187655695
 C    1.9416498342   -1.3623957970   -0.6359516133
 C    1.8147558249   -1.2861231581    0.8544372524
 C    2.7870167056   -2.0173547066    1.7281213205
 C    0.7924941743   -0.4918518194    1.2146772230
 C    0.3647289324   -0.1113508911    2.5988010301
 H    0.7132486954    2.1009802567    0.0060139603
 H   -0.7764450963    1.8368750310   -0.9113271528
 H   -0.8216576430    1.8577284086    0.8547603720
 H   -0.9649144955   -0.4629161652   -0.0172792359
 H    0.3174134238   -0.7507646896   -2.0960417775
 H    2.7107440120   -0.0951736174   -2.3148970914
 H    2.6598106792    0.7556433944   -0.6993269423
 H    2.2392105710   -2.2954971938   -1.1043294411
 H    3.8142108386   -1.6761194846    1.5449135844
 H    2.5763583667   -1.8919018349    2.7927994015
 H    2.7756803144   -3.0931883870    1.5096786966
 H    0.9447509617   -0.6252209531    3.3690716968
 H    0.4673594361    0.9672312762    2.7742218138
 H   -0.6946222998   -0.3510272966    2.7627135067