17

 O    0.1805730368    1.2810025389    0.2401100302
 C    0.0462327456   -0.0921916141   -0.0289412335
 C   -1.4344767287   -0.5159936901   -0.0671498236
 O   -2.0607787595   -0.1412051381    1.1688772879
 C   -1.9289069384   -1.0790128900    2.2142039551
 C   -2.8368200081   -0.6387155538    3.3526716171
 O   -2.8132252245   -1.1353850848    4.4460522054
 C   -2.1664720248    0.1240343228   -1.1559528866
 C   -2.7495220236    0.6279539615   -2.0764555786
 H   -0.4393945556    1.4810338015    0.9522570166
 H    0.5094628618   -0.2900598977   -1.0001630547
 H    0.5653428399   -0.7110256265    0.7221893216
 H   -1.4903233224   -1.6095258289   -0.1875113383
 H   -2.2477012716   -2.0845594868    1.8918308348
 H   -0.9003191894   -1.1680325025    2.5926233405
 H   -3.5363381717    0.1791878056    3.0743149235
 H   -3.2667615758    1.0810364828   -2.8861267374