22

 C   -0.0122120120    1.6321178930   -0.4108875019
 N    0.0581104484    0.2241579685   -0.0609455872
 C    1.2651675709   -0.5788934830   -0.1824358463
 C    2.6365468611    0.0842289045   -0.2746725608
 C    2.7858492016    0.9768687891    0.9879297496
 C    1.6485776066    0.5680950637    1.9371335062
 C    1.9308241404    0.2001397133    3.3748885542
 C    1.1876401860    1.4723588830    3.0545704327
 C    0.6720661785   -0.2791347290    1.1606335682
 H    0.8694242540    2.2378006708   -0.1623795408
 H   -0.1847431734    1.7142486497   -1.4892375367
 H   -0.8747196483    2.0751815307    0.0974874814
 H    1.1331975724   -1.5342277701   -0.6861080474
 H    3.3971470906   -0.7037120765   -0.2886320956
 H    2.7626844616    0.6564824822   -1.2004563368
 H    3.7654742089    0.8418502518    1.4572695729
 H    2.7137099362    2.0374030352    0.7264057806
 H    1.3746470686   -0.6218813289    3.8147960685
 H    2.9555246987    0.2802700374    3.7232498375
 H    1.7071494230    2.4158681520    3.1900996739
 H    0.1263540644    1.5141853834    3.2772300264
 H    0.0693843719   -0.9922485807    1.7204562014