19

 C    0.1431801930    1.4227696815   -0.0471944327
 O   -0.2183916712    0.0784646106   -0.3127845124
 C    0.6322063373   -0.5900005780   -1.2179478420
 C    2.0101421237   -0.7106022645   -0.6802692450
 N    3.0944503100   -0.7524636753   -0.2838304146
 C    0.0261821252   -1.9534760362   -1.4940995865
 N   -0.0844195536   -2.7325252460   -0.2882788231
 C   -0.9833868288   -2.0339882494   -2.6230130651
 C    0.3977668714   -2.6376495431   -2.7750716752
 H    1.1297945321    1.4918291545    0.4289070780
 H    0.1514335128    2.0230110409   -0.9692613239
 H   -0.6127801649    1.8217540561    0.6315537123
 H    0.7053079245   -0.0254651321   -2.1618821134
 H   -0.7847408200   -2.3249446527    0.3234259664
 H   -0.3627156169   -3.6853785616   -0.4922268620
 H   -1.8197217977   -2.7100346660   -2.4825216232
 H   -1.2208197164   -1.1402837032   -3.1906095295
 H    1.1054757198   -2.1535022750   -3.4397081044
 H    0.4956565096   -3.7178862905   -2.7475729137