16

 C    0.0250537843   -1.2376245045   -0.0885950439
 C    0.0143630226   -0.0365488779   -0.0339721861
 C    0.0106184796    1.4098741093    0.0630845265
 C   -0.2191671089    2.0678452226    1.4776838139
 C    1.1343444578    2.7725725724    1.3685101033
 C    2.2360349984    1.7799534111    1.1791803524
 C    1.3822136626    2.1354531260   -0.0162261099
 C    1.9116162115    2.7197992778   -1.2022926285
 N    2.3219742772    3.1983464642   -2.1736453175
 H    0.0306970473   -2.2977656121   -0.1534743324
 H   -0.6819524648    1.8374513236   -0.6658825175
 H   -1.0705993945    2.7493152152    1.4672789217
 H   -0.3242830778    1.3708080357    2.3120897765
 H    1.3334627628    3.7980299837    1.6514051405
 H    3.2401408789    2.1881185825    1.1548624339
 H    2.1589744529    0.7766607705    1.5893042171