21

 C   -0.4045620449    1.2453046506    0.1178011659
 C    0.0421725223   -0.2129481670    0.2369672515
 C    1.0185737509   -0.4858147267    1.4017316142
 C    0.3185214097   -0.4629054849    2.8112934522
 C    0.2558256457   -2.0046069879    2.8043530658
 O   -1.0581914322   -2.4200118490    2.4691014157
 C    1.2577902974   -2.0246392059    1.6176992202
 C    2.2287200723    0.3116494664    1.2895203808
 C    3.2394381173    0.9595015085    1.2033050126
 H    0.4507280063    1.9072535009   -0.0459192296
 H   -1.0965338937    1.3688914157   -0.7208328945
 H   -0.9204393596    1.5831585558    1.0229717445
 H   -0.8264924179   -0.8638967876    0.3801405407
 H    0.5290374288   -0.5273741436   -0.6946880329
 H    0.9707103520   -0.0693707588    3.5922907054
 H   -0.6523699796    0.0338245064    2.8614036725
 H    0.5979263539   -2.5029216327    3.7204669548
 H   -1.0316268061   -3.3643326236    2.2821515364
 H    0.9920675705   -2.6680951398    0.7738510179
 H    2.2803991482   -2.2434314368    1.9321513162
 H    4.1297545688    1.5330757501    1.1280377498