18

 C   -0.0540589875    1.5190873828    0.0206634145
 C    0.0139467070   -0.0022121330   -0.0582394260
 C    0.8108487412   -0.5252310183   -1.2526807408
 O    0.5580407019   -1.9566873722   -1.3688757795
 C    1.6686059297   -2.1863678571   -0.4857214564
 C    1.3978981859   -1.8268640678    1.0000187428
 C    2.1643412077   -0.5372678997    0.8546214701
 C    2.2489121810   -0.7724545960   -0.6776916850
 N    0.7375096102   -0.5178604758    1.1310382232
 H    0.9483238676    1.9605191051   -0.0130741737
 H   -0.6318499936    1.9249672933   -0.8153788140
 H   -0.5263457266    1.8303433086    0.9559963146
 H   -0.9901156548   -0.4366514575   -0.0758730456
 H    0.6651355991   -0.0046047943   -2.2021173139
 H    2.2077862939   -3.1170826685   -0.6708483413
 H    1.3074187948   -2.5139844881    1.8339288774
 H    2.8729275314   -0.0433035113    1.5075383108
 H    3.1348614810   -0.5539106703   -1.2656438874