13

 O    0.5857462305    0.0312951339    0.0771034865
 C    0.6583741323    1.1935019669    0.3252916834
 O    0.5691847555    2.1331778363   -0.6530605420
 C    0.7966121714    3.4938344831   -0.3948759756
 C    1.2996051727    3.9838458224    0.9964290714
 O    2.6168436113    3.3571307266    0.6968162757
 C    2.2603446050    3.9794003860   -0.6092296847
 C    1.9018437472    5.2114610665    0.2541076632
 O    2.1107366750    6.3691870939    0.3816351469
 H    0.7713381481    1.6187297066    1.3333362604
 H    0.0008747403    4.0713314345   -0.8718947353
 H    0.8897908456    3.8744737372    1.9970067505
 H    2.9286150552    3.8204384860   -1.4510612606