23

 C   -0.5004945077    1.4892023473   -0.4569287733
 C   -0.2398041406   -0.0011138632   -0.2237861367
 C   -1.5189286506   -0.7937094604    0.0608456672
 C   -1.2707206410   -2.2864234272    0.2783076457
 C   -2.5575966423   -3.1180465329    0.4892306067
 C   -2.8012883483   -3.7591890039   -0.8789215594
 O   -3.5354102012   -2.8266142620   -1.6640115729
 C   -1.3638240149   -3.9479355044   -1.3704893731
 O   -0.6322512193   -2.8351144540   -0.8911522836
 H    0.4293323489    2.0310759489   -0.6574999440
 H   -1.1674983800    1.6450162387   -1.3122566506
 H   -0.9735531859    1.9528412956    0.4164901910
 H    0.2545234792   -0.4366433961   -1.0984830134
 H    0.4581627644   -0.1243960704    0.6159062954
 H   -2.0111342519   -0.3926853502    0.9579607502
 H   -2.2277074146   -0.6863521905   -0.7685077290
 H   -0.5846016321   -2.4185414941    1.1277606311
 H   -2.4013506525   -3.8981852332    1.2395852686
 H   -3.4110497602   -2.5105232498    0.7962294902
 H   -3.3377343942   -4.7158860026   -0.8075102591
 H   -3.5210815433   -3.1250567698   -2.5788759928
 H   -0.9543014319   -4.8951734316   -0.9799593273
 H   -1.2862093001   -3.9738650745   -2.4645167110