22

 C    0.0460013171    1.5686639396    0.0323228173
 C   -0.0033649807    0.0339642265    0.0509209706
 C    0.8616971765   -0.5073341557    1.1995155609
 C   -1.4717761902   -0.5289926139    0.0478100059
 C   -1.4605444280   -2.0771379601    0.0136005304
 C   -2.2901179644   -0.0583972315    1.2736099256
 C   -2.1432538498   -0.0635702661   -1.1735645094
 C   -2.6988101555    0.2958544136   -2.1782355353
 H    1.0719799460    1.9102301154   -0.1385389435
 H   -0.5844779156    1.9798775638   -0.7599842332
 H   -0.2821956688    1.9946463816    0.9866941384
 H    0.4401116846   -0.3189735734   -0.8895605235
 H    0.4719978858   -0.2091588635    2.1786473139
 H    0.9457053316   -1.5968137646    1.1856594844
 H    1.8751930505   -0.1008791596    1.1194666479
 H   -1.0825272330   -2.4867631168    0.9541572915
 H   -2.4735830684   -2.4592486999   -0.1381610224
 H   -0.8344183679   -2.4472112017   -0.8038007789
 H   -2.3855285454    1.0291997938    1.3008017988
 H   -3.2985023108   -0.4797717126    1.2352427212
 H   -1.8212426771   -0.3904177391    2.2045895638
 H   -3.1893982465    0.6167558942   -3.0636311546