19

 C   -0.0273370365    1.6415956284   -0.0837009311
 C   -0.0178314196    0.1260656425   -0.0219483229
 C   -1.2917997012   -0.5360108604   -0.5335856278
 O   -1.5482879361   -0.2717756562   -1.9024332267
 C    1.2539974041   -0.6105698588   -0.2300412166
 O    2.3953090482    0.1491515161   -0.4781855181
 C    0.6255404442   -0.6088642388    1.1753231652
 C    1.2687927109    0.1214507692    2.2869932448
 O    1.1965655205   -0.2248489674    3.4440284616
 H    0.9425986300    2.0722737833    0.1630699527
 H   -0.2647867688    1.9630868541   -1.1036835210
 H   -0.7808525754    2.0592130668    0.5928728205
 H   -1.2015750451   -1.6242118535   -0.4513254739
 H   -2.1386097771   -0.2318753657    0.1010940014
 H   -1.8862248141    0.6249505040   -1.9803147901
 H    1.2073507376   -1.5591245242   -0.7647566142
 H    3.1636031786   -0.3467444651   -0.1758864692
 H    0.1360962406   -1.5230929154    1.4982874937
 H    1.8502987392    1.0213187812    1.9993790518