19

 C    0.0980340670    1.5142058817   -0.0580284118
 C   -0.0184555430    0.0189688286    0.0131848771
 C   -1.1903617185   -0.6486895336    0.0419134517
 C   -2.5516960102    0.0032976896    0.0637419257
 C   -1.1626461979   -2.1294464705   -0.0262791109
 O   -2.1680420686   -2.8101338040   -0.0990026590
 C    0.2142158425   -2.7846856630   -0.0843281699
 O    1.2157345318   -2.0244509534    0.5558857152
 C    1.2993191979   -0.7171443677    0.0436321242
 H    0.8473140676    1.8084238183   -0.8033976984
 H   -0.8462335384    1.9968676109   -0.3122502290
 H    0.4416729709    1.9197353549    0.9029069957
 H   -2.7638959407    0.5329394265   -0.8721857105
 H   -3.3141024072   -0.7669154709    0.1889187051
 H   -2.6437578685    0.7264154595    0.8795936380
 H    0.1655367231   -3.7546090927    0.4145886590
 H    0.4636793877   -2.9625864254   -1.1471254914
 H    1.7340305634   -0.7189741568   -0.9761650103
 H    2.0084316612   -0.1800240819    0.6842570293