16

 N   -0.0765177918    1.2642992942    0.0606185340
 C   -0.1084155770    0.0373827294   -0.2180218678
 O   -1.0139611809   -0.7569801082    0.4231056598
 C   -0.9556989282   -2.1107164411    0.1769899857
 C   -0.4060159914   -3.2316723551    1.1331507731
 C   -0.9728707427   -4.0230350027   -0.0929967820
 C   -2.1926359095   -3.0385480715   -0.0475589029
 C   -0.2950472763   -2.9424189239   -0.9457542042
 O    0.3783221312   -2.8075552803   -1.9207122890
 H    0.6321631864    1.7280466211   -0.5045375609
 H    0.5061831788   -0.5016135104   -0.9449797829
 H    0.6696442729   -3.2694106493    1.3114918876
 H   -0.9851861253   -3.3500550114    2.0506645210
 H   -0.9925231761   -5.0971567216   -0.2357460470
 H   -2.8276207525   -3.1523293853    0.8329038337
 H   -2.7705423778   -2.8997293239   -0.9622573881