16

 N   -0.4430001246   -1.1278773095   -0.5039063376
 C   -0.2494785917   -0.0145873010   -0.2606564131
 C   -0.0157677393    1.4018684152    0.0213995729
 N   -0.1582930132    1.8163431318    1.4447615514
 C    1.1160891842    2.5839335840    1.3855731040
 C    2.3547350876    1.8359151302    1.9217790889
 C    2.2500212006    0.3893337157    1.6944981592
 N    2.6332630488    1.2271051500    0.5355328045
 C    1.4383826649    1.9848968786    0.0122349314
 H   -0.6363533825    1.9842661252   -0.6726149829
 H   -0.9904746614    2.3587937742    1.6401847691
 H    1.0600574248    3.6553029372    1.5785316124
 H    3.1515511938    2.2957912366    2.4972250394
 H    3.0828564335   -0.2251195081    2.0214874597
 H    1.2823786947   -0.0966055430    1.7389100089
 H    1.7156713397    2.5625639930   -0.8670452482