18

 C   -0.0437762101    1.5297002872   -0.0081282364
 C   -0.0323644223    0.0302609207    0.0190524516
 C    0.3765388175   -0.8037306572   -1.2090643406
 O    1.7655139343   -1.0782722869   -1.3323790487
 C   -0.5927641199   -1.8426146097   -0.6841392869
 C   -0.5534392951   -1.8201955096    0.8049201019
 C    0.4575463906   -0.7742023007    1.2542163248
 O    1.8085536902   -1.0594203795    1.4517410028
 N   -1.3717189786   -0.7914131386    0.0684477102
 H    0.9836769552    1.9097892194   -0.0220012465
 H   -0.5632225794    1.9090695765   -0.8939078626
 H   -0.5437050309    1.9309863450    0.8786858241
 H   -0.0139516921   -0.3474142068   -2.1276694037
 H    1.9027244078   -1.6683845007   -2.0804633713
 H   -1.1037051261   -2.6211892264   -1.2394375528
 H   -1.0333713461   -2.5920202867    1.3958906250
 H    0.0914035421   -0.2914865789    2.1659912854
 H    2.1648293129   -1.3279442471    0.5929796436