21

 C   -0.1460271521    1.5795126047   -0.0547904976
 C    0.0328043603    0.0636178899   -0.0094366067
 C    0.9411124653   -0.5328184130   -1.0814073924
 C    2.3563167316   -0.6035750178   -0.4908278559
 C    2.2777158976   -0.0610920331    0.9281093365
 C    0.8248627915   -0.5272318061    1.1984990428
 C    0.2538173622   -0.3746521896    2.5851096245
 O    0.8961827897   -1.9274823287    0.8359329872
 C    1.4464872551   -1.8097942952   -0.4619480693
 H    0.8110219098    2.1075559519   -0.0953087925
 H   -0.7135319619    1.8700366370   -0.9449996210
 H   -0.6996976445    1.9430153032    0.8177887153
 H   -0.9512172656   -0.4209348924   -0.0329539828
 H    0.7578627751   -0.4236319290   -2.1423985571
 H    3.2459531677   -0.5559335669   -1.1041333545
 H    2.9806590889   -0.5529338453    1.6073961231
 H    2.4046677679    1.0211808869    1.0044234988
 H    0.1991939743    0.6810162752    2.8666714220
 H   -0.7537886590   -0.7981164573    2.6355066132
 H    0.8788512729   -0.8930067324    3.3180085441
 H    1.6125283431   -2.7474960320   -0.9729773078