13

 N    0.0792797710    1.3831722305    0.1591296602
 C    0.0136394920   -0.0029211012    0.0445742646
 C   -1.0699316521   -0.8271636086    0.0216216522
 O   -0.6670747391   -2.1408479786   -0.0262040878
 C    0.6747701664   -2.1488531302   -0.0334870374
 C    1.1722832757   -0.8742334032    0.0056522957
 C    2.5184206658   -0.4514951822   -0.0015625342
 C    3.6494959644   -0.0351873010   -0.0170151130
 H    0.9518860711    1.7595958509   -0.1877985856
 H   -0.7071803264    1.8716149307   -0.2453122201
 H   -2.1327827653   -0.6603500372    0.0389890927
 H    1.1552983145   -3.1121212620   -0.0735894305
 H    4.6534392920    0.3099750422   -0.0195150867