18

 C   -0.1744731840    1.6396586190    0.0009474313
 N   -0.0112732701    0.1923286103    0.0512101183
 C    1.2111690165   -0.4911078834   -0.3291474962
 C    2.5131602056    0.2119676222   -0.6415590763
 O    2.9483334235    1.2137729770    0.2887872629
 C    2.6192358420    1.2164950628    1.6030041147
 O    3.1302595203    2.0274495319    2.3254365152
 C    1.6094009352    0.1985170179    2.1094429626
 C    0.7443978100   -0.5044601895    1.0844806513
 H    0.7208995167    2.2372734180    0.2100891578
 H   -0.5278197657    1.9081743654   -0.9996880334
 H   -0.9553378488    1.9245165431    0.7125847924
 H    1.0671262340   -1.3659631458   -0.9637062770
 H    3.3045847487   -0.5448529250   -0.7243436425
 H    2.4571294598    0.7313190116   -1.6041161069
 H    2.1868021137   -0.5628691715    2.6502560128
 H    1.0134416767    0.7110474771    2.8710968122
 H    0.2374559359   -1.3856124511    1.4752315707