21

 C   -0.0033174371    1.5211503037   -0.1256621095
 C   -0.1983342985    0.0183463086   -0.2196308515
 O    0.8625073114   -0.5139695377   -1.0081321203
 C    0.8156417611   -1.8993663000   -1.1804680417
 C   -0.1217801903   -2.4443147886   -2.2529385706
 C    1.3654108802   -2.4068454141   -2.5003085334
 C    1.9673038434   -1.4462218701   -3.5004542090
 C    1.0382831705   -2.6816301645    0.0112724663
 C    1.2221511580   -3.3250600809    1.0113107161
 H    0.9571596013    1.7551151174    0.3419774435
 H   -0.0202455414    1.9772950493   -1.1198270138
 H   -0.8005509840    1.9691743735    0.4750444362
 H   -0.1867634225   -0.4415000284    0.7783884271
 H   -1.1662370679   -0.2251873638   -0.6839108326
 H   -0.6110395497   -3.3953993554   -2.0785843102
 H   -0.7249002517   -1.6987923132   -2.7612207569
 H    1.8727615845   -3.3639225790   -2.4229617749
 H    1.4622117646   -0.4791377363   -3.4677965529
 H    3.0285276239   -1.2758524507   -3.2921194691
 H    1.8830814709   -1.8492271789   -4.5154659000
 H    1.3920189733   -3.8943305110    1.8913983674