20

 C   -0.2098119671    1.4598268012    0.0393323203
 C    0.0358825749   -0.0538975930   -0.0230249029
 C    0.7385424942   -0.4431070666   -1.3308480994
 C    0.8274433990   -0.5354995659    1.1937042814
 C    0.1528960425   -0.4149042779    2.5996234020
 C    0.5795260390   -1.8655845078    2.8693653759
 O    0.6518608881   -2.5394996804    3.8553811652
 C    0.9816523033   -2.0778681495    1.4022336242
 H    0.7386766464    2.0096909654    0.0162041721
 H   -0.8086934127    1.7969157992   -0.8128844380
 H   -0.7385723924    1.7464201961    0.9539056270
 H   -0.9423571750   -0.5586088922    0.0008517121
 H    1.7211719582    0.0382513178   -1.4033023605
 H    0.8916174370   -1.5246612537   -1.4013902000
 H    0.1520293082   -0.1308347375   -2.2009341087
 H    1.8111049655   -0.0522069450    1.2033253284
 H    0.5231635559    0.3376043375    3.3000974834
 H   -0.9389220117   -0.3275806171    2.5414721137
 H    0.2224262813   -2.6579255363    0.8635465450
 H    1.9568651153   -2.5392422242    1.2286689085