20

 C    0.1698347688    0.9123745062    0.9082094551
 C   -0.0238339411    0.1423899143   -0.3809177170
 O    0.7813103549    0.1710024929   -1.2842775608
 C   -1.3049399438   -0.6931643976   -0.4580109238
 C   -1.5410911736   -1.4618744514   -1.7949270783
 C   -1.5948816066   -2.8798098009   -1.1949086110
 C   -2.4325638537   -2.6295183757    0.0837704555
 N   -1.2518714800   -1.8010823872    0.5632263480
 C   -0.4112742007   -2.8189568593   -0.2006771188
 H    1.1625966918    1.3628216405    0.9330937384
 H   -0.5890148634    1.7006625591    0.9839546943
 H    0.0193311805    0.2436123909    1.7607137434
 H   -2.1452750394   -0.0424538290   -0.1910070150
 H   -2.4731328712   -1.1728116468   -2.2876053135
 H   -0.7117474430   -1.3180815663   -2.4900870703
 H   -1.7662586901   -3.7168029647   -1.8735705584
 H   -3.3785608850   -2.0843477418    0.0073361099
 H   -2.5507402891   -3.5072199320    0.7235121905
 H   -0.2891076321   -3.7168676989    0.4083799296
 H    0.5589255968   -2.4582829724   -0.5503336978