22

 C   -0.0504974779    1.6184317803    0.0245737855
 C    0.0198674825    0.0970291578    0.1957352251
 C   -1.3369666831   -0.5686875039    0.0224144695
 N   -2.0124341032   -0.4258952934   -1.3319739083
 C   -1.2362025189   -1.2194275780   -2.3076291922
 C   -2.1328456930   -1.9408561932   -1.3848635564
 C   -1.4769997156   -2.1003381449   -0.0354735360
 C   -0.5430897107   -3.1828242713    0.4264765352
 C   -1.8997409065   -3.0099610560    1.0741782158
 H    0.9361606661    2.0764380340    0.1421044672
 H   -0.4333893391    1.8803796643   -0.9660318802
 H   -0.7198615571    2.0682645432    0.7660138452
 H    0.7457168437   -0.3258876351   -0.5083599824
 H    0.3956540606   -0.1497481589    1.1978997480
 H   -2.0368420984   -0.1484909831    0.7542024825
 H   -1.5752646553   -1.0581682425   -3.3266102034
 H   -0.1597328532   -1.3226539287   -2.2004580456
 H   -3.0509445504   -2.4261843800   -1.7028417194
 H   -0.3884899348   -4.0389974094   -0.2226211036
 H    0.3336533299   -2.8923581379    0.9965562368
 H   -1.9408406060   -2.6044152966    2.0806853750
 H   -2.6633155095   -3.7524613769    0.8637703415