18

 N   -0.0024840442   -1.1422336141    0.0287743155
 C    0.0187989906    0.0138524887    0.0574467581
 C    0.0188925949    1.4595679568    0.0327295589
 C   -1.1935108776    2.0974737207   -0.6857348259
 N   -0.8877879912    3.1888141553   -1.6001124877
 C    0.0794437003    4.1339934263   -1.0512299963
 C    1.4464894210    3.4958930940   -0.7417225277
 C    1.3317941444    2.1954218281    0.0285565735
 N    0.5552240592    2.0911547131    1.2628078474
 H   -1.7285080723    1.3218497530   -1.2384609479
 H   -1.8860074059    2.4671315213    0.0834485249
 H   -0.5317458493    2.8117496954   -2.4732978261
 H    0.2104434729    4.9598297135   -1.7568225751
 H   -0.3579361362    4.5723650892   -0.1434980839
 H    1.9659370658    3.2855272540   -1.6855422494
 H    2.0831148140    4.1957980403   -0.1857058711
 H    2.2367225904    1.5926835468    0.0503853993
 H    0.0348720032    2.9489929775    1.4411845735