21

 O   -0.1021022808    1.4817198903    0.0145333724
 C    0.0018120409    0.0704735019    0.1321518126
 C   -1.3826884753   -0.5209195266   -0.1121315801
 C   -1.4091703760   -2.0335591255   -0.0463371879
 C   -1.0095274127   -2.8537325542    1.2394295385
 C   -1.7781739197   -3.9856987557    0.4795832588
 C   -2.7517744845   -2.8510181021    0.0121460184
 C   -0.9002017466   -4.1228945192   -0.7729826604
 C   -0.6593537902   -2.8559723078   -1.1168774079
 H    0.7647941640    1.8619091736    0.1830823007
 H    0.7198229558   -0.3381422695   -0.5972588333
 H    0.3578514839   -0.2208983141    1.1333843746
 H   -2.0721875359   -0.0994042522    0.6288011186
 H   -1.7358699887   -0.1830644754   -1.0947107525
 H    0.0550146348   -3.0112758355    1.4298685570
 H   -1.5215517431   -2.5092127385    2.1446705645
 H   -2.1290407533   -4.8892502396    0.9767977085
 H   -3.4301696934   -2.5038448306    0.7993425349
 H   -3.2892366511   -3.0026114041   -0.9272667261
 H   -0.5838369760   -5.0452364786   -1.2392920092
 H   -0.0945863022   -2.4522379265   -1.9460453721