15

 O    0.0487202405    1.3866816607    0.2331098267
 C    0.0920725490    0.0057832238   -0.0838507039
 C   -1.2935099418   -0.5664444678   -0.2019492451
 O   -1.9547915197   -0.8769141949    1.0526811345
 C   -1.6992262048   -1.9387849153    0.1132753340
 C   -2.9093385519   -2.2436113276   -0.7753352184
 O   -3.4707038838   -3.3057264098   -0.8763491802
 C   -3.1967894666   -0.9779629614   -1.5146960186
 C   -2.2793991390   -0.0490208792   -1.2184149908
 H   -0.3680472067    1.4686095832    1.0983678679
 H    0.6139976636   -0.0698110518   -1.0434467501
 H    0.6576340293   -0.5721532521    0.6600208167
 H   -1.0395739267   -2.7347746669    0.4442407460
 H   -4.0502908394   -0.8745240471   -2.1719670715
 H   -2.2298042821    0.9629840861   -1.6003978471