18

 C   -0.2997607487    1.6204878243    0.0097187054
 C    0.0246979275    0.1310790664    0.0549337242
 O    1.2213741508   -0.1859050205   -0.6874795379
 C    1.7781985610   -0.9407562788    0.4190277437
 C    0.6264710662   -0.5144406002    1.3487427392
 C    1.0122178450    0.4127207646    2.4872103231
 O    1.7147132199   -0.3898735451    3.4224939829
 C   -1.1239404060   -0.6438652690   -0.4592018064
 N   -2.0273390874   -1.2512793723   -0.8474265540
 H    0.5475297072    2.2039337181    0.3741156262
 H   -0.5018441821    1.9151662078   -1.0234600021
 H   -1.1847102132    1.8468930217    0.6113774189
 H    1.8273807992   -2.0111763226    0.1940487854
 H    2.7735476895   -0.5792899362    0.6955275021
 H    0.0344042645   -1.3382572255    1.7492386867
 H    1.6446471298    1.2334682047    2.1160610241
 H    0.1106143189    0.8610280453    2.9333472153
 H    2.0239655479    0.1743509673    4.1372817234