19

 C   -0.2529519718    1.4448184045   -0.1255041182
 N   -0.3455950674    0.0036978237   -0.3190063302
 C    0.5634347013   -0.5903230474   -0.9398912321
 O    1.7170848834   -0.1035906919   -1.5457714464
 C    2.0211120373   -1.4040522434   -2.1388975134
 C    2.9985533775   -2.2053135635   -1.2643795557
 C    1.7915162706   -2.7893193765   -0.4662914241
 C    0.7880115946   -2.0242220564   -1.3861109126
 N   -0.2641438950   -2.8069524014   -1.9606529960
 H    0.5374381057    1.9226210290   -0.7162801312
 H   -1.2142853917    1.9023208193   -0.3815630682
 H   -0.0701764692    1.6578877048    0.9342391330
 H    2.1422337136   -1.3348024429   -3.2193579959
 H    3.5506984586   -2.9657828484   -1.8211359914
 H    3.7050046960   -1.5877034885   -0.7069963098
 H    1.6867087898   -3.8693222225   -0.5920438895
 H    1.7312976188   -2.5459558674    0.5958275359
 H   -0.6728297866   -3.4120453511   -1.2553348680
 H   -1.0122329154   -2.2095652102   -2.2999035164