16

 C   -0.4091674429   -1.1727510698   -0.6545878189
 C   -0.2263338650   -0.0372110374   -0.3038848069
 C   -0.0027355456    1.3385231060    0.1051755936
 O   -0.0253871226    1.5434071549    1.5453972578
 C    1.2482732870    2.2269195392    1.5205390570
 C    2.4336186971    1.2969366555    1.8581668805
 C    2.5819094737    0.9581286102    0.3391995837
 C    1.4258749163    1.9368964981    0.0042813414
 H   -0.5780930138   -2.1757078200   -0.9610898193
 H   -0.7517063201    1.9859742022   -0.3718115107
 H    1.1914230236    3.2163156829    1.9813389816
 H    3.2975197802    1.8230599166    2.2735537767
 H    2.1659854849    0.4707042420    2.5196970353
 H    3.5392164343    1.2691024011   -0.0840530390
 H    2.3989117211   -0.0806148391    0.0560587059
 H    1.5852508720    2.6874732875   -0.7680451889