21

 C    0.0374190504    1.5618166438   -0.3861230869
 C    0.0201874496    0.1055708594    0.0964328687
 C   -1.3658783829   -0.2848844900    0.6057123944
 C    0.5723250302   -0.8652833051   -0.9692922263
 C    2.0828623419   -0.8776689841   -0.6968665314
 C    2.1268948194   -0.6976784075    0.8255047467
 O    0.9419324577   -0.0115147996    1.2106714846
 C    2.1851313042   -2.0215335681    1.5873831475
 O    2.7574246080   -3.0083530787    1.2034579240
 H    1.0187227323    1.8361713422   -0.7850331771
 H   -0.7081263118    1.7219559076   -1.1718544417
 H   -0.1879948366    2.2340651368    0.4464713880
 H   -2.1030392959   -0.2329024308   -0.2019533581
 H   -1.3559436731   -1.3045608643    1.0011557276
 H   -1.6866124834    0.3893470635    1.4053213582
 H    0.1533704179   -1.8657298999   -0.8157276134
 H    0.3207828250   -0.5507966534   -1.9847654985
 H    2.5758583682   -1.8054479791   -0.9928491580
 H    2.5845755755   -0.0454196250   -1.1970987077
 H    3.0009469458   -0.1110086812    1.1478982461
 H    1.6365541278   -1.9911700663    2.5552077033