17

 O    0.4028565216    1.3460278878   -0.4317258999
 C   -0.0638613751    0.1473165310    0.0939327548
 C    0.0631148440   -0.0341281137    1.6432340751
 C   -1.4147218401   -0.5466863408    1.7025340910
 C   -1.6146850966    0.0095590081    0.2531079097
 C   -1.5532718647   -1.9861358998    1.8245232297
 C   -1.6563887148   -3.1817497349    1.9113815061
 C    0.5350001189   -1.0168702127   -0.6654426742
 O    1.3008482962   -0.8412731720   -1.5841210574
 H    0.9991494925    1.1017116341   -1.1591402290
 H    0.8381852456   -0.7012340382    2.0250407987
 H    0.1676740423    0.9507620635    2.1018261987
 H   -2.0295563817   -0.0541982654    2.4600762971
 H   -2.0540810428    1.0086180181    0.2610123929
 H   -2.1540047691   -0.6233101278   -0.4541054453
 H   -1.7590057758   -4.2349095822    2.0020283005
 H    0.2350607197   -2.0295608452   -0.3354334887