21

 C   -0.0361720850    1.6104573995   -0.0518223519
 C    0.0948677554    0.0937559048   -0.0168922579
 C    0.7191750639   -0.6724721205   -1.1756629718
 C    2.2710454057   -0.7745622719   -1.0668558863
 C    3.0029982384    0.1505927512   -0.1590800751
 C    2.3920071856    0.1785226002    1.0318222813
 C    1.1300984257   -0.6420850477    0.9517662145
 C    1.3749257089   -1.6515303381   -0.2303153773
 C    1.3667227437   -3.1481680187   -0.1698195906
 H    0.9243127629    2.0956400942   -0.2409570109
 H   -0.7267589436    1.9109181754   -0.8482373416
 H   -0.4340512367    1.9973105682    0.8936443327
 H   -0.8842422013   -0.3553582472    0.1829986736
 H    0.2496248184   -0.8649804183   -2.1348649692
 H    2.7504301333   -1.1980764135   -1.9431636901
 H    3.8742694119    0.7226790724   -0.4544337815
 H    2.6517244424    0.8091576766    1.8733798260
 H    0.7179704359   -1.0100587518    1.8915501194
 H    0.4244001564   -3.5290079211    0.2417896769
 H    1.4883751689   -3.5782239530   -1.1699011045
 H    2.1812846191   -3.5277091608    0.4583927644