14

 N   -0.0407023389    1.3694976296    0.1203090211
 C    0.0221820331    0.0068796603    0.0469919723
 N   -1.1558630759   -0.6379879725    0.0394562033
 C   -1.1428996428   -1.9641970437    0.0129153681
 C    0.0253212674   -2.7360498095   -0.0142236321
 C    1.2529021574   -2.0494015046   -0.0112991005
 C    1.2584570541   -0.6735313065    0.0204019529
 C   -0.0371480211   -4.1578584270   -0.0471704674
 N   -0.0887479508   -5.3152080955   -0.0743660485
 H    0.7624781277    1.9154241414   -0.1405418090
 H   -0.9447252293    1.7788549458   -0.0536519100
 H   -2.1117663428   -2.4565165336    0.0086664260
 H    2.1828648331   -2.6059314683   -0.0337725617
 H    2.1902853788   -0.1192020859    0.0288835655