19

 C   -0.0116350891    1.6997812663    0.1887397828
 C    0.2343549612    0.2041086513   -0.0714224048
 C    0.6544334956   -0.5459849397    1.1573493987
 N    1.9126341124   -0.9615676449    1.3025459252
 N    1.9376614143   -1.5573422897    2.5116805670
 C    0.7347516861   -1.5535387384    3.1393277381
 C    0.5703023017   -2.1641918389    4.4970199147
 O    1.3687526823   -3.3312583355    4.6621617663
 C   -0.1297612494   -0.8998635089    2.2848856612
 H    0.8966130123    2.1826319645    0.5618399565
 H   -0.3176993702    2.2105399509   -0.7297585491
 H   -0.7986475808    1.8485092504    0.9351656798
 H   -0.6781548837   -0.2461131685   -0.4814443460
 H    1.0169490913    0.0830318734   -0.8265031593
 H    2.7783817442   -2.0023906620    2.8399965027
 H    0.9125471455   -1.4757665179    5.2787121948
 H   -0.4948888763   -2.3586884399    4.6841342590
 H    1.0636028670   -3.9842739089    4.0227225040
 H   -1.1783792243   -0.7071904335    2.4499491683