16

 C    0.0276125986    1.4335592835    0.0363313778
 N    0.0080889546   -0.0195686113    0.0140375903
 C    0.0165767793   -0.8239177732   -1.0855356868
 C    0.0413350387   -0.2966161014   -2.4791066806
 N    0.0001810237   -2.1072497880   -0.7553431892
 C   -0.0187459102   -2.1433313725    0.6041507663
 C   -0.0141457959   -0.8635174747    1.1203784125
 C   -0.0293414700   -0.3869378311    2.4450557290
 N   -0.0419676955    0.0250130608    3.5294783999
 H    0.9524519901    1.8160924887   -0.4053299159
 H   -0.8240536316    1.8378159265   -0.5176936372
 H   -0.0333440823    1.7725054486    1.0708357468
 H    0.9336546460    0.3107904564   -2.6695439883
 H    0.0422408042   -1.1416761010   -3.1676982007
 H   -0.8329249462    0.3286682133   -2.6941533377
 H   -0.0355776235   -3.0698341346    1.1570549439