13

 C   -0.0507061673    1.5552970580   -0.0071296685
 C    0.0489014021    0.0286817815   -0.0201894502
 N    0.8329641767   -0.4790291135   -1.1582325969
 C    1.7667541623   -1.1870160684   -0.6539047689
 N    1.7800561101   -1.2803996439    0.7341840020
 C    0.7290412253   -0.5229096318    1.2455415643
 O    0.4576381460   -0.3574344812    2.4086008718
 H    0.9453067393    2.0070686481    0.0087948190
 H   -0.5727399553    1.9059939928   -0.9000939960
 H   -0.5947246675    1.8802506347    0.8834420164
 H   -0.9614609896   -0.3969687996   -0.0759130272
 H    2.5252447333   -1.7045388670   -1.2327650186
 H    2.4543854746   -1.7689415897    1.3007148727