13

 C    0.0615353941   -3.7362790374   -0.0308821614
 C    0.0337469885   -2.5294251195   -0.0146386656
 C    0.0033674034   -1.1709896855    0.0038306759
 C   -0.0183902181    0.0391551071    0.0282814815
 C   -0.0290742371    1.4739692472    0.0405090722
 C    0.5318800779    2.1877334939    1.2485788010
 N    1.2640468022    2.2153125760   -0.0068679231
 C   -1.1088045103    2.1003898342   -0.6995329959
 N   -1.9848754819    2.5952080939   -1.2670357255
 H    0.0830791633   -4.7982318848   -0.0472692472
 H    0.0796186974    3.1309289818    1.5382551009
 H    0.8739581118    1.5541046187    2.0611684539
 H    2.0214826088    1.5354243843   -0.0015626066