19

 O    0.2933299243   -0.5457713640    1.5893599268
 C    0.0264148979   -0.4867849258    0.1810055208
 C   -1.4562451394   -0.6219969603   -0.1257553960
 C   -1.8544249359   -0.7911841892   -1.5700593974
 C   -1.9947745301   -1.9447047393   -0.6096620376
 C   -2.3711807053    0.1646032706    0.8162961847
 O   -2.5196649481   -0.4958300216    2.0651702222
 C   -1.8919167819    1.5478632167    0.9963165636
 C   -1.4622023486    2.6600159348    1.1608642546
 H    0.3022323089    0.3635323681    1.9082299278
 H    0.4100692428    0.4559507565   -0.2267204960
 H    0.5834650960   -1.3048090821   -0.2886574712
 H   -2.7533703687   -0.2918880777   -1.9157384244
 H   -1.0616973189   -0.8312839563   -2.3107579515
 H   -1.2992446510   -2.7728834169   -0.6964495479
 H   -2.9896101808   -2.2312014785   -0.2873810247
 H   -3.3771240460    0.2039571440    0.3810154550
 H   -1.6234446380   -0.7572068610    2.3238358806
 H   -1.1190859671    3.6548784821    1.3064409906