23

 C   -0.0133524557    1.5201152691    0.0574873837
 C    0.0252633528    0.0009380722   -0.0117971337
 C    0.7564258942   -0.5297959427   -1.2550274322
 C    0.8812931564   -2.0436588659   -1.1967448931
 C   -0.1993710144   -2.8847395287   -1.8382447536
 C    1.1801660916   -2.8120297121   -2.4541831851
 C    1.4712623737   -2.5041544280    0.1256073173
 C    0.6988278477   -1.8657459923    1.2844871831
 O    0.6688105624   -0.4531907507    1.1758163488
 H    1.0027159130    1.9266611009    0.0782370719
 H   -0.5350296683    1.9325293351   -0.8115501855
 H   -0.5306080417    1.8473342492    0.9633763853
 H   -1.0076434069   -0.3917541047   -0.0251358321
 H    0.2243267581   -0.2172990345   -2.1612201745
 H    1.7558331275   -0.0744245152   -1.2893461707
 H   -0.4917186669   -3.8093652929   -1.3509904214
 H   -1.0130080829   -2.3800001387   -2.3491466810
 H    1.2967735509   -2.2553346585   -3.3786854966
 H    1.8178955683   -3.6872868962   -2.3806994983
 H    1.4417845380   -3.5965927555    0.2118397496
 H    2.5236088727   -2.1977023962    0.1906809866
 H   -0.3296832289   -2.2654255186    1.3093173404
 H    1.1704868885   -2.0878243452    2.2465025114