18

 O   -0.0021317844    1.4739041649   -0.0274399869
 C    0.0119249758    0.0742869708    0.0141443238
 C    0.6614269579   -0.5162502262   -1.2512045564
 C   -0.0856392642   -0.0934437432   -2.5189256491
 C    0.6109483789   -0.6098203300   -3.7930065575
 C   -0.1024012743   -0.2368933920   -5.0126261272
 N   -0.6800400621    0.0624323343   -5.9675405340
 C    0.7346128342   -0.4098000785    1.2556248120
 O    1.2140631734    0.3607720746    2.0510702079
 H    0.4586193371    1.7662229919    0.7752236665
 H   -1.0207419967   -0.3181557773    0.0831012790
 H    1.7021627507   -0.1711622250   -1.2976123908
 H    0.6829192792   -1.6113968829   -1.1707270363
 H   -1.1135523848   -0.4724588358   -2.4909228525
 H   -0.1495409602    0.9972871199   -2.5517178781
 H    1.6319278077   -0.2147552899   -3.8534076084
 H    0.6994495552   -1.7026176629   -3.7659120995
 H    0.8011218066   -1.5085931428    1.3920720875