16

 C   -0.0780280214    1.5519381073    0.0298757964
 C    0.1258981750    0.0650416853    0.0040752303
 O   -0.7227686630   -0.7362698135    0.8559998319
 C    0.6961686866   -0.7864377998    1.0606586933
 C    1.3575469688   -1.9640929910    0.3608230626
 N    1.0713876405   -1.8168448851   -1.0732562118
 C    0.4513623264   -0.7105056768   -1.2540373012
 N    0.1465225555   -0.1963898882   -2.4923172980
 H    0.7729184601    2.0698475706   -0.4227986228
 H   -0.9793901034    1.8372126598   -0.5252079351
 H   -0.2002417933    1.8992023341    1.0583936349
 H    1.0474508599   -0.3973634331    2.0129898794
 H    2.4420346355   -1.9628195556    0.5328797990
 H    0.9725342885   -2.9237230635    0.7253866226
 H    0.2665777631   -0.8553568202   -3.2494090290
 H   -0.7021779589    0.3452497696   -2.5576184626