15

 C   -0.0800609204    1.6032497055    0.0181208844
 C    0.0252012502    0.0999052248    0.0364875597
 O   -1.1036871380   -0.6024893572   -0.4063942306
 C    1.3229138481   -0.6563554860   -0.2213325227
 O    2.5347246620    0.0481696262   -0.0570619732
 C    2.6777459246    0.4222358818    1.2491150289
 O    3.5953989317    1.0366921817    1.6831134974
 O    1.5942532841    0.0167824555    1.9756346384
 C    0.6946381491   -0.6800949803    1.1438613383
 H    0.8070999909    2.0918562439    0.4244440564
 H   -0.2124824042    1.9599037207   -1.0095948571
 H   -0.9465019635    1.9172459447    0.6069036484
 H   -1.2011742729   -0.4477214872   -1.3535794945
 H    1.3825197263   -1.4910757242   -0.9077704706
 H    0.2144709819   -1.5282244798    1.6134037067