20

 C   -0.0199552918    1.7137022506    0.3711243745
 C    0.0430309766    0.2030859065    0.1092869610
 C    0.7410044083   -0.5327592886    1.2599167563
 C   -1.3553934668   -0.3837022272   -0.1323222554
 C   -1.9851488592    0.0580102698   -1.4520420404
 O   -1.3822768491    0.5977903472   -2.3430200973
 N   -3.3538771111   -0.2610161521   -1.5337371611
 C   -4.2263973885   -0.0476587089   -2.5981685431
 O   -3.9633781705    0.4582003115   -3.6526377498
 H    0.9850131304    2.1237684571    0.5119315324
 H   -0.4826905737    2.2405589538   -0.4666182505
 H   -0.5953978352    1.9310415967    1.2797847524
 H    0.6176457677    0.0445982273   -0.8103126592
 H    0.1872246449   -0.4165939219    2.1996496930
 H    0.8323834817   -1.6054272517    1.0572705087
 H    1.7481461491   -0.1356786435    1.4207596152
 H   -1.3073125025   -1.4820736884   -0.1545146433
 H   -2.0284051535   -0.1292116399    0.6986301803
 H   -3.7614362081   -0.7072229008   -0.7246828000
 H   -5.2387338386   -0.4201317875   -2.3357971537