23

 C    0.4659430678    1.6626497976    0.4319617268
 C    0.0151532865    0.2115371682    0.2214247066
 C    0.7025134688   -0.4272755030   -0.9685861192
 C    2.0715157612   -1.0954673173   -0.9107985538
 C    2.4940669306   -1.6329849279    0.4152919611
 C    1.7028260708   -2.6271334074    0.8255181756
 C    0.6461157124   -2.9873417488   -0.2051893635
 C   -0.7773815305   -3.1597158878    0.3480146989
 C    0.8306256278   -1.9038641128   -1.2771412876
 H    1.5417833674    1.7129532878    0.6302381835
 H    0.2647188351    2.2744058003   -0.4547389970
 H   -0.0546089944    2.1217953177    1.2783447476
 H    0.2130981509   -0.3639289248    1.1297454902
 H   -1.0713056865    0.1861976483    0.0662194320
 H    0.5722899149    0.1603899846   -1.8771264290
 H    2.8235745281   -0.8104858786   -1.6393447514
 H    3.3292723581   -1.2256079454    0.9748753090
 H    1.7769847598   -3.1399492570    1.7790674071
 H    0.9259293170   -3.9517810722   -0.6582383035
 H   -1.1375217075   -2.2526458981    0.8391416805
 H   -1.4775578466   -3.4072168197   -0.4563866468
 H   -0.8121410046   -3.9745181551    1.0795299995
 H    0.6532363331   -2.1963615985   -2.3064367767