14

 O   -0.1106230009    1.3781307780   -0.0039891079
 C   -0.0076206079   -0.0113255863   -0.0196332822
 C   -0.4539530279   -0.7216153551    1.2352862078
 O   -0.8699997010    0.1149495548    2.2793688637
 C   -1.3598860240   -0.7465223756    0.0007634127
 O   -2.4848000124    0.0700515092   -0.0037591209
 C   -1.4834414902   -1.9939577973   -0.6989753156
 C   -1.5511404960   -3.0474392843   -1.2756845239
 H   -0.3285067769    1.6159243276    0.9116871537
 H    0.8028857215   -0.3851643076   -0.6356865456
 H    0.0159927074   -1.6571217316    1.5259263392
 H   -0.1596361627    0.1450428788    2.9298302905
 H   -2.1815625317    0.9372247785   -0.3129290983
 H   -1.6279191972   -3.9736205391   -1.7892655832