15

 O   -0.0525293886    1.3713248319   -0.0271710674
 C    0.0412360247    0.0021130556   -0.0341840496
 C    0.6093312936   -0.9507920616   -1.1172160123
 C    0.0170939862   -1.8787704389   -0.0322673750
 C    0.5847502867   -0.9586151223    1.0784543394
 O   -0.3003013793   -0.9447609590    2.2006938255
 C   -1.5437692642   -0.9121570802    1.6048971442
 O   -2.5751247184   -0.8987577933    2.2032842902
 C   -1.2174723599   -0.9137439505    0.1271823575
 H    0.8307889300    1.7504707362   -0.0961933863
 H    0.0964833275   -0.9453271305   -2.0806079269
 H    1.6965659308   -0.9718799801   -1.2425925707
 H   -0.0183962712   -2.9647482598   -0.0218536286
 H    1.6249057721   -0.9846610472    1.3963279945
 H   -2.0305814802   -0.8966912402   -0.5932596046