18

 C   -0.4512994554    1.3751004133    0.0810041806
 C    0.1291502103   -0.0001639158   -0.0750856523
 N   -0.5695755382   -1.2074127140    0.4786400569
 C    0.7542913586   -0.8279128301    1.0014574640
 C    1.8638788659   -1.6955523321    0.4213640902
 C    1.5638850412   -1.7305030365   -1.0974145842
 O    0.7169755550   -2.8008752392   -1.4770211081
 C    0.8491141351   -0.3769897406   -1.3496323088
 O    0.9064159110    0.2982742923   -2.3445741964
 H    0.3099709600    2.1371269409   -0.1091996304
 H   -1.2606596672    1.5366730698   -0.6376638838
 H   -0.8457348250    1.5272083055    1.0908679591
 H   -1.3011775559   -0.8853934741    1.1088950110
 H    0.8238625627   -0.4458010177    2.0151434127
 H    2.8358215364   -1.2269871888    0.6131403354
 H    1.8775607885   -2.7059728906    0.8396501212
 H    2.4627682600   -1.8032004039   -1.7118790663
 H   -0.0776518630   -2.7054952481   -0.9288196808