19

 C    0.0362206770    1.4665890602    0.0041248024
 C    0.0192136612    0.0106224745    0.0209514856
 C    0.0194151182   -1.1932473228    0.0351179380
 C   -0.0176551272   -2.6504342604    0.0507511320
 C   -1.4484376896   -3.1932545636   -0.0133869584
 O   -1.3697365751   -4.6033321740    0.0077947010
 C   -2.6415518990   -5.2179077981   -0.0477857939
 C   -2.4971402828   -6.6675470658   -0.0225690217
 C   -2.4071494544   -7.8646742111   -0.0031331676
 H    0.9887952588    1.8483538271   -0.3797566170
 H   -0.7602739035    1.8675871873   -0.6325349776
 H   -0.1043573364    1.8798969950    1.0090667651
 H    0.5463381899   -3.0608385445   -0.7955219591
 H    0.4596335986   -3.0397103333    0.9581436042
 H   -2.0338804412   -2.8197405398    0.8420236540
 H   -1.9461682401   -2.8415323825   -0.9312945231
 H   -3.2653410212   -4.8927937761    0.8028005883
 H   -3.1775422910   -4.9147512400   -0.9638215983
 H   -2.3203097321   -8.9229079920    0.0143783458