21

 C   -0.0132400867    1.5495880889    0.1469825292
 C    1.2845332384    0.7992384954   -0.0198426666
 C   -0.0476817201    0.0521888203   -0.0293304441
 C   -0.5122328279   -0.6395510940   -1.2807603048
 C   -1.0014921662    0.0785099417   -2.5136889527
 C    0.3474935244   -0.5954544222   -2.5425706397
 C    1.6586104167    0.1396789675   -2.5331511722
 C    1.7872924659    1.6419832018   -2.4933035158
 C    2.1307466370    0.8422968392   -1.2614560424
 H   -0.2455298558    1.9510979947    1.1275747359
 H   -0.3588474922    2.1750838325   -0.6683388761
 H    1.8718105077    0.6837049539    0.8852587556
 H   -0.2651915234   -0.5149227984    0.8698452951
 H   -0.9894988964   -1.5933482119   -1.0809419149
 H   -1.8081012401   -0.3755246712   -3.0793403673
 H   -1.0394675215    1.1619871423   -2.5019243918
 H    0.3896666515   -1.5226458632   -3.1047359468
 H    2.4338025090   -0.3766370353   -3.0898681681
 H    2.6019117264    2.0967049736   -3.0468143477
 H    0.8830427823    2.2400733003   -2.4876705246
 H    3.1911490811    0.7504455740   -1.0503621902