23

 C    0.0669428130    1.4811263525    0.0695043495
 C    0.0100749123    0.0258292813    0.0516036619
 C   -0.0237771489   -1.1783081674    0.0375830143
 C   -0.0932522453   -2.6357413906    0.0302089352
 C   -1.5256915970   -3.1978379340   -0.1612939081
 C   -2.1188864637   -2.7846031443   -1.5133291708
 C   -1.5198415440   -4.7066057930    0.0025484873
 C   -1.5533100843   -5.3357306410    1.3724697642
 C   -2.7566868873   -5.4320116237    0.4652900251
 H    0.7203858932    1.8453430239    0.8702995700
 H    0.4518059168    1.8786928748   -0.8763806981
 H   -0.9251212350    1.9178011935    0.2307014060
 H    0.5512135800   -3.0322732714   -0.7674820900
 H    0.3148143331   -3.0279382262    0.9703080856
 H   -2.1510795925   -2.7730658521    0.6356275747
 H   -3.1459510794   -3.1477054685   -1.6153415150
 H   -2.1212973763   -1.6969297359   -1.6248259693
 H   -1.5331728744   -3.2057165247   -2.3396488073
 H   -0.9193481970   -5.2273252065   -0.7415711189
 H   -0.9673133276   -6.2308687427    1.5495614572
 H   -1.6219604745   -4.6750526217    2.2311958177
 H   -3.6271316739   -4.8345944408    0.7181645590
 H   -2.9937536272   -6.3924823616    0.0211627100