16

 C   -0.0218036492    1.6097900886   -0.0315727450
 C    0.0766506528    0.1146836451   -0.0310410612
 C    0.6920075085   -0.8830321928   -0.9919282686
 N    1.2660731066   -1.6291858060    0.1256624866
 C    0.6547472213   -0.7740805701    1.0722279212
 O    0.6423129321   -0.7823300627    2.2675947861
 C   -0.8179343819   -0.8045288732   -0.9035921401
 C   -1.6201705013   -1.8732893872   -0.3827786570
 C   -2.2820556741   -2.7792975989    0.0503034130
 H    0.9379563874    2.0653058965    0.2321138876
 H   -0.3210687033    1.9901459310   -1.0129695669
 H   -0.7636442545    1.9451877493    0.7002063573
 H    1.2568504236   -0.7054052118   -1.8980142114
 H    1.1922427208   -2.6384378567    0.2008001073
 H   -1.2760625357   -0.2463865683   -1.7190576412
 H   -2.8735478629   -3.5697534831    0.4416288823