22

 C    0.1126235897    1.4388394491   -0.2846320598
 C    0.0292526074   -0.0305832026    0.1546964095
 C    0.6759272594   -0.2417702883    1.5327141514
 C   -1.4053386893   -0.5644675922    0.1065960554
 C   -2.4237557288    0.1038706334    1.0142737648
 C   -1.9115144637   -1.0602818393   -1.2405784937
 C   -1.5912688467   -2.0393168464   -0.1355237480
 O   -0.4448872843   -2.8390841977   -0.2223160750
 H    1.1566069559    1.7635464416   -0.3460850158
 H   -0.3453242700    1.5885819778   -1.2680041510
 H   -0.3931431060    2.1030819321    0.4247842881
 H    0.6054622647   -0.6274582957   -0.5597613606
 H    0.6434611332   -1.2968483522    1.8178863616
 H    1.7247448026    0.0735132193    1.5165828914
 H    0.1742228136    0.3418847159    2.3124105930
 H   -2.5660340795    1.1578668490    0.7523835792
 H   -3.3996816162   -0.3849546713    0.9310712329
 H   -2.1219301465    0.0567156861    2.0658270627
 H   -2.9497133849   -0.8948695235   -1.5110620713
 H   -1.2152196980   -1.0244535893   -2.0729546854
 H   -2.4312343656   -2.5187839959    0.3690585566
 H   -0.5844901071   -3.4836115997   -0.9235171763