20

 C   -0.0525684828    1.6061253737   -0.2250955670
 C   -0.0598863241    0.0791736712   -0.3263934005
 C   -1.3271675882   -0.5439420625    0.2757433022
 C   -1.3599917327   -2.0500906563    0.1519045197
 C   -2.6076596398   -2.7655925852   -0.1776151531
 O   -1.5899325218   -2.5885627005   -1.1654801523
 C   -0.3243030615   -2.8006299047    0.9769971389
 N    0.1040708830   -3.9576665442    0.4061291432
 O    0.0437164647   -2.3875031198    2.0606534090
 H    0.8598852460    2.0277784113   -0.6576721955
 H   -0.9054718845    2.0443937399   -0.7556179227
 H   -0.1084065778    1.9330079267    0.8190276348
 H    0.0214376509   -0.2251106462   -1.3769171689
 H    0.8169951294   -0.3267504520    0.1910231840
 H   -1.3924455766   -0.2968735571    1.3405477977
 H   -2.2149545969   -0.1325190679   -0.2178462668
 H   -2.7510906449   -3.7883825394    0.1656897356
 H   -3.5176358303   -2.1899238506   -0.3386953537
 H   -0.1171403454   -4.1359929493   -0.5598872571
 H    0.8400399433   -4.4714665372    0.8611231725