23

 C   -0.1409035209    1.5382886908    0.0927452320
 C    0.0187388959    0.0252064147    0.0251634554
 C    0.7638258093   -0.5919382871   -1.2148672989
 C    0.4979711300   -0.1340721872   -2.6294097594
 C    2.0975355808   -0.2717822880   -0.4706555816
 C    1.2257070220   -0.5938673697    0.7838878487
 O    1.5069177990   -0.1092846562    2.0612928576
 C    0.9685789256   -2.1041236217    0.6093199759
 C    0.6171733409   -2.1032256202   -0.9119433786
 H    0.7744613886    2.0823374890   -0.1544453707
 H   -0.9227808424    1.8746143931   -0.5968832188
 H   -0.4343163659    1.8396929819    1.1031974751
 H   -0.9458352760   -0.4456099737    0.2543586437
 H    0.6048611312    0.9508729448   -2.7302665955
 H    1.1964327530   -0.6032578294   -3.3322829014
 H   -0.5172905337   -0.4006210494   -2.9471526212
 H    2.9625189603   -0.9111377683   -0.6780563072
 H    2.3885340494    0.7770493972   -0.5281879613
 H    2.2416237196   -0.6150740615    2.4247405830
 H    1.8557636202   -2.7044123960    0.8407902103
 H    0.1483707130   -2.4502016666    1.2448512972
 H   -0.3975487465   -2.4631436166   -1.1105361083
 H    1.3088660165   -2.7082272299   -1.5070278859