18

 O    0.1666254211    1.4773203040   -0.0025139886
 C    0.1537543393    0.0591412713    0.0751368424
 C   -1.2664233048   -0.4774916243    0.1383483253
 C   -2.1554354296   -0.6562379146   -1.1436014624
 C   -1.3109495320   -1.9119294508   -1.5253883430
 C   -1.6022649285   -1.9980662073    0.0034347470
 N   -3.0164269338   -1.5468904607   -0.2874199508
 C   -4.0440653759   -2.3272673976   -0.7574623176
 O   -4.7886566208   -2.0230050776   -1.6630001859
 H   -0.2339741580    1.7327115951   -0.8396635007
 H    0.7400454589   -0.3876659150   -0.7392697557
 H    0.6688168357   -0.1870433262    1.0103440441
 H   -1.8081842153    0.0039593424    0.9556834863
 H   -2.5975255661    0.0964489933   -1.7937440128
 H   -1.8211016559   -2.6446493165   -2.1519428058
 H   -0.2780369748   -1.7626181244   -1.8425785427
 H   -1.3913705427   -2.8072213162    0.7032059570
 H   -4.1796144968   -3.2398944750   -0.1407934962