15

 O   -0.0013891134    0.3478591696   -0.9257801163
 C   -0.0071086200    1.3148488723   -0.2124905362
 C   -1.2508013458    2.0197087515    0.3279613657
 C   -0.7742318097    3.3853817629    0.8131212622
 O   -1.4572607951    4.2979331654    1.1943141015
 C    0.7476078679    3.4179838254    0.7244483084
 C    1.4175270680    4.7044810333    0.4495568995
 O    1.4295046849    4.1341606818    1.7505348799
 C    1.2421474449    2.0513088455    0.2901313870
 H   -2.0564933674    2.0793712874   -0.4077823666
 H   -1.6445121245    1.4551807466    1.1843614008
 H    2.3672427283    4.6912380570   -0.0836011826
 H    0.8076370024    5.5991419925    0.3410786623
 H    1.6387067293    1.5048333278    1.1559927534
 H    2.0203875904    2.0591875310   -0.4758634489