22

 C    0.0809026497    1.4875304155   -0.0036831368
 C   -0.0152483226   -0.0067814188   -0.0217494035
 C   -0.1281447703   -0.7755876700   -1.1110856812
 C   -0.0809767131   -2.2210027858   -0.7612761297
 N    1.2207522760   -2.6048782319   -0.1316012099
 C    0.0555347485   -2.2776148647    0.7158277300
 C    0.0361590481   -0.8447669818    1.2674789909
 C    1.2822379614   -0.5415179853    2.1168339733
 C   -1.2440331775   -0.6352558139    2.0995720364
 H    1.0554034497    1.8220771367    0.3732906959
 H   -0.0472329051    1.9019127473   -1.0073686892
 H   -0.6775049752    1.9381867834    0.6481273276
 H   -0.1889648998   -0.4074637290   -2.1292939929
 H   -0.6170019449   -2.9678951584   -1.3372476601
 H    1.3091197777   -3.6199327612   -0.1635405634
 H   -0.3943853027   -3.0688407310    1.3084567274
 H    2.1901050931   -0.7416339193    1.5432652611
 H    1.2957833300    0.5021299488    2.4481116324
 H    1.2971669443   -1.1709291771    3.0136638666
 H   -1.2339909282   -1.2762996645    2.9888346119
 H   -1.3319333203    0.4005154954    2.4421897088
 H   -2.1379362191   -0.8759016744    1.5153627445