18

 N    0.3070260222    1.3176671443   -0.0632567349
 C    0.2083431261   -0.0718580359   -0.1004630099
 O    1.1801028484   -0.7921233466   -0.2333628203
 N   -1.0789237105   -0.5392185327    0.0532066141
 C   -1.3663635256   -1.9424218675    0.1988130350
 C   -1.9225697460   -2.4911563123    1.5438649059
 C   -2.8069569506   -3.4632949065    0.7160378262
 C   -2.6134976518   -2.5317544239   -0.5119867572
 H    1.2031583851    1.6387648281   -0.3981974055
 H   -0.4713630336    1.8471592945   -0.4279979272
 H   -1.7776328095    0.1093549620    0.3817588608
 H   -0.4564022652   -2.4705152194   -0.0888928377
 H   -1.2094598313   -2.9067619300    2.2592691430
 H   -2.5323648593   -1.7367358522    2.0538963189
 H   -2.3186110280   -4.4306614689    0.5713514066
 H   -3.8274153417   -3.6371182659    1.0621583358
 H   -3.4158590628   -1.7884024475   -0.5760702838
 H   -2.4748980660   -2.9813562194   -1.4980308699