15

 C   -0.0240708257    1.4949709003   -0.0345071418
 C   -0.0001417677   -0.0067219910   -0.0056281066
 N   -0.0460719382   -0.6352404679   -1.1426931801
 N   -0.0240720430   -1.9837254687   -1.1068003299
 C    0.0429205989   -2.8242771093    0.0099779032
 N    0.0608937145   -4.1087661984   -0.0160606956
 C    0.0922232791   -2.0741805358    1.2542324574
 C    0.0715441883   -0.7259822045    1.2450886093
 H    0.8750160205    1.9131460668    0.4331861039
 H   -0.0796890328    1.8480227906   -1.0652158953
 H   -0.8854288748    1.8867453444    0.5191496726
 H   -0.0622827642   -2.4076879609   -2.0218969467
 H    0.0197441515   -4.4679961052   -0.9717068052
 H    0.1453118587   -2.6585727806    2.1646184535
 H    0.1081871949   -0.1617460097    2.1716047611