20

 C   -0.0584972369    1.5647230983    0.0878132411
 C    0.0123723920    0.0287067670    0.0430450384
 C    0.7022029083   -0.5162010770    1.3081540205
 C   -1.4046927761   -0.5511232804   -0.0736657578
 N    0.7311921043   -0.3992087999   -1.1762751597
 C    2.0527963098   -0.1155573007   -1.4265988518
 N    2.5652273622   -0.7914741160   -2.5358387000
 O    2.7430157455    0.6308048960   -0.7532940094
 H    0.9443667224    1.9902864759    0.1282290184
 H   -0.5675799464    1.9508769204   -0.8008707805
 H   -0.6173989164    1.8874937648    0.9719538524
 H    0.1540677647   -0.2084853929    2.2047099549
 H    0.7347926936   -1.6109271329    1.2894910080
 H    1.7238108000   -0.1386355463    1.3736037073
 H   -1.9041907702   -0.1888088243   -0.9781168713
 H   -1.3849174491   -1.6473000499   -0.1037371328
 H   -2.0061932740   -0.2552047280    0.7899029041
 H    0.3708101728   -1.2335845445   -1.6132159288
 H    1.9314101499   -0.9653308640   -3.3023836814
 H    3.4502075237   -0.4048819057   -2.8293787615