18

 C   -0.0500059668    1.4433288584    0.1254515755
 O    0.0050729531    0.0535319600   -0.1589695609
 C   -1.2391181765   -0.6017620043   -0.0562184933
 C   -1.1968147223   -1.9865383291   -0.6382764032
 C   -1.5955429376   -2.8733812417    0.2810219848
 C   -1.7568799561   -4.3514494541    0.1888058231
 N   -1.9156009018   -2.2219420949    1.4943966345
 C   -1.6594478673   -0.8678145894    1.4221804944
 O   -1.7362860162   -0.0740629880    2.3311786747
 H    0.9574239295    1.8336271196   -0.0371009644
 H   -0.7462789502    1.9583626805   -0.5554411457
 H   -0.3591417504    1.6356859422    1.1575581045
 H   -2.0299980001    0.0133403781   -0.5234302991
 H   -0.9150649149   -2.2105900438   -1.6556877505
 H   -1.1392936076   -4.8621535028    0.9379845776
 H   -2.7968012156   -4.6496729722    0.3677115507
 H   -1.4605486851   -4.7070712394   -0.7996178004
 H   -2.0797926342   -2.6908908989    2.3713037877