21

 C   -0.1854779229    1.5357806075    0.0219406472
 C    0.0339449739    0.0082808613    0.0541398318
 C    0.6905141001   -0.4622104880   -1.2211717368
 C    1.9285433347   -0.9470994408   -1.3021734618
 C    2.8510189388   -1.0802911804   -0.1202418778
 C    2.3449897156   -0.2929409352    1.0955338991
 C    0.8328757356   -0.5056925814    1.2888986905
 C    0.3450381424    0.1396627351    2.5688184450
 O   -0.4493879724   -0.3559969023    3.3272982276
 H    0.7628081701    2.0817788697    0.0448221406
 H   -0.7018700746    1.8203924361   -0.9001747558
 H   -0.8000144153    1.8751448248    0.8618223259
 H   -0.9618443391   -0.4513376928    0.1109524916
 H    0.0856731903   -0.3765058412   -2.1220222670
 H    2.3135928290   -1.2757000868   -2.2646807344
 H    2.9624449803   -2.1434779776    0.1396732604
 H    3.8581035413   -0.7414275504   -0.3935942284
 H    2.8908600937   -0.5960100362    1.9959135442
 H    2.5490661856    0.7752956162    0.9511592728
 H    0.6275002783   -1.5779741594    1.3864506355
 H    0.7816770546    1.1440093617    2.7821171797