22

 C    0.1269447702    1.5550676807   -0.0726640247
 C    0.0400864964    0.0358407745    0.0968021715
 C   -1.4066060025   -0.5234105337    0.0412029636
 C   -2.2767776607   -0.0044461112    1.2067390135
 C   -3.6926550762   -0.5831812654    1.2376336809
 O   -2.0911478413   -0.1434042062   -1.1445013325
 C   -1.5859151106   -0.6367715625   -2.3745696190
 C   -1.3193947673   -2.0069002085    0.1264330939
 N   -1.2353781705   -3.1582769586    0.1859932646
 H    1.1736472735    1.8632135999   -0.1475201749
 H   -0.3905726029    1.8812200380   -0.9786793886
 H   -0.3125834704    2.0886773480    0.7743797575
 H    0.6331802605   -0.4580056485   -0.6797841487
 H    0.4817418145   -0.2724106843    1.0505875923
 H   -1.7526771431   -0.2213575304    2.1438616588
 H   -2.3243180640    1.0834179930    1.1040910784
 H   -4.2187169062   -0.3656869996    0.3055033942
 H   -3.6773900154   -1.6684205295    1.3763060812
 H   -4.2611332769   -0.1467204024    2.0638066752
 H   -0.6045277859   -0.2122985629   -2.6235527381
 H   -1.5103383267   -1.7316035552   -2.3724562638
 H   -2.3026563044   -0.3313140351   -3.1396081550