17

 O   -0.0908806769    1.3693261410   -0.0055127403
 C   -0.0524213867   -0.0061924049   -0.0298432261
 C   -1.3591059950   -0.7453647381    0.1509176826
 C   -1.8175366638   -1.6253854261   -0.9870019314
 C   -0.8812915705   -2.1835478366    0.0597824888
 C    0.6142549227   -1.9973784542   -0.1567471748
 C    0.8534592737   -0.7614401837   -1.0631772649
 O    2.0603149163   -0.3723428636   -0.3111528703
 C    1.1004015670   -0.7994944889    0.7175108720
 H    0.8270913543    1.6573357771   -0.1168164386
 H   -2.0592087186   -0.4020317141    0.9023899440
 H   -2.8462821540   -1.9681206834   -0.9478685001
 H   -1.4549509123   -1.4382162278   -1.9924049763
 H   -1.2328045127   -2.9473282744    0.7427915560
 H    1.2749185417   -2.8539117118   -0.2748028799
 H    0.8980587749   -0.6864862371   -2.1502135840
 H    1.4249209999   -0.7704034434    1.7591487132