15

 N    0.2867641491    1.1859029040    0.5821770266
 C   -0.0728434895   -0.0868096442   -0.0356366212
 C   -1.5544544554   -0.2017956287   -0.2299961432
 C   -2.0825814027   -0.8148079594   -1.2878778093
 C   -1.2520444797   -1.3909379113   -2.3410019150
 N   -1.7330192315   -2.0825874139   -3.2839631127
 O    0.1159124821   -1.1322720402   -2.2974423587
 C    0.7165338192   -0.3817557994   -1.3200496317
 O    1.8445087144   -0.0184394705   -1.4852060401
 H    1.3000296607    1.2318922294    0.6518587688
 H    0.0206129776    1.9467669407   -0.0385334363
 H    0.2352508375   -0.8778837794    0.6686788272
 H   -2.1724719254    0.2209821426    0.5554225486
 H   -3.1489146292   -0.9409552526   -1.4259809721
 H   -0.9938205472   -2.3918387371   -3.9177608008