16

 O    0.0304316000    1.4529026080    0.0787156619
 C    0.1161577179    0.0594772071   -0.1597452384
 C   -1.2635611492   -0.5655584044   -0.1070601305
 C   -1.5062819234   -2.0484504620    0.1623779288
 C   -1.1690124978   -1.8387641510    1.6819123761
 N   -1.9185187584   -0.5151946162    1.2850854569
 C   -2.8769147690   -1.6658083412    0.8312222141
 C   -2.5020799953   -2.4608903243    2.0721738522
 O   -2.9750543380   -3.2063852628    2.8703596715
 H   -0.4647478707    1.5659361828    0.8989479816
 H    0.5480884960   -0.0628182175   -1.1591655965
 H    0.7972810701   -0.4323286868    0.5526292621
 H   -1.9075325768   -0.0966058619   -0.8600102030
 H   -1.2967440518   -2.9360932687   -0.4412016610
 H   -0.1980238615   -1.8230715344    2.1701882985
 H   -3.8200958820   -1.4410529668    0.3367243559