15

 C   -0.1500499617    1.5323775421    0.6948418302
 O   -0.1794756822    0.0982461786    0.7204898639
 C   -0.9840265474   -0.4733718817   -0.1968511752
 O   -1.6605330484    0.1247098594   -0.9881977492
 C   -0.8854271044   -1.9694047074   -0.0769614567
 O   -1.9333702592   -2.7203013226   -0.6614577262
 C   -0.6504381861   -2.8101402926   -1.2840128701
 C   -0.4880267954   -2.2696274597   -2.6044747963
 C   -0.3082327647   -1.8758696302   -3.7248874465
 H    0.5414143653    1.8292081288    1.4830164742
 H    0.1972449873    1.8911445223   -0.2771460224
 H   -1.1465752152    1.9385889441    0.8843447114
 H   -0.5086077358   -2.3338916131    0.8767870142
 H   -0.1410149778   -3.7581103852   -1.1097718133
 H   -0.1679137744   -1.5071859327   -4.7112410079