16

 N   -0.2291154905    1.1388186427   -0.3350741010
 C   -0.1078397769   -0.0767679771   -0.0571291254
 O    0.9645275787   -0.8035904520    0.4124216182
 C    0.1505353022   -2.0133819348    0.5462130803
 C   -1.0551503143   -1.2759084228   -0.0619001612
 O   -2.1644461112   -1.2161938539    0.7866784620
 C   -3.2071934359   -0.3879720140    0.3008348640
 C   -4.3111883148   -0.3757602258    1.3416999797
 O   -5.3893227270    0.1219851426    1.1591874333
 H    0.6335523551    1.6585900058   -0.1626973989
 H    0.5731588723   -2.8394922490   -0.0279264797
 H    0.0145059832   -2.2848037041    1.5948286214
 H   -1.3350467280   -1.6048981150   -1.0726046207
 H   -2.8555069045    0.6403095605    0.1337188929
 H   -3.6112511975   -0.7615862527   -0.6531463001
 H   -4.0286918609   -0.8651996805    2.2999094252