14

 C    0.0461127975    1.5648132371   -0.1863130302
 C   -0.0365142999    0.0588383227    0.1116572543
 C   -1.4272660716   -0.4812795360   -0.0090484817
 C   -1.9718610945   -1.3413712331   -0.9346180729
 N   -3.2678206540   -1.4570974279   -0.5569235648
 N   -3.5290226534   -0.7200137078    0.5368253821
 N   -2.4177882695   -0.1298571687    0.8675239941
 H    1.0677739062    1.9325657405   -0.0509017550
 H   -0.2606288697    1.7793226755   -1.2149931563
 H   -0.6135120158    2.1222582496    0.4839429666
 H    0.6239882364   -0.4949935567   -0.5642747616
 H    0.3265528531   -0.1274729958    1.1289186411
 H   -1.5640571653   -1.8578317747   -1.7871307241
 H   -4.0056574395   -2.0028999144   -0.9720207516