18

 C   -0.0974857406    1.5269154987    0.0496397681
 C    0.1351960084    0.0536633790    0.0178805485
 O   -0.7358474731   -0.8198678175    0.7493387007
 C    0.6807295560   -0.9115981303    0.9860736469
 C    1.2548785676   -1.8072400623   -0.1139362973
 C    0.6707787213   -0.7874138002   -1.1719483170
 C   -0.3566251598   -1.3127719872   -2.1603260655
 O    1.6851162568   -0.0250525297   -1.8045529397
 H    0.7685360068    2.0504153838   -0.3635123613
 H   -0.9749081233    1.7962920261   -0.5491257023
 H   -0.2683514994    1.8653286463    1.0751148823
 H    1.0172657593   -0.7716880205    2.0073436504
 H    2.3467132306   -1.8019029018   -0.1493744715
 H    0.8754481750   -2.8323814763   -0.1312706919
 H   -1.1799632466   -1.7946951608   -1.6282425026
 H   -0.7544338810   -0.4957281473   -2.7706901478
 H    0.0934186254   -2.0535685926   -2.8332954048
 H    2.0717289266   -0.5636281775   -2.5031399251