17

 O    0.1504113896   -0.0965045917   -0.6141926489
 C    0.1379450128    1.1093546890   -0.4908021546
 C    1.2518330953    1.9115309332    0.0373288962
 C    1.1226785613    3.2621212715    0.0747154040
 C    2.1533655455    4.2055977598    0.4062561448
 C    3.4882567660    4.0235649518    0.2003094246
 C    4.1190424018    2.8611427805   -0.3775164221
 C    3.6580887662    1.5975188765   -0.3069632874
 C    2.4829124649    1.2076376041    0.5501557738
 H   -0.7570780646    1.7057095206   -0.7782429320
 H    0.1549949065    3.6815933511   -0.1999755309
 H    1.8243476620    5.1941795959    0.7160823692
 H    4.1323881298    4.8838591346    0.3687314903
 H    5.0396299698    3.0468735780   -0.9264419402
 H    4.1597787292    0.8167405361   -0.8718039515
 H    2.6663904619    1.5051259381    1.5912413773
 H    2.3123737718    0.1302738006    0.5234460373