17

 C   -0.0612965596    1.4558931946    0.0763801966
 C    0.0345408703   -0.0377297505   -0.0498402902
 C    0.7307010502   -0.7117393306   -1.2408650499
 C    0.3654547703   -2.1054617134   -0.6934248667
 C    0.9493614076   -1.9747574995    0.7353028235
 O    0.6769042166   -0.6011645881    1.0769592925
 C   -1.1416358965   -1.9180443576   -0.5167633244
 O   -2.0432889003   -2.6908525666   -0.6425449760
 O   -1.3065064306   -0.6138131000   -0.1275419543
 H    0.9409742786    1.8898465523    0.0985027608
 H   -0.6162437578    1.8702061637   -0.7678004040
 H   -0.5787649947    1.7161385741    1.0024393248
 H    0.2691726811   -0.4757643497   -2.2009487839
 H    1.8032503631   -0.5077767099   -1.2689435647
 H    0.6449475489   -3.0001408755   -1.2430326003
 H    0.4723059211   -2.6381804764    1.4626170525
 H    2.0314702318   -2.1497137167    0.7440445536