10

 O   -0.1057644292    1.5372260737    0.0094520019
 C    1.3271171661    1.2928392120   -0.0041972783
 C    1.2470662673    0.0193111974    0.8986163914
 O    1.9929572838   -0.8240468392   -0.0208647303
 C    1.2313550654    0.0286755631   -0.9185675359
 C   -0.0311474277    0.0855371381    0.0013243945
 H    2.0155382172    2.1371826571   -0.0057710599
 H    1.3717564376   -0.1160971877    1.9723757634
 H    1.3374880808   -0.0956087761   -1.9956617143
 H   -0.9503882412   -0.4991123783    0.0062299574