18

 C    0.0153443630    1.5366289522   -0.0623671649
 C   -0.0206442157    0.0421898839   -0.0275295973
 C   -1.1569356732   -0.6931338247   -0.0588830101
 C   -1.1245213647   -2.1324412740   -0.0225321182
 C   -2.3946812053   -2.9344607982   -0.0580710982
 N   -0.0012948958   -2.7848226998    0.0419820693
 N    1.1273584465   -2.0456470075    0.0729548761
 C    1.2631046003   -0.6582862447    0.0450859066
 N    2.3782639711   -0.0173093001    0.0777991383
 H    0.6025905859    1.8819318239   -0.9195709253
 H   -0.9908111027    1.9589619177   -0.1151688793
 H    0.5290790014    1.9243208634    0.8234177168
 H   -2.1227475266   -0.1986410762   -0.1127154402
 H   -2.9668343049   -2.7276947581   -0.9701012008
 H   -2.1643170510   -4.0002797729   -0.0226842481
 H   -3.0426396564   -2.6856588399    0.7905563164
 H    1.9679217980   -2.6021139145    0.1228712737
 H    3.1775908001   -0.6514233505    0.1278455953