24

 C   -0.2488780229    1.7632416849   -0.3354375457
 C   -0.0496241331    0.2661106400   -0.0378039283
 C   -1.3932684637   -0.4323223882    0.1094922557
 C   -1.5896809837   -1.6105671022    1.0285192929
 C   -2.2109021430   -0.2769621115    1.3665814842
 C    0.7773452788   -0.3605739923   -1.1543557200
 C    2.2539036227   -0.1638566943   -1.2384089972
 N    1.6959393036   -1.4920822433   -1.0160024756
 C    1.9409744426   -2.1136210575    0.2746109038
 H    0.7098923377    2.2871684419   -0.3930725825
 H   -0.7627377047    1.9035665105   -1.2936580089
 H   -0.8577874020    2.2379824138    0.4396204309
 H    0.4919947342    0.1778824093    0.9120300116
 H   -1.9652685736   -0.4618643753   -0.8162925333
 H   -2.2377754749   -2.4176494894    0.7049117931
 H   -0.7465609720   -1.9346740779    1.6283539913
 H   -1.7757562306    0.2849486105    2.1873599323
 H   -3.2861681109   -0.1670291196    1.2787040173
 H    0.2312413120   -0.3968606665   -2.0989243388
 H    2.7523204275    0.0013948607   -2.1907256762
 H    2.7277672354    0.3324228834   -0.3900297005
 H    1.9736639588   -1.4164139868    1.1276084967
 H    1.1691748760   -2.8636629500    0.4716123788
 H    2.9078620658   -2.6262367001    0.2318862782