17

 O   -0.1634830947    1.4595772068    0.0208888777
 C   -0.0204034905    0.0563906504    0.0035942312
 C    0.6991239345   -0.5754892908   -1.1855815963
 C    0.0643428143   -1.6934866511   -1.5762203801
 C   -1.1840076780   -1.8812100915   -0.8249708872
 C   -1.1762805959   -1.9004709892    0.7968795746
 C    0.0791432420   -1.7304505803    1.5405767022
 C    0.7102046679   -0.6033056031    1.1707750749
 C   -1.3981998246   -0.6525553089    0.0017359584
 H    0.7138414131    1.8556774939    0.0153277275
 H    1.6837683501   -0.2539220642   -1.5084236741
 H    0.4401951299   -2.4106810880   -2.2967495430
 H   -2.0142863485   -2.4336925539   -1.2494675059
 H   -2.0025398735   -2.4630146613    1.2159666988
 H    0.4615994325   -2.4644571400    2.2404000189
 H    1.6976348817   -0.2890089201    1.4921891932
 H   -2.3086237205   -0.0654809888    0.0130122291