19

 O   -0.1016195103    1.3878700957   -0.0629067640
 C   -0.1578515639    0.0333663641    0.2677368927
 C   -1.1453327188   -0.3611168521    1.3415094915
 C   -1.3968635952   -0.7298908397   -0.1027390303
 O   -2.3141022563    0.0063180028   -0.8612307721
 C   -3.6034284164   -0.5313438230   -0.9722855961
 C   -4.5307986372   -0.5140978104    0.2263520180
 C   -4.6826337828    0.5086897606   -0.8800066971
 O   -4.3035239398    1.8293947035   -0.6584572836
 H   -0.3750387057    1.4730588285   -0.9830630554
 H    0.7973445421   -0.4880706638    0.2236353697
 H   -0.8843249037   -1.1455141797    2.0432448359
 H   -1.7291173403    0.4572321589    1.7463614707
 H   -1.3078483863   -1.7724679611   -0.4025597984
 H   -3.6808823620   -1.3457728070   -1.6907569852
 H   -5.2580334274   -1.3141943688    0.3160540359
 H   -4.1259236321   -0.1517283146    1.1635338163
 H   -5.5383553586    0.4346762313   -1.5441422408
 H   -3.3387934854    1.8291514048   -0.5938180377