18

 C   -0.0235293151    1.4555078478    0.3419740252
 C    0.1035271653   -0.0313689936    0.1042852401
 C    1.4291355956   -0.6362290322   -0.3354994359
 O    2.5471615814    0.1889540254   -0.4692716246
 C    0.8968401146   -0.9104386083    1.0421187714
 O    1.6678422985   -0.3004873111    2.0587899814
 C    1.0415726809   -0.1636397946    3.2671986034
 N    1.9009158498    0.3978116898    4.1655548350
 O   -0.0838164830   -0.5278893681    3.4970650392
 H    0.9478368726    1.9007354703    0.5654872316
 H   -0.4143736181    1.9520706042   -0.5514189203
 H   -0.7046107858    1.6625566127    1.1733856992
 H   -0.7832084590   -0.5118536933   -0.3009216788
 H    1.4137864832   -1.4472900203   -1.0596600817
 H    2.9989256659    0.1995479186    0.3818963052
 H    0.5227311707   -1.8892216387    1.3187131815
 H    2.7335214753    0.8544115997    3.8355259295
 H    1.4981365671    0.7115376918    5.0314236086