21

 C   -0.0182441920    1.5578447208   -0.0496755703
 C    0.0017064528    0.0350491903    0.1308521054
 C   -1.3803324402   -0.5994822392   -0.0086191221
 C   -2.0763881493   -0.6041517003   -1.4205454316
 C   -1.1542168052   -1.6005168633   -2.1485984300
 C   -0.7982657600   -2.5282039965   -1.2612645789
 C   -1.4776932936   -2.1648265273    0.0739073262
 C   -2.9975221025   -2.3014883221   -0.1405028979
 C   -3.3533622605   -1.3728894850   -1.0278428029
 H    0.9747492040    1.9871863414    0.1158099525
 H   -0.3336170295    1.8373354349   -1.0605219169
 H   -0.7085495953    2.0351905276    0.6550775738
 H    0.7022382942   -0.4139660332   -0.5795748034
 H    0.3818351716   -0.2019565008    1.1338606235
 H   -2.0497661698   -0.1451773655    0.7302888749
 H   -2.2327353222    0.3542250353   -1.9152900693
 H   -0.9070332415   -1.5485775558   -3.2004064955
 H   -0.1941458185   -3.4114147636   -1.4194178649
 H   -1.0733615885   -2.6473689827    0.9643595579
 H   -3.6159722264   -3.0534168826    0.3309085901
 H   -4.3313336777   -1.1878650325   -1.4515403207