21

 O    0.2835237241    1.3132885387    0.0865603035
 C    0.0981370754   -0.0786030339   -0.0608724244
 C   -1.3805914496   -0.5093882680    0.0131221135
 C   -2.1580527471   -0.0688596420   -1.2296122000
 O   -2.0811389463    1.3526464241   -1.3565120606
 C   -1.5275693618   -2.0331783932    0.1902288002
 C   -1.0952876659   -2.5356475607    1.5478213850
 C   -0.5807553728   -3.8959735210    1.7484140582
 O    0.3011403592   -2.7724716099    1.7509765433
 H   -0.3487196388    1.7345221232   -0.5100904148
 H    0.5205632923   -0.4488900363   -1.0142854630
 H    0.6657230578   -0.5587024005    0.7402192565
 H   -1.8253441455   -0.0042720137    0.8816648597
 H   -1.7298739465   -0.5589888473   -2.1186443666
 H   -3.2092482406   -0.3856859705   -1.1491686464
 H   -2.4210848764    1.6044897372   -2.2198442218
 H   -2.5794599633   -2.3163270687    0.0456156180
 H   -0.9494243576   -2.5608525184   -0.5790632348
 H   -1.5827503642   -2.0518661747    2.3969522453
 H   -0.7106086094   -4.3917280037    2.7093282023
 H   -0.4842757929   -4.5631490606    0.8924001267