21

 C   -0.0973174215    1.5139249425   -0.1013845557
 C   -0.0844327573   -0.0227811155   -0.0534103004
 C   -1.2842842999   -0.4247248833    0.8904005530
 O   -0.3314956994   -0.4276886397    2.0348131190
 C    0.6981338797   -0.6971110859    1.0301207586
 C    2.0191660173   -0.2225142073    0.3375406899
 C    1.0984420399   -0.6037214389   -0.9499065265
 C    1.0212907758   -2.1263267981   -0.8388493249
 C    0.7601377482   -2.2177131160    0.6890234875
 H    0.7889472310    1.9492335573   -0.5675664858
 H   -0.9584674999    1.8320463357   -0.7011480863
 H   -0.2115099880    1.9469290137    0.8977219688
 H   -2.0525331361    0.3397581814    1.0279700792
 H   -1.7453436814   -1.4061757734    0.7587415084
 H    2.2405354159    0.8382624564    0.4100829802
 H    2.9274909788   -0.8159306996    0.4812080148
 H    1.3214515691   -0.1623231169   -1.9228555402
 H    0.2057873852   -2.5455026890   -1.4349938279
 H    1.9504244190   -2.6116295220   -1.1512832572
 H    1.5801311091   -2.6913563004    1.2355933011
 H   -0.1538064355   -2.7541942910    0.9437462142