18

 O    0.4553564073    0.4668448842   -0.8230842808
 C   -0.2740541594   -0.3241363492    0.0784302063
 C    0.1198511209   -0.3499203894    1.5801927007
 C   -1.4005481368   -0.4031148314    1.9328514680
 C   -1.7123197769    0.0901137914    0.4882437094
 C   -1.8915378560   -1.7880151179    2.2772410658
 C   -3.2046768509   -2.3085938537    1.8805104459
 O   -2.0141492125   -2.7385676672    1.2133038327
 H    0.4770598772    1.3669314456   -0.4806613734
 H   -0.2755144138   -1.3328622026   -0.3399451935
 H    0.7554109665   -1.1681025678    1.9290216458
 H    0.5696005504    0.6007488570    1.8870073646
 H   -1.7073142123    0.2722773530    2.7377038750
 H   -1.8341872350    1.1782129735    0.4631981903
 H   -2.5398277978   -0.3712195101   -0.0537271096
 H   -1.4452592301   -2.2075211552    3.1821265271
 H   -3.6947804472   -3.0647270553    2.4920580255
 H   -3.8732913336   -1.6879576549    1.2864056300