13

 O   -0.0025103724    0.0336094626    0.2555610569
 C   -0.0521939260    1.2009929017    0.0289152385
 C   -1.1434656753    2.2900099659   -0.0688221416
 O   -1.1911597747    2.8751180509    1.2710178992
 C   -0.0081671704    3.6789553999    1.0319396869
 C    1.2848119572    2.8493535330    1.2073471771
 N    1.0212781293    2.1738530266   -0.1287315513
 C    0.0001229829    3.2532847049   -0.4516842071
 H   -2.1320768462    2.1466126834   -0.5049745753
 H   -0.1025080938    4.6773323024    1.4610865056
 H    2.1937233576    3.4553000653    1.1447109854
 H    1.3428154262    2.1671743705    2.0585774057
 H    0.1149931855    3.8503591628   -1.3511544099