12

 N    0.0517550914    1.4344926310    0.1164958502
 C   -0.0568908390    0.0662538414    0.0142376980
 C   -1.0896365113   -0.7979716686   -0.1352978010
 O   -2.3985879560   -0.5054163947   -0.2306899897
 N   -0.6501661769   -2.1138260998   -0.1858093522
 C    0.6370128741   -1.9921603901   -0.0642860841
 O    1.5417993070   -2.9691585654   -0.0508592504
 O    1.1122950153   -0.7653445074    0.0607272900
 H    0.5576647904    1.8764098491   -0.6427307907
 H    0.4131336131    1.7648018117    1.0041656300
 H   -2.8614604196   -1.3457593570   -0.3283491852
 H    1.0568094515   -3.7985861101   -0.1497432847