15

 C   -0.0163549217    1.4219645887   -0.0117259441
 C    0.0046543253   -0.0692760461    0.0150573614
 N   -0.0501684225   -0.7838263793   -1.1148275955
 N   -0.0057182991   -2.0552910818   -0.6241473772
 C   -0.0145780929   -3.3643022388   -1.0746784441
 C    0.0587893324   -4.1396249847    0.0430297026
 N    0.1117250513   -3.3092969924    1.1636131609
 C    0.0706072823   -2.0168086960    0.7304452091
 N    0.0805043817   -0.7781550850    1.1893682706
 H    0.8872166945    1.8300092041    0.4522142263
 H   -0.0791665566    1.7767847965   -1.0416336110
 H   -0.8722807963    1.8070232051    0.5515798245
 H   -0.0701544654   -3.6290595979   -2.1151195132
 H    0.0780234438   -5.2111563647    0.1380985104
 H    0.1699435531   -3.6034334477    2.1214894795