15

 O    0.0634838580    1.2449044396   -0.4883240394
 C   -0.0118226876    0.0576459272    0.2779053918
 C   -1.3999641959   -0.5584247241    0.2040968808
 C   -1.8514941564   -1.1513514236   -1.0884229278
 O   -0.9274601094   -1.0929846153   -2.1265346538
 C   -1.5878719467   -2.0775024399    0.1028701881
 C   -0.4600465524   -2.9602826588    0.0436966733
 N    0.4324505772   -3.6934717821   -0.0318901633
 H   -0.0072803386    0.9755877142   -1.4115203274
 H    0.7441960236   -0.6734098309   -0.0321625741
 H    0.2085341607    0.3387512092    1.3120935826
 H   -2.1621585589   -0.0502697360    0.7858796629
 H   -2.8934720501   -1.0411414052   -1.3846024482
 H   -0.9167608508   -1.9312928048   -2.6017653564
 H   -2.4562056825   -2.5016353995    0.5959854008