20

 C   -0.5973117235    1.3619390267    0.0068386857
 C   -0.0390514118   -0.0786208193   -0.0309540337
 C    0.6606247684   -0.3344119457   -1.3446029389
 C    1.9835563007   -0.2884556920   -1.5022590633
 C    2.8928952693   -0.0256664148   -0.3597987742
 N    2.6518997234    1.2256422092    0.4239789599
 C    2.3289284508   -0.0877632046    1.0103316141
 C    0.8622497836   -0.4220681224    1.1927012461
 O    0.3646429527    0.1306788648    2.4065836068
 H    0.2156280274    2.0911913775   -0.0156200376
 H   -1.2390715812    1.5394616173   -0.8618727496
 H   -1.2030525032    1.5146782621    0.9043896394
 H   -0.9053803976   -0.7501234280    0.0291147633
 H    0.0214059428   -0.5091630865   -2.2069276577
 H    2.4325031364   -0.4418988752   -2.4791822699
 H    3.9311321633   -0.3182703321   -0.4897460406
 H    3.5363815876    1.5578219840    0.8024642737
 H    2.9653817331   -0.4521690590    1.8141561534
 H    0.8082175056   -1.5070640560    1.3438150655
 H    0.5308114422    1.0793404841    2.3687818975