19

 C   -0.5521423727    1.4378044509   -0.1884287697
 C   -0.0235715867    0.0156938369   -0.0627833314
 C    1.3736306608   -0.3390293994   -0.6212267821
 O    1.7387275541   -1.0043648859    0.6149213053
 C    0.5421590434   -0.5426681469    1.2715080464
 C    0.8887610405    0.3809960509    2.4511978472
 N    1.5014629877   -0.4500380512    3.4911906429
 C    1.7575342645    1.5100652416    2.0529358939
 N    2.4632951397    2.3900787167    1.7972033863
 H    0.1772936728    2.1837520026    0.1347399172
 H   -0.8052467240    1.6517178070   -1.2322651022
 H   -1.4665531523    1.5724648671    0.3997343852
 H   -0.7749831839   -0.6820068864   -0.4430101889
 H    1.4079492401   -1.0243156170   -1.4743166575
 H    2.0210159973    0.5237371917   -0.8176441646
 H   -0.0205852746   -1.3764195152    1.7078744532
 H   -0.0450231367    0.8007042379    2.8462947999
 H    2.3325969879   -0.8878349257    3.1002627375
 H    1.8111187623    0.1269878944    4.2673542413