24

 C    0.2200819353    1.2273550197    0.1821139354
 C    0.0829774919   -0.2103601704    0.7008044722
 C   -1.3626155394   -0.6644233442    0.7602775675
 C   -1.8627128883   -1.7437514102    1.6712355077
 C   -0.9771414179   -2.4938265141    2.6441989570
 N   -2.2746968480   -0.3490682643    1.8683934799
 C   -1.8288712859    0.3897562184    3.0144822866
 C   -2.3935612704    1.7779282366    3.1781086710
 C   -2.8633107971    0.6588546144    4.0763497404
 H    1.2715285799    1.5205886364    0.1028610934
 H   -0.2317316670    1.3310960007   -0.8104469089
 H   -0.2811320087    1.9348360179    0.8495752858
 H    0.6252879668   -0.8929606381    0.0332368836
 H    0.5690377804   -0.2946342341    1.6767570079
 H   -1.8561002000   -0.5806803516   -0.2102357334
 H   -2.6766580443   -2.3623963831    1.2908953324
 H   -0.1132525655   -1.9175683416    2.9798747354
 H   -1.5463129851   -2.7882713599    3.5327748215
 H   -0.6022472152   -3.4098030337    2.1748877600
 H   -0.8098835843    0.2452505729    3.3713595984
 H   -1.7550785626    2.5480071467    3.5967690901
 H   -3.0771474805    2.1150854104    2.4078865383
 H   -3.8553734886    0.2622567480    3.8952914960
 H   -2.5490191554    0.6568918630    5.1141603717