19

 O   -0.1319337423    1.3953033641   -0.6172308923
 C    0.0116148155    0.1374630626    0.0316707101
 C   -1.3493376175   -0.5078538418    0.0780351468
 C   -1.8691333412   -1.3303067374   -1.0731482466
 C   -1.5355019339   -1.9979793886    0.2395927642
 C   -0.3452990285   -2.9395449629    0.3514877308
 O    0.3906437494   -2.7478036779    1.5612115233
 C   -0.7726579687   -4.3356634306    0.2021053250
 C   -1.1470268277   -5.4753344384    0.1225793353
 H    0.7124457336    1.8528809544   -0.5650029476
 H    0.7253398786   -0.5034923476   -0.5078073663
 H    0.3979597425    0.2574862561    1.0547864643
 H   -2.0833528596    0.1061028682    0.5928070076
 H   -2.9099250813   -1.2377606719   -1.3610277008
 H   -1.1928208078   -1.5036067118   -1.9049720223
 H   -2.3783167793   -2.3050096220    0.8534510003
 H    0.3743229381   -2.7084341315   -0.4412756452
 H   -0.1619526942   -3.0573664153    2.2876696147
 H   -1.4642823456   -6.4853671778    0.0374993287