20

 C   -0.0034382996    1.2010140907   -0.4502660799
 C   -0.0778656974    0.0269281753    0.5287694409
 N   -1.3785413888   -0.6268040872    0.5381726519
 C   -1.6232884873   -1.7994778173   -0.1039237698
 O   -0.7413073915   -2.4077796620   -0.7168541146
 C   -3.0079299157   -2.3269382664    0.0028457663
 C   -3.5748900427   -3.0560560807   -1.2203497442
 C   -3.1566435602   -3.8579894180   -0.0358122325
 O   -2.0500670287   -4.6815781567   -0.0490493769
 H    0.9870822951    1.6653018749   -0.4128854583
 H   -0.1857001540    0.8598024575   -1.4731042868
 H   -0.7445215633    1.9706129787   -0.2084878035
 H    0.6481229880   -0.7417337329    0.2574050152
 H    0.1518986373    0.3629543321    1.5464914063
 H   -2.1533426877   -0.1479687006    0.9676267087
 H   -3.7024040148   -1.7675189585    0.6216564771
 H   -4.6298314513   -2.9206219189   -1.4322790539
 H   -2.9223209982   -3.0857670689   -2.0863600788
 H   -3.9381398481   -4.2642602414    0.5991773918
 H   -1.3200486511   -4.1524230296   -0.4229034689