17

 C   -0.3519655293    1.0499216993   -0.2591755335
 C    1.0788553905    1.1137136593    0.2391778883
 C    0.4259107311   -0.2087118654    0.0157705205
 O    0.1382616162   -0.9452833314    1.1728379543
 C   -0.8827728615   -1.8374822902    1.0597792037
 C   -1.2438035043   -2.7342536507    2.0466413896
 N   -2.2958032729   -3.4280648377    1.5365536801
 N   -2.6393838172   -3.0517006234    0.2982173854
 C   -1.7813413815   -2.0759590310   -0.0057835458
 H   -1.1332744921    1.3042172398    0.4475892373
 H   -0.5624007258    1.3151875299   -1.2894586783
 H    1.8616301078    1.4237914050   -0.4433817399
 H    1.2296228822    1.4076736079    1.2714739356
 H    0.7431334256   -0.8229355553   -0.8251496059
 H   -0.8416164189   -2.9154554861    3.0290734995
 H   -2.8142449407   -4.1644539913    1.9831822887
 H   -1.8392681593   -1.5827280289   -0.9627199094