18

 C   -0.0063353610    1.4516528092    0.0245455907
 C   -0.0132462859   -0.0561034757    0.0060708273
 C   -1.1462334513   -0.7787244662   -0.7093908189
 C   -0.6928957299   -2.2303300192   -0.6549944339
 O   -0.8519463699   -2.7297466630    0.7063342625
 C    0.4919764161   -2.3097636056    0.9932556283
 C    0.6879718153   -0.7835618026    1.1023189157
 N    1.2896199993   -0.6988060166   -0.3025298108
 C    0.8613364831   -2.1424027918   -0.4799491722
 H    0.9151101549    1.8317577359    0.4729925934
 H   -0.0748354261    1.8478836389   -0.9942580775
 H   -0.8556428469    1.8370235322    0.5985332782
 H   -2.1181403547   -0.6513309353   -0.2250693762
 H   -1.2178147318   -0.4143911018   -1.7419444969
 H   -1.1356195228   -2.9057976534   -1.3890121137
 H    1.0054050089   -2.9331858228    1.7256877416
 H    1.1394209194   -0.2580842528    1.9386484037
 H    1.5361734633   -2.7710243392   -1.0544847815