14

 C    0.0666405169    1.4859944556   -0.0065260814
 C   -0.0611139269   -0.0019542064    0.0373350262
 N   -0.2910644639   -0.6676113405   -1.0718588865
 O   -0.3624870768   -2.0238819269   -0.6894368792
 C   -0.1564472590   -2.0918766558    0.6296102387
 O   -0.2180439196   -3.2999404673    1.2218785500
 C    0.1998450596   -4.4183633652    0.5227318916
 O    0.0887108164   -5.5001905440    0.9956390860
 C    0.0385719024   -0.8639570085    1.1694499833
 H    1.0465952783    1.8036750523    0.3635308912
 H   -0.0548264386    1.8415955082   -1.0312356702
 H   -0.6931326276    1.9593755373    0.6234352455
 H    0.6247094199   -4.1680071204   -0.4589145394
 H    0.2278450490   -0.6171168185    2.1994169241