19

 C   -0.0291157361    1.5248230339    0.0739542001
 C    0.1223677152    0.0423566462   -0.0138356498
 O   -0.8032366105   -0.8144369600    0.6640845643
 C    0.5962523847   -0.9651001187    0.9554153026
 C    1.2264267933   -1.8134069392   -0.1410672193
 O    0.8201535497   -3.1554496680   -0.1602014979
 C    0.6593241206   -0.7956315491   -1.2107932743
 C   -0.3698741223   -1.3295766457   -2.1880848200
 O    1.7691741103   -0.1860253298   -1.8527880891
 H    0.8800297003    2.0152938783   -0.2868805735
 H   -0.8718452878    1.8717975724   -0.5352662105
 H   -0.2095057430    1.8342314020    1.1067482490
 H    0.8941523511   -0.8669943727    1.9933445417
 H    2.3190174915   -1.7014528970   -0.1303825074
 H    1.3299584848   -3.6157930936   -0.8340964445
 H   -1.1928572960   -1.8015243045   -1.6498120850
 H   -0.7772161960   -0.5209953500   -2.8086706026
 H    0.0858211528   -2.0689011853   -2.8546596743
 H    1.4297958974    0.4360688407   -2.5056404994