17

 C   -0.3336662339    1.3307527507   -0.8812834097
 C   -0.1003685021    0.0742798509   -0.0792697666
 C    1.1095480751   -0.7455433641   -0.2965052096
 O    0.9947256285    0.0918291709    0.8584627610
 C   -1.3142063405   -0.5795662988    0.4711789040
 N   -2.5107092521   -0.6165153786   -0.0753569021
 C   -3.2865850468   -1.3419459118    0.8000357796
 C   -2.5495583640   -1.7388971730    1.8850430231
 N   -1.2841532993   -1.2474621609    1.6588412978
 H    0.6082437471    1.7118251087   -1.2824429863
 H   -1.0225578870    1.1190436088   -1.7028666371
 H   -0.7895063049    2.1031943701   -0.2551155323
 H    1.0769626079   -1.8166225636   -0.1041269604
 H    1.8459295819   -0.4242124735   -1.0317976406
 H   -4.3295132376   -1.5343420139    0.5993416136
 H   -2.7960332731   -2.2997516997    2.7709329589
 H   -0.4836641692   -1.2767717421    2.2690505267