15

 O   -0.0286985893    0.0569515708   -0.0668781854
 C    0.0392330269    1.2391650882   -0.0173105180
 O   -1.0247377767    2.1384411585    0.0943215261
 C   -0.1141067120    3.2395225168    0.1895357667
 C   -0.2174134671    4.6781141797   -0.2550814068
 O    0.6957152400    5.0291669035    0.8268780250
 C    0.5223215022    3.7503282377    1.4993096454
 C    1.7198291587    2.7853676610    1.3290596490
 C    1.1104641825    2.3374627191   -0.0436957166
 H    0.1749411899    4.9477916176   -1.2406015582
 H   -1.2070598104    5.1298313349   -0.1086100130
 H    0.0173173288    3.8468278883    2.4629191889
 H    2.6805291232    3.2942410984    1.2379831122
 H    1.7941127958    1.9982542619    2.0826821651
 H    1.7282787274    2.3644715837   -0.9401719104