19

 O    0.1416360931    1.3628254904    0.1132993696
 C    0.1052372241   -0.0486111856    0.0600581220
 C    0.1233411321   -0.6283019690    1.4951963006
 C   -1.4195799775   -0.4430453626    1.5207072076
 C   -1.3417748186   -0.6348757660   -0.0236251264
 C   -1.2371915962   -2.1290854538   -0.3410220455
 O   -0.6289355326   -2.2416347713   -1.6229045581
 C   -0.4432447786   -2.8285555513    0.7889568677
 O    0.5134584164   -1.9946897392    1.4317588155
 H   -0.0766724068    1.6970292853   -0.7626789086
 H    0.8469689014   -0.4601103552   -0.6307550364
 H    0.7476024811   -0.1445216962    2.2481310538
 H   -2.0257826606   -1.1283703006    2.1171727856
 H   -1.6677362585    0.5872984969    1.7734692816
 H   -2.0620505722   -0.1300570606   -0.6721749676
 H   -2.2450133525   -2.5752432836   -0.3637345880
 H   -0.5814226383   -3.1742913803   -1.8540955752
 H   -1.1564139049   -3.2172376114    1.5311978199
 H    0.1084349888   -3.6859454657    0.3878702919