17

 C   -0.0344311787    1.4357722966    0.0037119394
 C    0.0432914913   -0.0591275377   -0.0504531152
 O   -1.2325225816   -0.7587582330   -0.1469299171
 C   -0.4618124294   -1.8449897899   -0.6917926111
 C    0.6006644842   -2.2418108098    0.3856708048
 C    1.7770270059   -1.6679636835   -0.4519105656
 O    2.2170159486   -0.7976276246    0.6120498772
 C    0.8312335046   -0.8388837250    1.0417546993
 C    0.6525969051   -0.9109167347   -1.2294502780
 H    0.9741434692    1.8505109683    0.0920456023
 H   -0.5058769952    1.8419584545   -0.8952407852
 H   -0.6197137828    1.7549507169    0.8729834692
 H   -1.0324213285   -2.5915814454   -1.2400325871
 H    0.6163646841   -3.1544273319    0.9748872768
 H    2.5677063455   -2.2145082145   -0.9618453129
 H    0.6751790823   -0.5963467923    2.0918295273
 H    0.7223429354   -0.5021990141   -2.2341252340