18

 C    0.0115491813    1.5058747307    0.0865665004
 C   -0.0305547131    0.0113925812   -0.0460807443
 C    0.3195330423   -0.7963928977   -1.3257550680
 C   -0.3649282464   -1.9392463597   -0.5177467087
 C    0.5850639513   -2.0265388755    0.6803902583
 O    0.7695016309   -0.6188798441    0.9613969248
 C   -1.3617685995   -0.8344626244   -0.0141424489
 C   -2.0661225585   -1.0021007654    1.2425212614
 N   -2.6244967101   -1.1368895878    2.2462377942
 H    1.0405407981    1.8630361349   -0.0154114837
 H   -0.6013367087    1.9798896439   -0.6846523332
 H   -0.3602435302    1.8099217292    1.0692922447
 H   -0.2485343083   -0.4909218840   -2.2058579285
 H    1.3808422808   -0.9028004132   -1.5582662555
 H   -0.7178526542   -2.8651219182   -0.9676180230
 H    0.1534645052   -2.5260286206    1.5534458608
 H    1.5442431768   -2.4926727100    0.4303374615
 H   -2.0543705877   -0.5312744792   -0.8011242921