16

 O    0.0179413009    1.4748886061    0.2408671758
 C   -0.1121508359    0.0930569097    0.5369659356
 C   -1.0189736749   -0.6103970657   -0.4762913111
 C   -1.1725401697   -2.0951258129   -0.2817671721
 N   -2.0581430610   -2.7277792216   -1.0752129199
 C   -2.1551078817   -4.0315958356   -0.8835600453
 C   -1.3795376703   -4.6713365741    0.0861145347
 N   -0.5270000932   -3.9931555240    0.8442085875
 N   -0.4206505494   -2.6795097999    0.6565673394
 H   -0.8357098492    1.8934206288    0.3902580796
 H    0.8960197100   -0.3253046994    0.4946248386
 H   -0.4797827192   -0.0748232449    1.5587811001
 H   -2.0235212462   -0.1665240457   -0.4633845355
 H   -0.6363236482   -0.4299904122   -1.4887065011
 H   -2.8583079281   -4.5833621348   -1.5039973589
 H   -1.4402349339   -5.7401801739    0.2640479025