20

 C    0.0084540136    1.5138883903    0.0246526247
 C    0.0082506530    0.0136453176    0.0028675024
 C   -0.9104461069   -0.8376293231    0.8356054622
 C    0.5837382687   -0.9759348400    1.0048088496
 C    1.3070190749   -1.7365712876   -0.1482856441
 C    2.7276300537   -2.1969300335   -0.0028945407
 C    0.3622231037   -2.2491845443   -1.2002905697
 C    0.6916581761   -0.7761745763   -1.1549192030
 H    1.0015332830    1.9169405268   -0.2082606221
 H   -0.6938838461    1.9246717922   -0.7120614153
 H   -0.2836743847    1.8936421360    1.0091450935
 H   -1.3906458806   -0.2980180442    1.6480121973
 H   -1.5338497488   -1.6247764002    0.4256652738
 H    1.0725767391   -0.7669130057    1.9494111532
 H    2.7996066070   -3.0691041600    0.6596012067
 H    3.1509771615   -2.4806004149   -0.9719589938
 H    3.3617160737   -1.4090826267    0.4215310601
 H    0.8557591109   -2.7790357567   -2.0111276046
 H   -0.6248726189   -2.6407591829   -0.9798481114
 H    1.1746886272   -0.2738832266   -1.9851671891