20

 C   -0.3490508999    1.5084282407   -0.1147455508
 C    0.0490948358    0.0369527414   -0.0846320879
 C    1.1259776360   -0.5840051166   -1.0171840486
 O    1.2676023707   -0.5979114822   -2.2067513704
 C    1.8164688661   -1.2786480088    0.1446146940
 N    2.2146287235   -0.2875874673    1.1373284681
 C    2.8250259592    0.9856913384    0.7624830653
 C    0.8117165972   -0.6159199473    1.0966662644
 C    0.1574263147   -1.1830264067    2.3226104147
 H    0.4728366912    2.1754717386    0.1506013401
 H   -0.6919295141    1.7796008388   -1.1185739552
 H   -1.1724819666    1.7017288931    0.5806875616
 H   -0.8464002015   -0.5717796047   -0.2824838875
 H    2.2825057411   -2.2586459501    0.1522686271
 H    2.5060219412    1.3968823095   -0.2034008651
 H    2.6175897716    1.7215638181    1.5454368747
 H    3.9083942363    0.8369031421    0.7186270697
 H   -0.2284406991   -0.3817664376    2.9638372322
 H   -0.6852890472   -1.8292351871    2.0553767525
 H    0.8794526735   -1.7598440621    2.9055949611