22

 C    0.3693225322    1.5932237726    0.4131603881
 C    0.1175836306    0.1013824342    0.1309768735
 C    0.7300924923   -0.7539984622    1.2479462377
 C   -1.4123839762   -0.1657995036    0.0249426657
 C   -2.1801054930    0.1851518729    1.2121866776
 C   -2.8114801834    0.4742460459    2.1941771589
 N    0.6621136040   -0.4213548853   -1.1399092672
 C    0.7664061640    0.4031598768   -2.3347726177
 C    1.9869781472   -0.0476387249   -1.6050537477
 H    1.4374485086    1.8200996253    0.4775973350
 H   -0.0774686882    2.2383790855   -0.3494469303
 H   -0.0841844773    1.8634455951    1.3699115337
 H    0.2714215096   -0.5193604492    2.2119127720
 H    0.5812216473   -1.8163412743    1.0354246817
 H    1.8065515263   -0.5708192205    1.3242964986
 H   -1.8002044614    0.3918406059   -0.8372160668
 H   -1.5493045209   -1.2274144617   -0.2095186250
 H   -3.3760348436    0.7255842316    3.0575040392
 H    0.4646236421   -0.0767989441   -3.2621512839
 H    0.5279425804    1.4626320786   -2.2780201002
 H    2.5441424973    0.7174367169   -1.0684153738
 H    2.5969331122   -0.8616367858   -1.9884105690