18

 O    0.0804570044    1.3552933247    0.0082738761
 C   -0.0280353597   -0.0419783266    0.0022202268
 C   -1.4999270446   -0.4431061143    0.0142709283
 O   -2.3924357763    0.3684173712    0.0272463333
 C   -1.7639239588   -1.9419922286    0.0088365567
 C   -3.2501954788   -2.2594174565    0.0220144369
 O   -3.3746835677   -3.6831443139    0.0153125006
 C   -4.6313956438   -4.1669592894    0.0242028275
 N   -4.8274993308   -5.4137696861    0.0193277020
 H    1.0147223833    1.5826186827    0.0004330041
 H    0.4344454560   -0.5044868270   -0.8876334131
 H    0.4512780212   -0.5134356641    0.8783719141
 H   -1.2917945993   -2.3944498416   -0.8723440962
 H   -1.2742041487   -2.4039155627    0.8753813503
 H   -3.7246957417   -1.8351285314    0.9143179779
 H   -3.7424730000   -1.8251838578   -0.8557522963
 H   -5.4036541503   -3.3849637442    0.0351332574
 H   -5.8268563144   -5.6068455243    0.0271468934