23

 C   -0.1685580879    1.5576903173    0.2217364431
 C   -0.0692305466    0.0421272981   -0.0048623899
 C   -1.4688413225   -0.5819098448   -0.0999644506
 C    0.7628932908   -0.3248797602   -1.2482120597
 C    2.2607293281   -0.0394300709   -1.1594105633
 C    3.0712156129   -0.6133794221   -2.3405291572
 O    4.0827571827    0.3558051455   -2.5611313846
 C    3.4511609031    1.5794918177   -2.2914703526
 O    2.5645728615    1.3634562236   -1.2118360795
 H    0.8151869951    2.0192409296    0.3194849327
 H   -0.6767427410    2.0406995101   -0.6218085963
 H   -0.7488408431    1.7741828973    1.1251416085
 H    0.4350986645   -0.3998644055    0.8674445861
 H   -2.0140306816   -0.1885574179   -0.9665733486
 H   -1.4193812474   -1.6712105854   -0.2045552444
 H   -2.0622512653   -0.3564510314    0.7920960648
 H    0.6530490456   -1.4031555709   -1.4344069828
 H    0.3597940046    0.1858189488   -2.1335453989
 H    2.6531569622   -0.4260540627   -0.2081192642
 H    3.5482946140   -1.5703950079   -2.1207246718
 H    2.4324297366   -0.7264343708   -3.2315838674
 H    4.2093434423    2.3164127120   -2.0081137684
 H    2.8903899914    1.9351468305   -3.1757300050