16

 O   -0.8885053415    1.1555340020    0.0443303564
 C    0.2436862679    0.7481151134    0.0303449143
 C    1.4606003981    1.6549253772    0.0043630179
 C    1.3352451512    2.8395091103    0.9686653084
 O    2.5274527576    3.6037786820    0.9575100911
 C    3.6496658406    2.8043787247    1.2989239396
 C    3.7815822323    1.6291943309    0.3361302187
 O    2.5867409186    0.8575984478    0.3259227293
 H    0.4928289296   -0.3355357068    0.0332003289
 H    1.5613709935    2.0555714053   -1.0217516968
 H    0.5174591017    3.4941624011    0.6622378823
 H    1.1270252890    2.4621156630    1.9827710222
 H    4.5292523343    3.4526063801    1.2464724300
 H    3.5490888901    2.4264234576    2.3294271008
 H    3.9948677590    2.0040688747   -0.6778212952
 H    4.5888114780    0.9569301169    0.6407658420