20

 C   -0.0163911569    1.5298866463   -0.0522651184
 C   -0.0059984596    0.0031685399   -0.0058487391
 O    0.6344117198   -0.4389100202   -1.1948242511
 C    0.9636725198   -1.8144455217   -1.1645249726
 C    2.0116622725   -2.1041035544   -0.0892469612
 C    1.6112584433   -1.4671182932    1.2218849486
 C    2.3142183840   -1.9462528843    2.4607470377
 C    0.6675564095   -0.5245339772    1.2371561225
 H    1.0064238578    1.9162586249   -0.0239646069
 H   -0.4941008279    1.8729219824   -0.9739745618
 H   -0.5688651174    1.9364774561    0.8001807834
 H   -1.0561613215   -0.3497785786   -0.0143814090
 H    0.0616386816   -2.4206369917   -0.9760420242
 H    1.3334891464   -2.0648865163   -2.1631613344
 H    2.1249052130   -3.1895728666    0.0361773104
 H    2.9945010040   -1.7282602225   -0.4062152779
 H    3.3996694715   -1.8023155574    2.3781549698
 H    1.9695932897   -1.4168459898    3.3532679937
 H    2.1560924545   -3.0214527456    2.6162032741
 H    0.3461361357   -0.0812906900    2.1775813563