15

 O    0.2736909129   -0.1768416761    0.3807015719
 C    0.3312606311    0.7713830398   -0.3578106436
 C    0.7788172280    2.1594445330    0.0731124319
 N    0.7332278391    3.0662789045   -1.0519875514
 C    1.0757248341    4.2694656687   -0.8675246268
 N    1.1008825466    5.2796588783   -1.8047906502
 C    1.5363390118    6.4603201504   -1.2102439306
 C    1.7749803987    6.1779556482    0.0741840832
 O    1.5015376859    4.8406635539    0.3155363034
 H    0.0563263426    0.7059910781   -1.4346515591
 H    0.1297558341    2.4725308412    0.9067988859
 H    1.7863132671    2.0619711124    0.5087589257
 H    0.8353742606    5.1359590703   -2.7617087036
 H    1.6336264554    7.3822646019   -1.7564447216
 H    2.1199050721    6.7606976654    0.9088781448