23

 C    0.0326879842    1.5270054177    0.0345732011
 C    0.0309754187    0.0714801540   -0.0124215956
 C    0.0384719518   -1.1320941077   -0.0515773115
 C    0.0129324807   -2.5903297925   -0.0986971065
 C   -1.4100492751   -3.1770582385   -0.0120460558
 C   -1.4218493384   -4.7061925916   -0.0784251846
 C   -2.8227233743   -5.3109856168    0.0878269263
 C   -2.8205413050   -6.8330148754   -0.0590118962
 O   -3.4217093881   -4.9138760203    1.3207080426
 H    0.7439965279    1.9022736263    0.7789730969
 H    0.3107461094    1.9585495592   -0.9336153021
 H   -0.9563101427    1.9188108192    0.2977026472
 H    0.4935190682   -2.9366263153   -1.0243182462
 H    0.6216906937   -2.9959304677    0.7214297088
 H   -1.8859830793   -2.8512883185    0.9173648458
 H   -2.0148428742   -2.7658534955   -0.8292352442
 H   -0.9995163198   -5.0449692392   -1.0340707894
 H   -0.7678844479   -5.1188260827    0.7058397183
 H   -3.4819475187   -4.8814416819   -0.6776605783
 H   -2.1606161472   -7.2945209160    0.6868854925
 H   -3.8289590261   -7.2298178429    0.0858776373
 H   -2.4649049819   -7.1366812957   -1.0489646423
 H   -2.9088924959   -5.3120762981    2.0332949157