16

 C    0.0736983214    1.5707617405   -0.1691994531
 C   -0.0145297924    0.0918925262    0.1091665006
 O    1.1976305865   -0.6900512779    0.0875543819
 C    0.5043647107   -0.5755265930    1.3299515780
 C    1.2247733003    0.1354243886    2.4513124526
 O    2.1717602115   -0.7235255610    3.0618900839
 C   -1.1476921719   -0.6360305343   -0.5602042463
 O   -2.0771045889   -0.0915897848   -1.0969353633
 H    0.9434837871    2.0220619030    0.3080133802
 H    0.1406198101    1.7408600278   -1.2474801673
 H   -0.8321748697    2.0705516269    0.1840918738
 H    0.0217664420   -1.5032103548    1.6472240970
 H    1.6931497520    1.0573147183    2.0850785017
 H    0.5073544646    0.4053761819    3.2336366137
 H    2.8209733524   -0.9581177535    2.3893762470
 H   -1.0431886858   -1.7429619339   -0.5204021604