23

 C   -0.1579660305    1.5340237438   -0.0250749952
 C   -0.1125126151    0.0342787118   -0.2644492154
 O   -1.3477946471   -0.5235631251    0.1332042745
 C   -1.4149264897   -1.9203572139   -0.0526920054
 C   -2.7992132279   -2.3877972048    0.3903943404
 C   -3.0294905689   -3.8719629662    0.1699555773
 C   -2.2096549127   -4.8337851843    1.0048016966
 C   -4.3211815322   -4.3194797917   -0.3734704548
 O   -3.1662208650   -4.2487954975   -1.2126433934
 H    0.7867488179    1.9975485543   -0.3246748165
 H   -0.9673920689    1.9897426054   -0.6024290701
 H   -0.3302617669    1.7487201082    1.0335013328
 H    0.0774147059   -0.1822659793   -1.3295970562
 H    0.7136995938   -0.4238006133    0.3064596102
 H   -1.2569426130   -2.1824421498   -1.1115258084
 H   -0.6211675575   -2.4187536282    0.5290988186
 H   -2.9381928745   -2.1440564669    1.4505133301
 H   -3.5433775391   -1.8174168817   -0.1737030486
 H   -2.3938283528   -4.6742635172    2.0727914498
 H   -2.4642744390   -5.8671956493    0.7576531834
 H   -1.1380786668   -4.6996023560    0.8265230250
 H   -4.6791379378   -5.3255388752   -0.1558166992
 H   -5.1011834922   -3.5894548632   -0.5871671155