16

 O    0.3794331162    0.2007473077    1.0773312745
 C   -0.0676012392    0.1864361165   -0.2797091793
 C   -1.4646701603   -0.4455413589   -0.4266482573
 O   -1.9441876390   -0.2087477718   -1.7160443403
 C   -1.4804409795   -1.9641058539   -0.1604057744
 O   -2.0176524692   -2.7065040506   -0.9505903793
 N   -0.8585992044   -2.3518707183    1.0148479871
 C   -0.7711401374   -3.6390800850    1.5450576784
 O   -1.2896167534   -4.6272866955    1.1072032609
 H   -0.0837981523    0.9079191666    1.5387209050
 H   -0.1037104301    1.1963729669   -0.7028577663
 H    0.6710472945   -0.3880587204   -0.8456394518
 H   -2.1228741714    0.0186848290    0.3329117311
 H   -2.2689344975   -1.0716475013   -2.0274214259
 H   -0.3485249322   -1.6115136676    1.4917740172
 H   -0.1466404848   -3.6290925135    2.4607289505