21

 C   -0.1857811826    1.6269487944    0.1533127865
 C    0.0156334341    0.1176831626    0.1175094379
 C    1.1753939012   -0.5409551474   -0.7010601061
 C    2.1541635309   -0.0485231228    0.4048201273
 C    0.9190643507   -0.6193293853    1.1612276002
 C    0.9726207654   -1.8503482502    0.1663937185
 C   -0.2584873057   -2.7463075669   -0.0407352210
 C    2.1337846021   -2.7272919270    0.2896358201
 C    3.0368917135   -3.5176131519    0.3810310364
 H    0.7312796069    2.2007228579    0.3016725186
 H   -0.6392855036    1.9674284336   -0.7844175209
 H   -0.8761402306    1.8944961495    0.9612538509
 H   -0.9600676331   -0.3445172543   -0.0360899791
 H    1.3272702874   -0.5131305334   -1.7822187380
 H    3.0889352073   -0.5976480418    0.5103471307
 H    2.3227290645    1.0246112069    0.4732205747
 H    0.7733847736   -0.6825326867    2.2417546116
 H   -1.1926904484   -2.1952361959   -0.1502991333
 H   -0.1213579656   -3.3605848549   -0.9358224793
 H   -0.3657018658   -3.4283944936    0.8081762351
 H    3.8457892377   -4.2004272427    0.4639266089