17

 C   -0.0027168273    1.6284341672   -0.0707742188
 C   -0.0515362107    0.1106325628   -0.0275710814
 C    0.6878318006   -0.6483106277   -1.1701051712
 N    1.6199411186   -1.1413584806   -0.1494864546
 C    0.9909492613   -0.5751530063    0.9233146364
 O    1.1763726005   -0.6064443304    2.1119096533
 O   -1.3832620324   -0.3715011039    0.0990027246
 C   -1.9600444541   -0.2884755649    1.3265062246
 N   -3.1854943217   -0.5633992018    1.4424685485
 H    1.0162836492    1.9787458063   -0.2589572399
 H   -0.6599008098    2.0017701922   -0.8617228660
 H   -0.3340249148    2.0488737522    0.8831970972
 H    0.0719958045   -1.4229454382   -1.6327991829
 H    1.1496060967   -0.0159982993   -1.9336800985
 H    2.4017808649   -1.7772805502   -0.2026511777
 H   -1.2649831620   -0.0073246063    2.1234136571
 H   -3.4621996935   -0.4842011610    2.4192557393