17

 N   -0.1597853668   -1.1828712874   -0.2074457740
 C   -0.1055613731   -0.0329102885   -0.1082264256
 C   -0.0551730467    1.4329438451    0.0464828011
 C   -0.2128631231    1.9098412700    1.5217326147
 C    1.2680187907    2.3138279317    1.3989690697
 O    1.3086093028    1.9069088256    0.0047111741
 C   -0.9235225615    2.1035019438   -1.0024318266
 C   -0.6494298081    3.5080402011   -1.3849662403
 N   -0.3524499780    2.4049204632   -2.3174284780
 H   -0.9155903157    2.7360347396    1.6290021718
 H   -0.4388144233    1.1299036017    2.2473350585
 H    1.4947826541    3.3782711780    1.5113804857
 H    1.9664922220    1.7259238277    2.0026345925
 H   -1.9442785416    1.7273212469   -1.0265122207
 H   -1.4718215104    4.1525503455   -1.6804735653
 H    0.1882924996    4.0084702713   -0.9094209674
 H    0.6496897292    2.2215333549   -2.2900041001