16

 C    0.2216619499    0.9524829759   -0.3114066580
 O   -0.4298057755   -0.0013497511    0.5142207360
 C    0.4341384120   -0.6647600846    1.3598839220
 C    0.1423506261   -2.0457349283    1.8277594118
 O   -0.4597680247   -2.8148246096    0.7562073316
 C    0.6853320166   -2.6868735840   -0.0213120356
 N    1.0258911113   -3.2503478926   -1.0862629925
 C    1.3841634956   -1.7711282526    0.9347373369
 O    2.7332835281   -1.6645761184    1.1288106727
 H    0.9713232355    0.4768145980   -0.9569818445
 H   -0.5502342118    1.4122052133   -0.9313017543
 H    0.7143640271    1.7322880862    0.2873524583
 H    0.9078461892   -0.0464043232    2.1299661840
 H   -0.0121685105   -2.3989206434    2.8380108196
 H    0.2941195740   -3.8729506809   -1.4324044908
 H    3.1244449769   -2.5408505448    1.0258378329