19

 O   -0.0755343847   -0.0212840432    0.0374309272
 C    0.0282994424    1.1776917943   -0.0441487878
 C    1.3213814290    1.9291906498   -0.0538140534
 C    1.3645700647    3.1947894064    0.8852920692
 C    1.9180250131    4.0083921604   -0.2800378216
 C    3.0086519958    3.2370791517   -1.0070241011
 C    3.7333634659    2.1031012544   -0.2810819719
 C    2.6029075486    1.1002749100    0.0775761430
 C    1.5668770588    2.9030530279   -1.2598521069
 H   -0.8776037159    1.8242212255   -0.1240448922
 H    0.3571184409    3.5232308074    1.1582562468
 H    1.9652730054    3.0950769885    1.7961776079
 H    1.8155003580    5.0800297458   -0.4051160607
 H    3.5343499091    3.8043662296   -1.7677418473
 H    4.4872715437    1.6433810406   -0.9267640317
 H    4.2575879278    2.4648844618    0.6099882623
 H    2.7115147262    0.6707402460    1.0775494204
 H    2.5721190832    0.2675441488   -0.6315152305
 H    1.0533998280    2.9211420644   -2.2119475619