13

 C    0.0009012397    1.3057238026    0.0095205282
 C    1.2788195169    1.8147593502   -0.0001238955
 N    2.0966892993    0.7085314883   -0.0140680546
 C    3.4402934190    0.5149530761   -0.0281672717
 N    3.9610401735   -0.6754391950   -0.0396785414
 C    3.0829136874   -1.7247885269   -0.0368374417
 N    1.7747905353   -1.6613579452   -0.0237889934
 C    1.2399464189   -0.4295785398   -0.0119154660
 N   -0.0238508289   -0.0614658047    0.0023457941
 H   -0.9168606318    1.8756062898    0.0215208484
 H    1.6678484341    2.8190734621    0.0015449473
 H    4.0717994166    1.3995760904   -0.0295051340
 H    3.5357169199   -2.7115459481   -0.0465862932