21

 C   -0.0059786326    1.5684668926    0.0176100527
 C    0.0445455283    0.0397082315    0.0214647470
 C    0.7729840939   -0.5695649312   -1.2028924823
 C    1.2819887333   -1.9486041818   -0.7338655403
 O    2.4753418828   -2.3960945032   -1.3690886536
 C    1.5270858195   -1.7853353764    0.7526333220
 O    1.5622061076   -2.9453289936    1.5248802124
 C    2.2917181284   -0.5624909710    1.1966873608
 C    0.7718554223   -0.5763700348    1.2173839707
 H    1.0039157014    1.9921042227    0.0446172041
 H   -0.5053523721    1.9462686013   -0.8812442656
 H   -0.5511628376    1.9497249442    0.8875102572
 H   -0.9862613225   -0.3400641552    0.0355549600
 H    0.1262074581   -0.6333861510   -2.0832228571
 H    1.6383955551    0.0413377636   -1.4829526113
 H    0.4906729479   -2.7064901602   -0.8453583579
 H    2.2604916095   -2.6419830484   -2.2740278772
 H    2.3585598778   -3.4255683836    1.2699321218
 H    2.7744291756   -0.6526200544    2.1632906074
 H    2.8303403753    0.0433772848    0.4760155829
 H    0.2848555778   -0.5785988259    2.1864785464