19

 C   -0.0177797781    1.5614482015   -0.0227645371
 C   -0.0338307718    0.0587353578    0.0870669873
 C    1.1946405030   -0.7878519165   -0.2281982588
 C    0.6290497589   -0.7458646690    1.1872826013
 C    1.4064330568   -0.1672918275    2.3411422558
 N   -0.3427823942   -1.7555473602    1.5223010674
 C   -1.4053595159   -1.7654063067    0.6234000212
 O   -2.2431820301   -2.6292649746    0.4964357977
 N   -1.3154426339   -0.5749334411   -0.0920620638
 H    0.9636381793    1.9675111403    0.2353971349
 H   -0.2407131334    1.8767871326   -1.0487362338
 H   -0.7668003503    2.0079431750    0.6383753614
 H    1.0680875595   -1.6925945142   -0.8135946143
 H    2.1243376417   -0.2545730604   -0.3983536002
 H    2.0372660651    0.6643977226    2.0170177058
 H    0.7314714545    0.1895320601    3.1251066523
 H    2.0664161652   -0.9239825122    2.7811389300
 H   -0.0687543182   -2.6445121353    1.9110948609
 H   -1.8058763083   -0.5359958421   -0.9721014779