18

 C   -0.0231434023    1.4723914398    0.0089218517
 N    0.0134869329    0.0178508963   -0.0210390196
 C    0.6761074404   -0.5015931339   -1.2108830477
 C    0.3947891403   -2.0016721027   -1.3576040278
 C    0.7672585136   -2.7889578826   -0.1176831705
 O    1.1715329464   -3.9229114125   -0.1313590477
 C    0.5972932686   -2.0449043354    1.2411587603
 O    0.5223229909   -2.6644436894    2.2697826930
 C    0.6012507170   -0.5219497578    1.1980428346
 H    0.9829504255    1.9308702350    0.0487452271
 H   -0.5340560391    1.8468655935   -0.8828986225
 H   -0.5814266018    1.8086416918    0.8877937495
 H    0.2859442097    0.0273048687   -2.0854368534
 H    1.7695255931   -0.3189550063   -1.1886144178
 H   -0.6865873951   -2.1343968462   -1.4998879493
 H    0.9025605895   -2.4388399575   -2.2214912532
 H    1.6629028438   -0.2105972219    1.3244863889
 H    0.0591427265   -0.1572121389    2.0750841443