17

 N   -0.4739120015    1.3227498329    0.0884820674
 C    0.4756345648    0.2426626147   -0.1920099003
 C    0.8570791158   -0.4625840774    1.0689502225
 C    0.2446243816   -0.7657479589    2.2429503380
 C   -1.1363040339   -0.4997941672    2.7616533398
 O   -1.7318134780   -1.6829838408    3.2689536370
 N    1.1404553803   -1.4755345318    3.0467111594
 C    2.2136831920   -1.5643876019    2.3363680275
 O    2.1354592531   -0.9714174335    1.1267603352
 H   -0.0099121615    2.0675502336    0.5995606132
 H   -0.8055236428    1.7235678430   -0.7827912107
 H   -0.0189561884   -0.4597740988   -0.8765622993
 H    1.4053369879    0.5579059975   -0.6935215904
 H   -1.0863967026    0.2780473900    3.5422044624
 H   -1.7716900758   -0.1189043053    1.9606613019
 H   -1.0639584349   -2.1033597832    3.8238814142
 H    3.1481176041   -2.0428873427    2.5848366119