14

 N    0.0217661520    1.1848195556   -0.4050645963
 C    0.0535271983   -0.0165414807   -0.0296133375
 N    0.9618083894   -0.8939532442    0.5754620453
 C    0.0951516669   -2.0840976125    0.4773546476
 C   -0.9745456347   -1.1315203002   -0.0911843645
 O   -2.3166786178   -1.0599755465    0.3125500012
 C   -2.0548525795   -1.3912997146   -1.0582841937
 C   -2.4416172704   -0.4263281592   -2.0637681722
 N   -2.7744260567    0.2855172619   -2.9104143259
 H    0.9054250603    1.6709918908   -0.2488210568
 H    1.9647147168   -0.8814080370    0.4647116872
 H    0.4387062010   -2.8543548910   -0.2213734416
 H   -0.1534940300   -2.5347234776    1.4422216029
 H   -2.2707789255   -2.4240403352   -1.3276894857