21

 C    0.1278418764    1.5802867791    0.1237261890
 C    0.1516369160    0.0619378921    0.0492415950
 C    0.7868949725   -0.5333318050   -1.2119480137
 C    1.2459063730   -1.9129835616   -0.7193873115
 C    2.3505071673   -2.5611951495   -1.5709632907
 C    2.7737624287   -3.8634446608   -1.0666497512
 C    3.1028913121   -4.9350430358   -0.6326709902
 C    1.6676377132   -1.5978241307    0.7285725183
 O    0.9326880585   -0.4468545999    1.1363931546
 H    1.1390074104    1.9854814586    0.0166743679
 H   -0.5030794029    1.9952125721   -0.6691216677
 H   -0.2721452196    1.9085663774    1.0871119666
 H   -0.8800255322   -0.3183249204    0.1450006855
 H    0.0928216396   -0.5817992386   -2.0553330377
 H    1.6518150824    0.0710185519   -1.5159593641
 H    0.3837085509   -2.5896573202   -0.7000103092
 H    1.9976092974   -2.6695251236   -2.6045011522
 H    3.2155621936   -1.8852368005   -1.6116013037
 H    3.4026809867   -5.8815627802   -0.2564862805
 H    1.4640636130   -2.4285433360    1.4131077843
 H    2.7448106334   -1.3779529282    0.7829057111