18

 C    0.0678745038   -1.2436224708   -0.1237428477
 C    0.0298563162   -0.0430798775   -0.1048988068
 C   -0.0177071724    1.4156271919   -0.0535332804
 N    1.3072763190    1.9984918344    0.0769928290
 C    2.0475655100    1.7869899835    1.3363428199
 C    2.5938078518    3.2415629167    1.2074067222
 C    1.3965384725    3.4619551619    0.2343217761
 C    2.6952968796    4.0624783840    2.3927776899
 C    2.7709570285    4.7434239085    3.3810694641
 H    0.1006916249   -2.3046196230   -0.1512837353
 H   -0.4699641054    1.8012066669   -0.9767636956
 H   -0.6874701657    1.7231776632    0.7753708455
 H    1.3939195850    1.6846235799    2.2164052041
 H    2.7689189508    0.9663367745    1.3211090114
 H    3.5362486400    3.2443050816    0.6533195298
 H    1.5828540100    4.0206138124   -0.6877962563
 H    0.5343743828    3.9012154293    0.7611493393
 H    2.8422485085    5.3443293325    4.2534882309