17

 O   -0.0166367903   -0.0264770491   -0.1277743836
 C   -0.0319539194    1.1702777415   -0.0027194595
 C   -1.2723158922    2.0760524317    0.1037256460
 C   -0.6339904616    3.4038498831    0.5096593657
 O   -0.0271192807    3.1697845288    1.8101537494
 C    1.3215830985    2.8898278838    1.4185766641
 C    1.6987161630    4.1388461155    0.5918321285
 C    0.6469630101    3.5316332489   -0.3648688240
 C    1.1576390913    2.1080577451    0.0535232548
 H   -1.7661611022    2.1375621072   -0.8749430524
 H   -1.9910385307    1.6933759896    0.8312893881
 H   -1.2947704489    4.2704524989    0.5534469947
 H    1.8897084331    2.5025636656    2.2621847352
 H    1.5002226080    5.1087572268    1.0540267104
 H    2.7066388559    4.0988371877    0.1741998775
 H    0.5210506181    3.8322789581   -1.4041942303
 H    2.0848502279    1.7397828568   -0.3794633744