20

 C    0.0063528063    1.5850724559    0.0004845970
 C   -0.0225620771    0.0478423629    0.0673893424
 C   -1.4077894376   -0.5174403857    0.0051619594
 N   -2.1077541955   -0.7998694600    1.1085103243
 N   -3.2641734012   -1.2619951808    0.6469615818
 C   -4.3542990856   -1.6267722619    1.5252265046
 N   -3.3797176550   -1.2981577240   -0.6761766324
 C   -2.2075833341   -0.8299657212   -1.1158814927
 C   -1.8998433312   -0.7178012069   -2.5740136758
 H    1.0345097833    1.9577531407    0.0442277461
 H   -0.4459377055    1.9507613003   -0.9269874231
 H   -0.5508154634    2.0175560849    0.8366536296
 H    0.5729037159   -0.3629179631   -0.7566706621
 H    0.4486903471   -0.2863810490    0.9968734886
 H   -4.9991045248   -0.7653396500    1.7286827840
 H   -4.9407266048   -2.4085554553    1.0422001716
 H   -3.9336150372   -1.9908677310    2.4625664696
 H   -1.7863870201    0.3265755312   -2.8859112680
 H   -0.9668590079   -1.2333386399   -2.8273566406
 H   -2.7069361317   -1.1609969273   -3.1608615140