17

 C   -0.1053173715    1.6223214353    0.1958544890
 C   -0.0060707739    0.1118891132    0.0309976047
 C    0.6706177776   -0.5157834857   -1.2399587804
 C    1.2432636512    0.4421961547   -2.2976331628
 C    2.0555972933   -0.2756886713   -3.2777373481
 N    2.6958862166   -0.8747956981   -4.0303835570
 N    1.6642366630   -1.0990568948   -0.3402625353
 C    1.1170532375   -0.6073809564    0.8245834495
 O    1.4176882778   -0.7183030116    1.9807235859
 H    0.8560827699    2.1204841061    0.0399674909
 H   -0.8355622105    2.0566984228   -0.4944870885
 H   -0.4278254632    1.8536346324    1.2148521744
 H   -0.9752140445   -0.3558280353    0.2279593789
 H    0.0448304455   -1.2644513997   -1.7380427440
 H    0.4261241935    0.9530712117   -2.8193579098
 H    1.8631832616    1.2082899055   -1.8226138014
 H    2.3903340460   -1.7817874689   -0.5054194560