13

 N   -0.1015915531    1.3022319113    0.0100119384
 N    1.0619008597    1.9560478323    0.0027422167
 H    0.9530709662    2.9598317692    0.0094481548
 C    2.3065497880    1.4212393364   -0.0120174956
 C    2.4914301032    0.0558167545   -0.0214891208
 C    1.3267729518   -0.7149067452   -0.0148712000
 N    1.0939493716   -2.0250564460   -0.0200885626
 C   -0.2776305571   -2.0706557983   -0.0074212239
 N   -0.9629919619   -0.9274101455    0.0055230056
 C    0.0371566214   -0.0075045031    0.0012931536
 H    3.1149736927    2.1408270530   -0.0155672654
 H    3.4863262575   -0.3707201619   -0.0332812034
 H   -0.7869494999   -3.0278121268   -0.0080386472