15

 O   -0.0901800732    1.4540229322   -0.0988657116
 C    0.0483124698    0.0442650959   -0.0962364609
 C   -1.3479527461   -0.5387475597    0.1464799940
 C   -1.3541309921   -2.0275285563    0.1821187725
 C   -1.6352881803   -2.9449947764    1.1483023595
 C   -1.4288435545   -4.1900535993    0.4981577489
 N   -1.0542243798   -4.0441575287   -0.7481699707
 O   -1.0057043927   -2.6661620667   -0.9527142349
 H    0.7689106990    1.8414395239   -0.2897140988
 H    0.4385041970   -0.3305444221   -1.0532092982
 H    0.7312499283   -0.2960736336    0.6977507619
 H   -1.7353927081   -0.1567626737    1.0948238165
 H   -2.0129343730   -0.1784588651   -0.6466888618
 H   -1.9440924235   -2.7605071598    2.1634871237
 H   -1.5416447507   -5.1887972106    0.8962540299