14

 N    0.0819495930    1.3600700103    0.0400934641
 C    0.0510706646   -0.0226595063   -0.0026004700
 N   -1.0279787828   -0.6641448519   -0.3994672415
 O   -0.6658841334   -2.0233955039   -0.3964900138
 C    0.6062360299   -2.1371100551    0.0079786162
 C    1.1838566394   -3.5180446095    0.0803429366
 O    2.3091558512   -3.5801483246    0.9336698712
 C    1.1303118674   -0.9150381537    0.2827582720
 H    0.6308897861    1.7417060397    0.7964739726
 H   -0.8386680183    1.7761753208   -0.0046771104
 H    0.3902237813   -4.2232510236    0.3693429233
 H    1.5392288330   -3.8280578470   -0.9091491035
 H    2.0187801149   -3.3356909141    1.8189369284
 H    2.1315598135   -0.6819102911    0.6029232649