15

 O    0.0540856956    1.4182484533    0.0373387625
 C   -0.0830624763    0.0433661039    0.0118295199
 C   -0.4644793608   -0.8067648652    1.1841006163
 O   -1.4142438892   -0.1035700152    1.9985894163
 C   -2.4037641841   -0.1350746633    0.9548554109
 C   -3.0178840278    1.1983382247    0.6106831011
 O   -2.5864615059    2.2651343203    0.9717385554
 C   -1.3847619646   -0.7417351510   -0.0417131207
 O   -1.7186721746   -1.6960686505   -0.9717599145
 H   -0.5135471671    1.7719673195    0.7395542997
 H    0.6758888168   -0.4188107223   -0.6166511179
 H    0.1115518806   -1.5970181139    1.6510955971
 H   -3.1952964980   -0.8615292878    1.1858436812
 H   -3.9190065904    1.1257581389   -0.0384006262
 H   -1.6018843543   -1.3246836615   -1.8532738312