18

 C    1.1623236554   -0.1976084060    0.9579911108
 N    0.0137579210   -0.0929895137    0.0645970233
 C   -0.9465709284    0.8603579400    0.2986567233
 O   -0.9749133693    1.5929936728    1.2644781181
 C    0.0409537144   -0.8008234078   -1.1723938587
 C    0.0201600734   -2.3235546290   -1.1691920253
 O   -0.1025129336   -2.9214864998    0.0931099858
 C   -1.1952472226   -1.5656315003   -1.6405280456
 O   -2.3360602566   -1.6136324988   -0.8512494381
 H    1.3091392642   -1.2361227743    1.2615310274
 H    2.0744928519    0.1636568282    0.4661352376
 H    0.9588231137    0.4247732720    1.8291939355
 H   -1.7102896994    0.8744821295   -0.4967877713
 H    0.6579107322   -0.3627966324   -1.9582569706
 H    0.6669959117   -2.8432808500   -1.8728544046
 H   -0.4958976073   -3.7931673935   -0.0298814140
 H   -1.4436240328   -1.5289151350   -2.6954792278
 H   -2.0543539479   -1.9146696019    0.0238020741