19

 C    0.0124004485    1.4828768137   -0.0480760925
 C    0.0052121758    0.0271976929   -0.0158385719
 C   -0.0025749151   -1.1768823559    0.0145168604
 C   -0.0201728049   -2.6290618455    0.0440683551
 C    0.4678920596   -3.2758964562    1.3963527900
 C   -0.8232669240   -4.0528379846    1.7216747177
 C   -1.2017339209   -4.7312893726    0.3865105026
 C   -1.4551797934   -3.2428763682    0.0677739930
 O   -1.8563132787   -3.0521289559    1.4544695606
 H    1.0349177589    1.8769433922   -0.0604402137
 H   -0.4988050878    1.8653403989   -0.9387488947
 H   -0.4931566617    1.9027221954    0.8286831926
 H    0.5456144581   -3.0226013840   -0.8080163566
 H    1.3425375439   -3.9188815380    1.2700556996
 H    0.6837435999   -2.5196198939    2.1516197140
 H   -0.9143521007   -4.5386954460    2.6928560210
 H   -0.4410275520   -5.2818605713   -0.1738843372
 H   -2.1323717880   -5.2936720761    0.4625907714
 H   -2.1757468776   -2.8837808348   -0.6656525713