20

 C   -0.0128791367    1.5647108885   -0.0469718803
 C    0.0206280558    0.0296216402   -0.0256161218
 C    0.6530094692   -0.5074607761   -1.3170821553
 C    0.7535653648   -0.5058955001    1.2482838651
 C    0.8486714982   -2.0390135746    1.2669122272
 O    2.1108103839   -0.0436838684    1.2830515823
 C    0.0396755784   -0.0551097341    2.4558466071
 C   -0.5318875595    0.3200032634    3.4454228525
 H    0.9948503551    1.9771792902   -0.1733884797
 H   -0.6141044702    1.9211547803   -0.8885833227
 H   -0.4423290369    1.9733708081    0.8718955885
 H   -1.0135779733   -0.3321407736    0.0418264097
 H    1.7261082614   -0.2939570144   -1.3329764082
 H    0.5174213832   -1.5859984828   -1.4303516627
 H    0.1973798377   -0.0261315501   -2.1880027208
 H    1.5060077421   -2.3793651141    0.4645611068
 H    1.2676571501   -2.3696012868    2.2193110273
 H   -0.1387040189   -2.4903735026    1.1401618461
 H    2.0995274000    0.8849534777    1.5369730999
 H   -1.0348054445    0.6457886295    4.3225052589