21

 C    0.1273357419    1.5101972733   -0.0046148931
 C   -0.2005595131    0.0140048658   -0.0785537544
 C    0.5297251357   -0.6682058720   -1.2195673674
 C    1.9235660893   -1.2330494546   -1.1668952975
 C    2.1971047734   -1.9615164201    0.1586690114
 C    1.0038963997   -2.9327526524   -0.1718039202
 C   -0.0780620632   -3.1674498746    0.8486786782
 O   -1.2556441482   -2.9814587915    0.6725364133
 C    0.7148568045   -2.1444916229   -1.4506148817
 H    1.1990042827    1.6733793851    0.1531175943
 H   -0.1500292005    2.0224210594   -0.9328288047
 H   -0.4116194747    1.9942771938    0.8155828966
 H    0.0422709912   -0.4545382771    0.8799098245
 H   -1.2791903736   -0.1293135160   -0.2093969621
 H    0.3550470089   -0.1649231690   -2.1710851572
 H    2.7027633822   -0.9155237298   -1.8492691158
 H    3.1575397052   -2.4787611906    0.1783464917
 H    2.1091093094   -1.3630429101    1.0708705122
 H    1.4217239103   -3.9220254087   -0.4011173575
 H    0.2976682297   -3.5630675492    1.8236125534
 H    0.4176363595   -2.6035456189   -2.3856475140