21

 C   -0.1542248300    1.4366515849    0.3363173514
 C    0.0670613011   -0.0388522126    0.0736065495
 C   -1.1642667068   -0.7820747471   -0.4052375986
 C    1.4177585111   -0.4836168651   -0.4463639265
 C    1.0082750593   -0.8124807908    0.9693259237
 N    1.6944425459   -0.1533752856    2.0422852222
 C    1.0416114500    0.0327119024    3.2483251322
 N    1.8833012543    0.4323136500    4.2826160743
 O   -0.1497621075   -0.1524621721    3.4010992672
 H    0.7602906545    1.9262121493    0.6789595059
 H   -0.4899049145    1.9439631594   -0.5754568903
 H   -0.9186269746    1.5764105673    1.1075455833
 H   -1.5356461016   -0.3632319009   -1.3478164545
 H   -0.9546737015   -1.8432929278   -0.5731428780
 H   -1.9670286642   -0.7122883926    0.3369717640
 H    1.4699300253   -1.2975294909   -1.1618792300
 H    2.1802762668    0.2778310955   -0.5764470641
 H    0.7195595622   -1.8422918335    1.1738420331
 H    2.6918916645   -0.3028256650    2.0882559764
 H    2.6841377620    0.9960966576    4.0381812780
 H    1.3696381536    0.7810236477    5.0779731608