16

 C   -0.0756459509    1.5062215061    0.0037295147
 N    1.2331562847    0.8306103188    0.0013911441
 C   -0.0090986555    0.0223936361    0.0066628833
 C   -0.3035737803   -0.8544364697    1.2322941005
 C   -0.6532999327   -2.2580507382    0.6620574351
 C   -0.7305081414   -2.0342496882   -0.8305548339
 C   -0.3871078851   -0.7934733481   -1.1757163684
 H   -0.3131848545    2.0338263274    0.9246982131
 H   -0.4137913589    2.0075942332   -0.9006486788
 H    1.6315610898    0.8476368206   -0.9354982467
 H    0.5594878662   -0.8722803283    1.9009536864
 H   -1.1491212704   -0.4485423666    1.7957031892
 H    0.1086085563   -3.0096787423    0.9067415658
 H   -1.5969766827   -2.6426345604    1.0664944306
 H   -1.0241889616   -2.8160935459   -1.5221819215
 H   -0.3530242532   -0.3985452645   -2.1861597035