19

 C   -0.1831528357    1.5345497853   -0.0038987010
 C    0.0810641309    0.0311371783    0.0280378515
 C    0.8681416202   -0.4947125409   -1.1916436706
 C    1.3478169735   -1.8984770734   -0.7620708479
 C    2.4795641780   -2.4387676755   -1.4892917962
 C    3.4270283685   -2.8603849174   -2.0962518035
 C    1.5797744905   -1.7541693958    0.7727446689
 O    2.1622008857   -2.5396144102    1.4665961415
 C    0.9233324563   -0.4485023812    1.2223554887
 H    0.7582386885    2.0956134864   -0.0271508376
 H   -0.7613066877    1.8150793599   -0.8905876064
 H   -0.7447421126    1.8603760183    0.8776110853
 H   -0.8840916851   -0.4938237634    0.0575377422
 H    0.2721578736   -0.5165917917   -2.1071095543
 H    1.7395081252    0.1439349962   -1.3794785220
 H    0.4995399661   -2.5969741370   -0.8435093665
 H    4.2643900822   -3.2436390573   -2.6246638467
 H    1.7360355777    0.2628804954    1.4287112198
 H    0.3754346640   -0.5856625861    2.1578361549