21

 C    0.1975469874    1.4711208862   -0.0274739855
 C    0.0638681361   -0.0469211766    0.1004319745
 O    0.2420647465   -0.4654558362    1.4520357320
 C   -1.3173860992   -0.5389636602   -0.3394862675
 C   -1.4391069854   -2.0460598597   -0.3719071451
 C   -1.7562053061   -2.8254925600    0.8666708047
 C   -2.7997050626   -2.7308451559   -0.2378712695
 C   -3.9998756273   -1.9710519208   -0.0462314886
 C   -5.0151452304   -1.3417312201    0.1027872351
 H    1.1849915966    1.8052393032    0.3121133480
 H    0.0788917572    1.7935499122   -1.0671170148
 H   -0.5597923667    1.9734936062    0.5828687245
 H    0.8262450365   -0.5241581512   -0.5401664599
 H    1.1041316090   -0.1563736819    1.7472392148
 H   -2.0686635483   -0.1186502323    0.3381571245
 H   -1.5294153692   -0.1323125111   -1.3360386099
 H   -0.7738595703   -2.5329230483   -1.0815764057
 H   -1.2799267229   -3.7870597523    1.0218145041
 H   -1.9428224119   -2.2606351181    1.7715214027
 H   -2.9300338293   -3.6239368113   -0.8424703570
 H   -5.9111995898   -0.7896677018    0.2404098587