15

 O   -0.6809099346    0.7152895075   -0.6383444308
 C    0.3402005955    0.7752542808   -0.0037974043
 C    1.2239264497    2.0152649525    0.0662756539
 O    2.5672457870    1.6676791176    0.3514823809
 C    3.2990942792    1.8991421194   -0.8420367101
 O    2.6991239600    3.0168579069   -1.4482114695
 C    1.3069992096    2.8796289976   -1.2454838672
 C    0.6197433595    2.2601278520   -2.4719966189
 O    1.2054751797    1.5574274044   -3.2522384660
 H    0.7080782559   -0.0687217736    0.6170075392
 H    0.8443566756    2.6199065716    0.9020376937
 H    4.3316186652    2.1418550831   -0.5811203845
 H    3.2514411063    1.0242261771   -1.5066264237
 H    0.8857954752    3.8770554678   -1.0810083177
 H   -0.4437264537    2.5398033954   -2.6073473948