15

 N   -0.0746560769    0.9542461480    0.6830483973
 C   -0.0085978953   -0.1016353228    0.0090769055
 O    1.1363095576   -0.7207383424   -0.4327991050
 C    0.7978693383   -1.9319619967   -1.0806699114
 C    0.7974476431   -3.2187982041   -0.2342544348
 N    0.0543697887   -2.8932043254    0.9952942798
 C   -0.7051919196   -3.2359861873   -0.2193987443
 C   -0.7515240849   -1.9524840652   -1.0697959986
 O   -1.1228899885   -0.7512140967   -0.4274587044
 H    0.8609203825    1.2922681569    0.8938700136
 H    1.3065977806   -2.0034150223   -2.0424278723
 H    1.5062756778   -4.0354023335   -0.2738583809
 H    0.0682348997   -3.7146132497    1.5968538921
 H   -1.3950297473   -4.0691951058   -0.2438052233
 H   -1.2697862058   -2.0456869330   -2.0245460034