15

 O   -0.1690420150    1.3667724214   -0.2198755966
 N    0.0338895174   -0.0039177812   -0.0060654517
 C   -1.0658874905   -0.6093623372    0.1428341295
 C   -2.5547382973   -0.2622933167    0.0168124441
 C   -2.8257204083   -1.7752433056    0.1543517631
 C   -1.3406149047   -2.0718497208    0.3014956594
 N   -2.2681357532   -2.1963684613    1.4285684459
 C   -2.5385690443   -3.4190177372    2.0261765238
 O   -1.7206048808   -4.2715261381    2.2672493382
 H    0.7315889456    1.6935095202   -0.3222258227
 H   -2.9898864276    0.3771154660    0.7870094116
 H   -2.7868219257    0.1385456116   -0.9736703647
 H   -3.5769157706   -2.3695629201   -0.3502455513
 H   -0.7528409811   -2.9260338568   -0.0053136923
 H   -3.5999382140   -3.4870446042    2.3330219138