15

 O   -0.0002620993   -0.0061164779    0.0943743768
 C   -0.0025929743    1.1959123455   -0.0130494104
 N   -1.1072432518    2.0314330402   -0.1042488279
 C   -0.6272998648    3.4296528464    0.0241872135
 C    0.6187968987    3.3189648594   -0.8848242959
 C    1.2087606134    2.1693712749   -0.0238040527
 C    1.1481559504    2.8287345887    1.3611631937
 C    0.0564399492    3.5966046822    1.3940125881
 H   -1.9673895968    1.7328236967    0.3307355507
 H   -1.3971112802    4.1491400251   -0.2493614037
 H    0.3677762033    3.0314371138   -1.9089776830
 H    1.2417947649    4.2143243036   -0.8725854915
 H    2.1457222939    1.7023158220   -0.3153413576
 H    1.8426035752    2.6155534058    2.1621731232
 H   -0.3387227318    4.1653495737    2.2248990267