18

 C   -0.1214842631    1.3678470227    0.3702143676
 O   -0.2109213841   -0.0330071523    0.4860395897
 C   -1.1507654588   -0.5929858188   -0.4122796584
 C   -1.1258051037   -2.0776955929   -0.2790171154
 C   -2.1357400635   -2.9424289110    0.0269755642
 C   -3.5809751320   -2.7713635443    0.3353456289
 O   -1.6686709027   -4.2049717677    0.0313683797
 N   -0.3051079109   -4.1986308634   -0.2680530736
 C   -0.0040790113   -2.9401875296   -0.4489350541
 H    0.6293178204    1.7063551695    1.0877524174
 H    0.1867452653    1.6765560665   -0.6416047789
 H   -1.0801798470    1.8598609717    0.5997760348
 H   -2.1626395647   -0.2045717356   -0.2091253056
 H   -0.9008618594   -0.2917425711   -1.4448840147
 H   -4.2065235466   -3.2218141428   -0.4427230530
 H   -3.8327025849   -3.2571362333    1.2831836658
 H   -3.8343022458   -1.7121236628    0.4096186466
 H    1.0145879029   -2.6687426847   -0.6882037510