19

 O    0.0345190555    1.4465007737    0.0132870392
 C    0.0121059752    0.0396349461    0.0319081683
 C   -1.3577416841   -0.6130529214   -0.3037494721
 C   -1.5068395209   -0.1010338854   -1.7552188357
 O   -0.1433693853   -0.0533668092   -2.2546682651
 C    0.6850803122   -0.6008028743   -1.1958151215
 C    0.3748774589   -2.0848146009   -1.0890275318
 C    0.1600768708   -2.7044620027    0.2715914212
 C   -1.0135420983   -2.0965675047   -0.4528488947
 H    0.0440212051    1.7078603177   -0.9163782721
 H    0.4161652260   -0.2644534530    0.9957992259
 H   -2.1858015828   -0.3569466369    0.3577862944
 H   -2.1067286759   -0.7719053325   -2.3794464035
 H   -1.9364074651    0.9056084746   -1.8057426632
 H    1.7160606649   -0.3123025462   -1.4030663743
 H    0.6263681509   -2.7161204695   -1.9331102329
 H    0.1742873568   -3.7892376219    0.2874708881
 H    0.5761426321   -2.2623076923    1.1686503121
 H   -1.7900023160   -2.7589445812   -0.8208522422