17

 C   -0.3107506554    1.5484370689   -0.1214023699
 C    0.0189295194    0.0691404221   -0.0011361797
 O    0.7510874743   -0.3912112246   -1.1534089430
 C    1.8992520724   -1.0499069292   -0.8223865973
 O    2.6735709166   -1.4301841226   -1.6494039471
 C    1.9968889942   -1.2031887953    0.6906166666
 C    3.3935156912   -0.9928596292    1.2727451656
 C    0.9156593686   -0.2656935418    1.1974248302
 O    0.7800762327    0.1704691346    2.3090431667
 H    0.6023194090    2.1376872083   -0.2429669097
 H   -0.9604560600    1.7281874618   -0.9806941809
 H   -0.8185105675    1.8764669890    0.7889536733
 H   -0.9033697421   -0.5232879020    0.0724378649
 H    1.6537360719   -2.2250456926    0.9160071004
 H    3.7560762801    0.0168922358    1.0618839455
 H    3.3706515001   -1.1276666243    2.3561642265
 H    4.0930416345   -1.7052575288    0.8311971079