17

 N    0.2869832782    1.1511522421   -0.3593579250
 C   -0.0308758482   -0.0175181601    0.0094080810
 N   -1.3336438038   -0.4464029179    0.2364312642
 C   -2.5114206259    0.2764914147    0.1167123038
 O   -2.6382125989    1.4198703130   -0.2158964915
 O   -3.5295253538   -0.5633650655    0.4674976896
 C   -4.8257579904   -0.0039941718    0.3737183606
 C   -5.6646791211   -0.3638900217   -0.8141780833
 C   -5.9472793565   -0.9727491188    0.5471006578
 H    1.2987912828    1.2150668057   -0.4569320796
 H    0.6698511355   -0.8410438784    0.1972466200
 H   -1.4535189142   -1.4007477243    0.5351029691
 H   -4.8885826596    0.9950050526    0.7865747186
 H   -6.3387886424    0.3869381884   -1.2099468346
 H   -5.2118416877   -1.0091267386   -1.5581202828
 H   -5.6789448034   -2.0135069970    0.6881962453
 H   -6.8217795007   -0.6503734323    1.1004514969