17

 C   -0.0691258886    1.5457581650    0.0498967420
 C    0.0288940598    0.0115706548    0.0125899772
 C    0.8113522693   -0.5269058852   -1.2026758439
 C    1.9779533559   -1.3548763258   -0.6243789746
 O    2.8129021313   -1.9283513608   -1.2941314241
 C    1.8666807710   -1.3008637346    0.8253019909
 C    0.7918143328   -0.5616955772    1.1980535750
 N    0.3319608962   -0.3386887399    2.4570653901
 H    0.9283186380    1.9975192702    0.0485789401
 H   -0.6088214587    1.9120483310   -0.8282565672
 H   -0.6037729455    1.9112663218    0.9339231621
 H   -0.9903538838   -0.3964320036    0.0311995802
 H    0.2017515788   -1.1601834497   -1.8534369545
 H    1.2131344590    0.2764926961   -1.8283900380
 H    2.5589206829   -1.8028605788    1.4892403798
 H    0.9115375254   -0.5782752015    3.2444362360
 H   -0.3361443337    0.3961312484    2.6151742287