15

 C   -0.2797616336    1.3142809911   -0.3221757867
 N    0.9810299041    1.2617592563    0.4197107074
 C    0.2602217963   -0.0040912414    0.1312504361
 C   -0.3079122986   -0.7141973382    1.2419083656
 C   -0.8005889780   -1.3223461431    2.1585553262
 C   -1.3668748954   -2.0653366590    3.2495671874
 C   -1.8657045679   -1.3971271689    4.4683155276
 O   -2.7751091921   -1.9124177485    3.5057528966
 H   -1.1096112806    1.7544290935    0.2212662879
 H   -0.2653131298    1.5202070510   -1.3893058700
 H    1.7671185628    1.3456002168   -0.2203081943
 H    0.6739291935   -0.6387967409   -0.6496375249
 H   -1.0163769750   -3.0922747191    3.3479688525
 H   -1.8264085907   -1.9300261363    5.4177264645
 H   -1.8103496651   -0.3121497933    4.5312392641