16

 C   -0.1166102495    1.2694514133   -0.4020204071
 N   -0.0525117274   -0.0368860572    0.2279875014
 C   -1.1019216972   -1.0574671316    0.2184434698
 C   -1.0252215533   -1.8951693686   -1.0230242154
 O   -0.7301862854   -1.2945797297   -2.2445883913
 C   -0.0006636747   -2.1351043426    0.0708688463
 O    0.1638235719   -3.3901966880    0.5949530656
 C    0.9826204525   -0.9575469570    0.0667413717
 O    2.1693681097   -0.8195701188   -0.0511875238
 H    0.9051247999    1.6494118008   -0.4794196232
 H   -0.5553536609    1.2095900463   -1.4043428218
 H   -0.7008885192    1.9633587860    0.2097286358
 H   -1.9456562023   -1.0066901844    0.8943665417
 H   -1.7621816099   -2.7017584498   -1.0626289910
 H   -0.1342612694   -1.8722439913   -2.7342275849
 H    0.5635623952   -3.3106884674    1.4687724762