19

 C   -0.0989713848    1.4792000563   -0.0676555849
 C    0.0152856848   -0.0149530234    0.0238312646
 O   -1.1708554974   -0.6660444199   -0.3646718572
 C   -1.2638607112   -1.9362715727    0.2625285556
 C   -0.2116264687   -1.9901520114    1.4082656584
 O    0.5935124318   -3.1777364046    1.3724169517
 C    0.6625699095   -0.7834872596    1.1590300683
 C    1.3151547862   -0.7462432588   -0.2164632378
 O    1.3534899060   -1.8814981428   -1.0233631797
 H    0.8458957043    1.9563444349    0.2063462836
 H   -0.3476235672    1.7769143822   -1.0913692842
 H   -0.8841343401    1.8532533284    0.5972851088
 H   -2.2900409523   -2.0576791077    0.6293305227
 H   -1.0437373421   -2.7355679993   -0.4545464973
 H   -0.6950863494   -1.9139738681    2.3907428482
 H    0.0185901221   -3.9409993189    1.4930444759
 H    1.1473990875   -0.3060848169    2.0024024887
 H    2.2032930848   -0.1173927474   -0.2888481161
 H    1.4549412061   -2.6423072205   -0.4351005192