14

 N   -0.3710937459    1.2914760275    0.1192328798
 C   -0.0327735934   -0.0005453152   -0.0619789195
 O    1.0750835823   -0.3996616396   -0.3663717262
 C   -1.1854147700   -1.0456260378    0.0651457249
 O   -0.6357006593   -2.3287256285    0.0179517981
 C   -1.9834368586   -0.8139667914    1.2667626362
 C   -2.6571057155   -0.5697998705    2.2401087986
 C   -3.4505660764   -0.2991874561    3.4115054313
 O   -3.9527937588    0.7746033616    3.6542950085
 H    0.3559740806    1.9879254270    0.0803300104
 H   -1.2546221761    1.5376642584    0.5349431176
 H   -1.8449027088   -0.8718041061   -0.8048364540
 H    0.3056343841   -2.1764911795   -0.1854335225
 H   -3.5689945041   -1.1662898098    4.0908217667