12

 O   -0.1312538068    0.0072625992   -0.0005046106
 C   -0.0198603212    1.2117276655    0.0077522931
 C    1.2424779452    1.9048931082   -0.0009343631
 C    2.2902748158    2.5107035168   -0.0080735715
 C    3.5171249370    3.1878455942   -0.0164066046
 C    4.8135980921    2.7492338733   -0.0344047116
 C    5.5668447768    3.9464086430   -0.0333751612
 N    4.7977729206    5.0112350766   -0.0162628511
 O    3.5013245636    4.5454973256   -0.0054282072
 H   -0.9014808719    1.8824420048    0.0230183139
 H    5.1584299083    1.7295542287   -0.0463678272
 H    6.6398896805    4.0726145040   -0.0444237689