17

 C    0.0362501668    1.3789820870    0.0048470895
 C    0.0259687106   -0.0748606180   -0.0145066348
 C    0.0238962147   -1.2801967944   -0.0250263271
 C    0.0211018063   -2.6970467872   -0.0389026029
 O    1.1182661137   -3.4489576729    0.5037239778
 C    0.5415612068   -4.6132270935   -0.1475709521
 C   -0.7399684066   -4.8967581317    0.6797918418
 C   -1.2504549920   -3.5865819743    0.0832614855
 C   -0.3098736009   -3.7011717968   -1.1055948984
 H    0.6894177675    1.7503438029    0.8022769533
 H    0.3993509180    1.7937783987   -0.9420826830
 H   -0.9663985692    1.7819714681    0.1858423136
 H    1.2740491288   -5.3741527821   -0.4055216505
 H   -1.2957846380   -5.7524174640    0.2872040465
 H   -0.6103251304   -4.9790176701    1.7628461508
 H   -2.2396495125   -3.1498841505    0.1184825181
 H   -0.4413678435   -3.6170115712   -2.1750611982