18

 C   -0.0543373050    1.5278983837    0.0407460869
 C    0.0874685133    0.0403206120    0.0115990069
 N   -0.8540180881   -0.8793646716    0.7037870544
 C    0.6012929526   -0.9264003010    0.9984484979
 C    1.3212902477   -1.7539377066   -0.1175176456
 C    0.3521662681   -2.1950368414   -1.1986575924
 C    0.7572104771   -0.7548987499   -1.1531681656
 C    2.6457667333   -2.2423711985    0.0171442333
 C    3.7715125590   -2.6464934719    0.1622261668
 H    0.8803549128    2.0160455364   -0.2563210555
 H   -0.8399814165    1.8664603894   -0.6453146316
 H   -0.3098906681    1.8772967463    1.0469297110
 H   -1.2904711219   -0.3490935847    1.4579740290
 H    0.9893910481   -0.7835916033    1.9987676180
 H    0.8180499866   -2.7729088193   -1.9896399991
 H   -0.6512135068   -2.4916970276   -0.9222779242
 H    1.3176518170   -0.2730151297   -1.9436975709
 H    4.7620649608   -3.0085740723    0.2815503707