16

 O    0.2830921220    1.3589547181    0.0336555344
 C    0.1181903700    0.0122701849    0.0487246305
 C   -0.1081369422   -0.8106167673   -1.0366414780
 N   -0.2059412032   -2.0785420714   -0.5215956927
 N   -0.0565489183   -2.1106875158    0.8153148459
 C    0.1412406480   -0.8409387099    1.1700107631
 N   -0.2091334559   -0.3899601453   -2.3706596343
 C    0.3166007641   -1.2345542780   -3.4511930111
 C   -1.1501891508   -1.0529636519   -3.2828772957
 H    0.2113631850    1.6352112368   -0.8897106148
 H   -0.3686028936   -2.9425708175   -1.0080846527
 H    0.2923552998   -0.5803376048    2.2062684743
 H    0.8474628852   -0.7035438050   -4.2357327300
 H    0.7481956842   -2.1945844893   -3.1793520275
 H   -1.7283264848   -1.8879848470   -2.8951586560
 H   -1.6988629095   -0.3883037968   -3.9435384854