18

 N    0.0819713862    1.4160692179    0.3279549280
 C   -0.0392102795    0.0101941547   -0.0250440223
 C   -1.5081267868   -0.4219053331   -0.1517669183
 C   -1.5572094511   -1.9180456472   -0.4149983209
 C   -1.8777026651   -2.4710903585   -1.7885145157
 C   -0.4624135683   -2.4552398005   -1.2927801671
 O    0.4344017181   -1.5465052594   -1.9009934196
 C    0.7271654761   -0.3569681200   -1.3083296986
 O    1.5438275276    0.3618477266   -1.8164772614
 H    1.0636848126    1.6768191769    0.2724725176
 H   -0.3676450095    1.9744549442   -0.3948991133
 H    0.4104503339   -0.5822662094    0.7850198349
 H   -2.0396849397   -0.1592179574    0.7659078177
 H   -1.9836789041    0.1408294675   -0.9644003478
 H   -1.8261105098   -2.5360217662    0.4356685425
 H   -2.3860364001   -3.4256635957   -1.8628716465
 H   -2.1253328303   -1.7581238585   -2.5680000466
 H    0.0332402898   -3.3887141017   -1.0488708224