22

 C   -0.1818055496    1.5230928479    0.0641182011
 C    0.0491245555    0.0333420337   -0.0190526539
 C   -0.7544012191   -0.9105740792    0.8600298395
 C    0.7254015039   -0.7769902624    1.0716980926
 N    1.5407668089   -1.8404231740    0.5146836821
 C    2.6883352377   -1.3001963483   -0.2406063733
 C    1.4547322705   -1.7144392666   -0.9621513997
 C    1.4194173104   -2.9872830653   -1.7701923884
 C    0.4961798937   -0.5781143016   -1.3486410231
 H    0.6973014494    2.0827906896   -0.2772665475
 H   -1.0317854423    1.8335429895   -0.5558059304
 H   -0.3964685741    1.8343907288    1.0916288610
 H   -1.4100169097   -0.4647750961    1.6010453678
 H   -1.1226129148   -1.8392908667    0.4339660610
 H    1.1078845389   -0.3249046446    1.9817379059
 H    2.8965913545   -0.2356806113   -0.1511213470
 H    3.5673801784   -1.9385221662   -0.2539272524
 H    2.0823775724   -3.7413625899   -1.3385429636
 H    0.4057115375   -3.4029896586   -1.8014137865
 H    1.7360498009   -2.8006002065   -2.8028375640
 H   -0.3501423975   -0.9705876265   -1.9264431838
 H    0.9920069847    0.1695811345   -1.9790615473