17

 C    0.0114456462    1.5227021633    0.1278554890
 C   -0.0428556031    0.0061202694   -0.1173422971
 C   -1.4467208822   -0.5316923295   -0.0606853922
 N   -2.0672840399   -0.5439912056    1.1396198961
 C   -3.2996135315   -0.9968225146    1.1504174541
 C   -3.9144245304   -1.4439355909   -0.0383546411
 N   -5.2212696391   -1.8699360541   -0.0800238627
 N   -3.2402824340   -1.4218479559   -1.1891965494
 N   -1.9954736058   -0.9529981330   -1.1979919309
 H    1.0459398722    1.8783213428    0.1194723118
 H   -0.5400761736    2.0642421654   -0.6471637411
 H   -0.4293402742    1.7720105730    1.0973784014
 H    0.3743276667   -0.2392540245   -1.0968933526
 H    0.5569442512   -0.5045001045    0.6447443662
 H   -3.8292518822   -1.0199524180    2.1024870161
 H   -5.6023538215   -2.2742891542    0.7607174944
 H   -5.4676977989   -2.3576416591   -0.9295119021