18

 O   -0.8969810831    1.0461409596    0.4281999902
 C    0.2124331732    0.8173141940    0.0227362350
 C    1.3429874450    1.8304494467    0.0414073141
 C    1.3887381095    2.6315318137    1.3539063720
 N    2.6671696573    3.3248001151    1.5763898715
 C    3.7757050417    2.5191283351    2.0949433889
 C    3.8023183866    3.0102970289    0.6958147131
 C    3.6095860488    2.0307065767   -0.4454205168
 O    2.5507518278    1.1262288168   -0.1826297819
 H    0.5043720757   -0.1669667833   -0.4054605418
 H    1.1662170298    2.5249891173   -0.8015008055
 H    0.5836439622    3.3719023273    1.3393247585
 H    1.1918844681    1.9633999414    2.1989918012
 H    4.3812730390    2.9947286384    2.8620023494
 H    3.6014039680    1.4543322865    2.2371180861
 H    4.4213382918    3.8703522951    0.4441852677
 H    3.4032250618    2.5808459421   -1.3790259348
 H    4.5105515968    1.4289376586   -0.6010285970