18

 O   -0.0107617335    0.1278230589    0.7941922743
 C   -0.0426000332    1.2282985555    0.2950507054
 C   -1.3031309366    1.9872933712   -0.0597026206
 C   -2.1969438859    2.4842603558    1.0458340072
 C   -1.2985752306    3.4529802092    0.3117387863
 C   -0.0034188242    3.9262000907    0.9782827451
 C    1.1958762346    3.3595781590    0.2284257153
 C    2.1272004746    2.3662245906    0.8674262669
 N    1.1056871831    1.9402100768   -0.0701605769
 H   -1.7717995899    1.6740434907   -0.9869238057
 H   -3.2627349164    2.5173669452    0.8494187103
 H   -1.9406701708    2.2224513988    2.0675860994
 H   -1.7670724367    4.1494880503   -0.3759563158
 H    0.0432787602    5.0177071868    1.0157288571
 H    0.0261113509    3.5751279413    2.0165925302
 H    1.5829269006    3.9654346998   -0.5894021153
 H    3.1541677589    2.2809385802    0.5233755349
 H    1.9707648346    2.1189122293    1.9148098120