24

 C    0.2355568103    1.2071933742   -0.5173975554
 C    0.1271864759   -0.1303605094    0.2171225301
 C    0.4604965016    0.0033687028    1.7041923134
 O   -1.2119800770   -0.6104173213    0.0923923023
 C   -1.4575521191   -1.8637435013   -0.5607384178
 C   -0.7814842509   -3.0248424108    0.1881391486
 C   -2.9808665728   -2.0134365918   -0.4873940167
 C   -1.0062638026   -1.8242320935   -2.0307200895
 H    1.2391145173    1.6330878906   -0.4136348305
 H    0.0206556256    1.0848667198   -1.5824637418
 H   -0.4863104785    1.9197843644   -0.1054840323
 H    0.8318043972   -0.8383792524   -0.2378909756
 H    0.4040737153   -0.9671789320    2.2045547115
 H    1.4680293020    0.4080882879    1.8469036044
 H   -0.2539727282    0.6766910041    2.1886706607
 H   -1.1084196524   -3.0436153990    1.2319086212
 H   -1.0457290042   -3.9826530518   -0.2715245374
 H    0.3097546742   -2.9443338117    0.1705449862
 H   -3.4667112140   -1.1760706346   -0.9957073903
 H   -3.3051449202   -2.9457272638   -0.9592544945
 H   -3.3095880221   -2.0158368115    0.5554610526
 H    0.0772787308   -1.7024406767   -2.1240254237
 H   -1.2751873150   -2.7556610480   -2.5392773962
 H   -1.4920521833   -0.9953029441   -2.5537659293