12

 N    0.0905128962    1.3008533881    0.1472438058
 C   -0.0568781103   -0.0549625892    0.0424268609
 N   -1.1513754413   -0.7520384340    0.0069764271
 C   -0.6644692990   -2.0608918471    0.0141622301
 C    0.6750321736   -2.0331716150    0.0442904299
 O    1.2085424152   -3.2588131664   -0.0037612495
 C    0.0430666526   -4.0349966548   -0.0502696798
 N   -1.0775306441   -3.3808109015   -0.0447789648
 O    1.1527532271   -0.7694179536    0.0598677004
 H    0.9171860058    1.6773943141   -0.2939786007
 H   -0.7559010156    1.8030090026   -0.0781497488
 H    0.2091071999   -5.0986709631   -0.0753883906