19

 C    0.1992219251    1.0452259306    0.3644604000
 O   -0.2120089024    0.1858570167   -0.6900069125
 C    0.6596439262   -0.8032100347   -0.9945189891
 N    0.3563917410   -1.6014441928   -1.9200763946
 C    1.1862264549   -2.6948351435   -2.3471732770
 C    2.5375846228   -3.0213899486   -1.7278160980
 N    3.0875804240   -2.3829717716   -0.7803111380
 O    3.0244263515   -4.1128231546   -2.3829231245
 C    4.2887338061   -4.6206447781   -1.9865552432
 H    0.3317148814    0.4964569790    1.3051124478
 H    1.1330634750    1.5666692068    0.1203991574
 H   -0.5964473234    1.7809271313    0.4908641188
 H    1.5731613142   -0.8253258814   -0.3976386613
 H    0.5942837822   -3.6187419625   -2.2797860602
 H    1.3696054083   -2.5828550391   -3.4253253764
 H    3.9927024885   -2.7663551052   -0.5140727522
 H    4.2807269683   -4.9471555428   -0.9392892104
 H    4.4843475331   -5.4797656347   -2.6290543791
 H    5.0828037330   -3.8767686247   -2.1263391877