21

 C   -0.2212305328    1.6359307450    0.0742424437
 C    0.0221409005    0.1348765820    0.0003804978
 C    0.6640216006   -0.5529648672   -1.2147003678
 C    2.2444871029   -0.3107888892   -1.2240648546
 C    2.4236455107   -1.8475450370   -1.0789917796
 C    1.0979267341   -1.7495233013   -0.3112438884
 C    1.1872902460   -0.5851174136    0.7606261687
 O    1.1011382048   -0.9240738850    2.1111431828
 C    2.4437966716    0.1419593042    0.2383616501
 H    0.6343777122    2.2203497874   -0.2760979261
 H   -1.0794350672    1.9167723074   -0.5460783694
 H   -0.4472584063    1.9509212181    1.1003716246
 H   -0.9043016783   -0.4021910151    0.2396425639
 H    0.1666730384   -0.6845435467   -2.1744306178
 H    2.7384173665    0.2554865081   -2.0133555982
 H    2.2875310973   -2.3804661403   -2.0247199309
 H    3.3251398280   -2.2127386493   -0.5759331720
 H    0.4464043096   -2.5881599976   -0.0696457939
 H    1.2940915556   -0.1391305023    2.6349732107
 H    3.3669681107   -0.2519009992    0.6737244303
 H    2.4173505253    1.2230963117    0.3965271261