19

 C   -0.0085216997    1.5694726497    0.1666963672
 C    0.0186499186    0.0695328018    0.1112085018
 C   -0.8422326695   -0.7703202800   -0.8394801853
 O   -1.0130035684   -1.8076992759    0.1688558725
 C   -0.2786896005   -1.0222114409    1.0872778627
 C    1.1792455617   -0.8296220923    0.6002371924
 C    1.8533248753   -1.8550490405   -0.2890060585
 C    2.0167101512   -0.2549581861    1.6827278608
 O    1.6501256081    0.5506405285    2.5112389298
 H    0.5195065729    2.0004708920   -0.6920111140
 H   -1.0419636202    1.9320962639    0.1393348346
 H    0.4597454370    1.9370464157    1.0799584546
 H   -1.8044359581   -0.2937278697   -1.0543915938
 H   -0.3974707342   -1.1511498921   -1.7644639604
 H   -0.5385586392   -1.0417419455    2.1388926205
 H    1.1276279508   -2.5838229482   -0.6562230245
 H    2.3464500310   -1.3914605611   -1.1502184076
 H    2.6145763802   -2.4067826224    0.2724468546
 H    3.0513595331   -0.6646745669    1.7150988327