14

 N   -0.9571760427    0.0167098043   -1.4551580742
 C   -0.4301415751    0.4961767767   -0.5459550654
 C    0.2372206011    1.1027425567    0.6024644521
 C    1.5551977843    1.7911259716    0.2856904150
 N    2.1656399349    2.3455267946    1.3365527275
 C    3.3235124966    2.9585077243    1.0993712462
 C    3.8745393995    3.0209218269   -0.1795481829
 N    3.2698207038    2.4696473897   -1.2305903595
 C    2.1090419003    1.8548821318   -0.9938306562
 H   -0.4405915813    1.8293961019    1.0650695739
 H    0.4131377647    0.3309439076    1.3606168021
 H    3.8260478344    3.4119425607    1.9497052614
 H    4.8205655805    3.5250643848   -0.3573639592
 H    1.6070682990    1.4015583582   -1.8434546306