16

 O    0.0116314037    1.4662982707    0.0874584306
 C   -0.0238694003    0.0635311024   -0.0434613362
 C   -1.4006773068   -0.5688709983   -0.0055064823
 C   -2.0556298594   -0.5055328822   -1.3719804101
 O   -1.6926696939    0.4968875012   -2.2872915810
 C   -0.2928381744    0.3413202402   -2.5505480807
 C    0.2173847705   -0.5911982596   -1.4519939288
 C   -0.9920985594   -1.5167138909   -1.1593009230
 H    0.9222345993    1.7361843005    0.2420596834
 H    0.6253705408   -0.4180735507    0.6998831708
 H   -1.9698344374   -0.7914986142    0.8903437752
 H   -3.1005227252   -0.7840692555   -1.4381147131
 H   -0.1409606286   -0.0843413232   -3.5533876693
 H    0.1770561877    1.3283956810   -2.5011552219
 H    1.1976324084   -1.0287321989   -1.6388956483
 H   -1.0580975648   -2.5914192425   -1.2522817353