17

 C   -0.1271363708    1.5384662040   -0.0541121280
 C    0.0126399932    0.0368531730   -0.0214244583
 C    1.3354689713   -0.6271619623   -0.2290422874
 O    2.4726481865    0.1421607696   -0.4174277330
 C    0.6899438519   -0.6806602110    1.1816085059
 C    1.3532151142    0.1123690191    2.1793224322
 C    1.9802919711    0.7702133631    2.9692863023
 C    0.1250533818   -1.9279288927    1.6201329452
 C   -0.3596701886   -2.9752844257    1.9577797683
 H    0.7966205967    2.0292770945    0.2545024802
 H   -0.3562276692    1.8659191928   -1.0734979445
 H   -0.9362082308    1.8741751149    0.6012925247
 H   -0.8440546554   -0.5212054398   -0.3874001268
 H    1.3606761439   -1.5778530204   -0.7555858703
 H    2.8839740340    0.3037749404    0.4425901562
 H    2.4908293893    1.3525063407    3.6962633811
 H   -0.7821464793   -3.8982646403    2.2687996122