23

 C   -0.0581841261    1.4983122231    0.1104042414
 C    0.0443649295   -0.0227549113   -0.0692030241
 C    0.8203431037   -0.3798529592   -1.3448005690
 C    0.6988491572   -0.6568594757    1.1611503488
 O   -0.0183818051   -0.3122323616    2.3791518176
 C   -0.2569768331   -1.6019562103    2.9659224986
 C    1.0978945258   -2.3302243427    2.7934680443
 C    0.6886094237   -2.1930227070    1.2907854705
 C   -0.7745529273   -2.4496347681    1.7798750550
 H    0.9386224002    1.9514343408    0.1770122590
 H   -0.5756009599    1.9577979990   -0.7380404917
 H   -0.6016161949    1.7437405324    1.0255381671
 H   -0.9734685325   -0.4226835392   -0.1580329988
 H    1.8610885872   -0.0399246923   -1.2802512025
 H    0.8317642110   -1.4580171851   -1.5323497615
 H    0.3705353768    0.1038912209   -2.2175813563
 H    1.7267711131   -0.2703645173    1.2420298207
 H   -0.7792580705   -1.4828332888    3.9139742894
 H    1.9935904313   -1.8063091282    3.1363930598
 H    1.0877787244   -3.3634330445    3.1447353755
 H    1.1603338901   -2.7745484229    0.5005835762
 H   -0.9462284924   -3.4957509866    2.0387628230
 H   -1.6098990122   -2.0508877954    1.2015043171