19

 C   -0.0428754303    1.5466037713   -0.0048895705
 C    0.0158554693    0.0073371512    0.0143796585
 C    0.6779401681   -0.5027665967    1.3012007085
 O   -1.3103284647   -0.5335977937    0.0340811962
 C    0.7423146024   -0.4770404888   -1.1716462743
 C    1.3099402637   -0.8686555561   -2.1606005163
 C    1.9767301387   -1.3168783243   -3.3528544962
 C    3.2326182184   -2.0926957263   -3.2965777017
 O    2.0036636315   -2.7314307256   -3.6108027082
 H    0.9602336206    1.9815686220    0.0255120527
 H   -0.5387059528    1.9005756178   -0.9139771996
 H   -0.6110681693    1.8950672056    0.8620496310
 H    0.0971298458   -0.1626113314    2.1631731577
 H    0.7007424171   -1.5944114505    1.3029802051
 H    1.6996657180   -0.1253424676    1.3870274703
 H   -1.7074761832   -0.3668703372   -0.8276820983
 H    1.7987591569   -0.7160568939   -4.2442630517
 H    3.9453655728   -2.0048576950   -4.1157919059
 H    3.6553310970   -2.3373205408   -2.3241007473