18

 C   -0.0225841576    1.4705045788    0.0214583644
 N   -0.0292873125    0.0179031038   -0.0018503795
 C   -1.3602956154   -0.5404776296   -0.1751700505
 C   -1.2420910922   -2.0315200307   -0.4676428182
 N   -0.4210296592   -2.6726340199    0.5469966706
 C    0.5545696144   -2.0611567317    1.2787019309
 O    1.3041765685   -2.6744578672    2.0150161242
 C    0.6110793898   -0.5386246587    1.1830875417
 H    1.0073841754    1.8319001904    0.1018915078
 H   -0.4482190154    1.8592570756   -0.9088119359
 H   -0.5970583358    1.8941667829    0.8676398404
 H   -2.0004695201   -0.3809331617    0.7158313218
 H   -1.8484410059   -0.0484248688   -1.0220789447
 H   -2.2366444225   -2.4912350877   -0.4678247338
 H   -0.8066684626   -2.1680747980   -1.4673472951
 H   -0.4041629712   -3.6811791959    0.5968856531
 H    1.6677449058   -0.2585886709    1.2030316858
 H    0.1617001965   -0.1523110806    2.1212299770