15

 C   -0.1170064414    1.4722144556   -0.1465251243
 C   -0.0252950166    0.0225634307   -0.0688690860
 C    0.0548378459   -1.1763371768    0.0017919316
 C    0.1094101320   -2.6414351158    0.0762174086
 O   -1.1693983347   -3.2392896036    0.2423318086
 C    0.8185256809   -3.1761280345   -1.0987267434
 C    1.3596168485   -3.6275236053   -2.0795970282
 C    2.0456569820   -4.1535312246   -3.2323174908
 O    1.4940570244   -4.6129848689   -4.2054162746
 H    0.6322494453    1.9486660027    0.4945209787
 H    0.0429193825    1.8256826781   -1.1705880928
 H   -1.1031704655    1.8206188378    0.1785222619
 H    0.6658983854   -2.9362642305    0.9757164061
 H   -1.7128722142   -2.9733355595   -0.5090166220
 H    3.1511090355   -4.1043405454   -3.1606038631