12

 C   -0.0157644141    1.3973134957    0.0097180968
 O    0.0214355246   -0.0391832764   -0.0362092763
 C    0.6117481829   -0.6109966174   -1.0688469855
 N    0.6187524680   -1.9450416423   -1.0641114148
 C    1.2235499787   -2.4479235623   -2.1245513682
 N    1.7857242640   -1.7500955362   -3.1251591486
 N    1.7325779034   -0.4361530369   -3.0486671038
 N    1.1492689596    0.1617087262   -2.0275787474
 H    0.9953476425    1.8096199173    0.0243031526
 H   -0.5516044323    1.7976476546   -0.8535112945
 H   -0.5418559787    1.6351348829    0.9335882786
 H    1.2803267014   -3.5299379953   -2.2104028288