18

 C    0.1198492862    1.3484325369   -0.4840952778
 C    0.0294026712   -0.0410652639    0.1088978978
 O    0.9705683144   -0.5943263272    0.6216458586
 C   -1.3503945806   -0.7325556958    0.0506942597
 C   -1.9701998582   -0.6827728125   -1.3475824148
 O   -1.0847996186   -1.2060540455   -2.3149601884
 O   -1.2498814903   -2.1124336343    0.3596063733
 C   -0.9135662898   -2.4659310655    1.6240934125
 N   -0.7612835043   -3.6852378148    1.9000768961
 H    1.0436061636    1.8243033859   -0.1536674312
 H    0.1305718342    1.2606600248   -1.5762600294
 H   -0.7414471165    1.9665805757   -0.2101096775
 H   -2.0156946977   -0.2175364191    0.7641070366
 H   -2.9229341352   -1.2298127735   -1.3198601682
 H   -2.1816209813    0.3509612022   -1.6329722478
 H   -0.8624111810   -2.1022511218   -2.0342816859
 H   -0.8333220592   -1.6167286310    2.3111648876
 H   -0.5362886270   -3.7930107204    2.8867079590