16

 N    0.1208758570    1.3161406024   -0.1179562747
 C    0.1151232982   -0.0278562016   -0.0008522687
 O    1.0912249157   -0.7502816861    0.0926127680
 C   -1.3154466054   -0.6117343113    0.0143750586
 O   -2.2848251064    0.1063962412   -0.0329741158
 C   -1.3652486496   -2.1202432082    0.1186336559
 C   -1.1037408393   -2.6939209900    1.5380446913
 C   -2.5424540665   -3.2352778358    1.4058283660
 O   -2.6944117318   -2.6471495535    0.0938286654
 H    0.9910763228    1.8203969454   -0.1331879351
 H   -0.7610774306    1.7999339759   -0.1766025901
 H   -0.7235507581   -2.5484988429   -0.6611761293
 H   -0.3074401001   -3.4350218131    1.5874204975
 H   -0.9519390581   -1.9495453345    2.3207629157
 H   -2.6360029124   -4.3268674941    1.3730521813
 H   -3.2721949256   -2.8324342139    2.1170260040