14

 N    0.0630377919    1.2714140721    0.0068655438
 C   -0.0283857091    0.0105226188    0.0038411755
 N   -1.2411150365   -0.6811146527    0.0117450524
 C   -1.2940666408   -2.1347616369    0.0080315990
 C   -2.7824191580   -2.3947382927    0.0192206703
 N   -3.3297487663   -3.5234236026    0.0203365729
 O   -3.4269610896   -1.1818024864    0.0278744601
 C   -2.5148171866   -0.1222608475    0.0236686816
 O   -2.8593472733    1.0127439216    0.0295394737
 H    1.0431766108    1.5483810474   -0.0002268422
 H    0.8109057796   -0.6956448158   -0.0049946808
 H   -0.8314862500   -2.5677608222   -0.8851542370
 H   -0.8172397398   -2.5728198516    0.8912030005
 H   -4.3472736123   -3.4444335116    0.0287137302