23

 C   -3.5482271864    0.8071383437    0.8401538960
 O   -2.6397421579   -0.1302757260    1.3651730788
 C   -1.5704614076   -0.4902540400    0.4831288123
 C   -0.4809719503    0.5833707062    0.4723484297
 C   -1.1310135669   -1.8830291738    0.9200485496
 C   -2.1500884126   -2.9486305905    0.5841860849
 O   -2.2264186603   -3.0710145700   -0.8345969154
 C    0.3189764735   -2.3042431903    0.8962397961
 C   -0.3733045801   -2.0624559036    2.2123698059
 H   -4.3545894349    0.9181727938    1.5704004226
 H   -3.0957984462    1.7967823942    0.6760602185
 H   -3.9803531542    0.4680302077   -0.1146551297
 H   -1.9747613916   -0.5869339141   -0.5359560103
 H   -0.0024446236    0.6856065169    1.4510367615
 H    0.2849535384    0.3563799131   -0.2740952239
 H   -0.9104905366    1.5543122634    0.2102752174
 H   -1.8497072244   -3.9037738508    1.0425273890
 H   -3.1219350971   -2.6595893456    1.0076965520
 H   -3.0097007372   -3.5865810827   -1.0467585662
 H    0.5308180899   -3.3264047656    0.6018044569
 H    1.0693614109   -1.5908781721    0.5782179869
 H   -0.1114375628   -1.1735401285    2.7740931016
 H   -0.6232956518   -2.9160306154    2.8337520356