16

 N    0.0226602594    1.2332628406   -0.1963520681
 C   -0.0016109025   -0.0206447195   -0.1017223520
 O    1.0573650173   -0.8985723564   -0.1755703166
 C    0.3895238172   -2.1836479817    0.0313971700
 C   -0.8392434767   -2.0735811532   -0.8959358549
 C   -1.1893808276   -0.9323160537    0.1179060082
 C   -0.5449316030   -1.8763550305    1.2204984743
 C   -2.5535494678   -0.3397504340    0.2758585917
 O   -3.5472629701   -0.8397026359   -0.1893394358
 H    0.9745146325    1.5740237509   -0.3424452551
 H    1.1281843922   -2.9806611275    0.0091364264
 H   -0.6614415569   -1.7935762919   -1.9353667390
 H   -1.5316657651   -2.9117492744   -0.8206802037
 H   -1.2074949248   -2.7005654166    1.4867715763
 H   -0.1045636310   -1.4079693319    2.1023080326
 H   -2.5922501631    0.5926392758    0.8757921455