17

 O    0.0453531410    1.4443283099   -0.0318075028
 C    0.0237732810    0.0652121071   -0.0044299406
 C   -1.1037818685   -0.9586639279    0.0158338586
 O   -0.5610788621   -1.7017645174   -1.0725440371
 C    0.6147367248   -0.8321589041   -1.1079178115
 C    1.8640177562   -1.5878275224   -0.6710143114
 C    1.5277994709   -2.4506817187    0.5544713259
 O    0.8492673230   -1.7390804784    1.5921181283
 C   -0.1262998449   -0.8289431264    1.1813348411
 H    0.6198402501    1.7569392108    0.6752962103
 H   -2.1828099883   -0.8997363174    0.1031760179
 H    0.7005303363   -0.3424929169   -2.0814856179
 H    2.2352071410   -2.2418726162   -1.4676325845
 H    2.6548772942   -0.8621028789   -0.4438929374
 H    0.9144777714   -3.3000697819    0.2331239205
 H    2.4396842828   -2.8381188024    1.0171941677
 H   -0.5811006891   -0.3581680487    2.0499351629