25

 C   -0.0397468837    1.5865646041    0.0109570863
 C    0.0208220323    0.0571084957    0.0023211459
 C    0.7129378703   -0.4883732572   -1.2560505994
 C    0.8415552622   -2.0153622657   -1.2054602819
 C    1.6215540559   -2.5906256869   -2.3790101540
 O    1.5133637069   -2.4250030103   -0.0197160403
 C    0.8552655202   -2.0282791909    1.1780480030
 C    1.6486764415   -2.6161797344    2.3362439181
 C    0.7273341464   -0.5019362689    1.2466614530
 H    0.9677428337    2.0191272735    0.0075008756
 H   -0.5680614635    1.9685287335   -0.8693996469
 H   -0.5578672330    1.9589342513    0.9014249381
 H   -1.0117522974   -0.3246446254    0.0061919870
 H    0.1585906819   -0.1945536578   -2.1559335052
 H    1.7194239253   -0.0552686545   -1.3396839497
 H   -0.1763028057   -2.4485369278   -1.2012765676
 H    2.6368249718   -2.1820756530   -2.3985792490
 H    1.6931328962   -3.6782339524   -2.2931217610
 H    1.1303442073   -2.3462022666   -3.3257998586
 H   -0.1626002658   -2.4614465851    1.1808788361
 H    2.6641322049   -2.2078060878    2.3485567008
 H    1.1684078887   -2.3820587535    3.2912152220
 H    1.7191907980   -3.7027893187    2.2377579386
 H    1.7347429000   -0.0697013556    1.3234002860
 H    0.1833939958   -0.2179215055    2.1559934929