19

 O    0.1829050204    1.3467056557    0.4073804887
 C    0.0211901939    0.0308929424   -0.1141319175
 C   -1.3989360954   -0.4478221005   -0.0949305604
 C   -2.0594485803   -1.0231549905    1.1295463638
 C   -1.9276019751   -1.8758136994   -0.1055264211
 C   -2.9091414438   -1.4892852920   -1.2551123032
 O   -3.0556027696   -2.2959595719   -2.3677569571
 C   -3.8590732912   -0.3741189219   -0.9179217333
 C   -2.4040003449   -0.0715787290   -1.2327611380
 H   -0.3705685351    1.9369375647   -0.1141246631
 H    0.4251653687   -0.0360271362   -1.1376984517
 H    0.6374151732   -0.6150216586    0.5204554333
 H   -1.3630277271   -1.2778310971    1.9240031594
 H   -3.0179601984   -0.6785838334    1.5004266439
 H   -1.3539043253   -2.7940717755   -0.1348270809
 H   -3.7564340196   -2.9334347956   -2.1870711704
 H   -4.5205968338   -0.1324305112   -1.7449951634
 H   -4.3038230025   -0.2191511109    0.0594042133
 H   -2.1266756040    0.5583973810   -2.0691374321