23

 C   -0.1438800486    1.5619133618   -0.0336193617
 C    0.0264220734    0.0430131982    0.0003461529
 C    0.9169833923   -0.5264727660   -1.1019730467
 C    2.3261650616   -0.6231909709   -0.5422716364
 C    2.2739414498   -0.1242939241    0.8956542088
 C    0.8166463998   -0.5582189107    1.2089969584
 C    0.2888773313   -0.2611420728    2.5993809362
 C    0.8701436703   -2.0542493965    0.7940292513
 C    1.4437514758   -1.8571815964   -0.6038733410
 H    0.8170029425    2.0850532939   -0.0352643803
 H   -0.6781733256    1.8647385967   -0.9407860172
 H   -0.7249279183    1.9212383168    0.8224125806
 H   -0.9706875174   -0.4176329817   -0.0333319515
 H    0.7316164164   -0.3388103369   -2.1523132814
 H    3.1994710715   -0.5152808171   -1.1722749881
 H    2.9948213033   -0.6308459535    1.5478996887
 H    2.4311951317    0.9543280731    0.9927247336
 H    0.3064195221    0.8120544257    2.8171469009
 H   -0.7452418913   -0.6061842520    2.7135548398
 H    0.8904999618   -0.7618284780    3.3662408654
 H    1.5224576315   -2.6427755761    1.4494350128
 H   -0.1228935103   -2.5182495336    0.7907265345
 H    1.6537560064   -2.6791224200   -1.2759070497