12

 N   -0.0357016924    1.1781461070    0.5861554037
 C   -0.0250251512    0.0412646834    0.0293946062
 O    1.1324424878   -0.5473486730   -0.4343276628
 N    1.1255154622   -1.7993598013   -1.0446405323
 C   -0.0261248637   -2.3823498877   -1.1539492310
 N   -1.2701042986   -1.8914155322   -0.7246659354
 C   -1.2445949738   -0.7398304102   -0.1662282436
 C   -0.0308103805   -3.6634448466   -1.7785766113
 C   -0.0617735609   -4.7448154241   -2.3017101866
 H    0.9029088585    1.5786468141    0.6387395183
 H   -2.1688560129   -0.2922616733    0.1931235279
 H   -0.0848384346   -5.7009370760   -2.7649171231