23

 C    0.0128288943    1.5962233844    0.0409646944
 C    0.1220422387    0.0696812991    0.0412473647
 C    0.9076855116   -0.5184896669   -1.1580663142
 O    1.9700315629    0.3740249924   -1.4965037506
 C    1.4234568558   -1.8898025758   -0.6603395646
 C    1.5617351474   -1.7490718456    0.8475026851
 C    2.2654436716   -0.5179986448    1.3760366280
 C    0.7549236694   -0.5484529672    1.2943508524
 C   -0.0610084344   -0.5492423816    2.5656724928
 H    0.9988914386    2.0601951392    0.1081805995
 H   -0.4647248832    1.9580303715   -0.8753748870
 H   -0.5898311385    1.9393262956    0.8879794862
 H   -0.8945841850   -0.3451855307   -0.0275106839
 H    0.2472859656   -0.6345211296   -2.0295558685
 H    2.4882342377   -0.0401399607   -2.1932690689
 H    0.6878057656   -2.6694519597   -0.8945004968
 H    2.3562271790   -2.1679608572   -1.1675035667
 H    1.5864632462   -2.6524664137    1.4487070060
 H    2.6982114705   -0.5933253333    2.3689160721
 H    2.8225089491    0.0996716338    0.6823377746
 H   -0.2334705721    0.4685548085    2.9353405835
 H   -1.0424416440   -1.0145472994    2.4103860907
 H    0.4476918029   -1.1025524285    3.3616362612