19

 C   -0.2296314259    1.5863330971   -0.1765855114
 C    0.1039005443    0.1005727905   -0.0318836243
 N    0.8107541113   -0.4251541155   -1.1838335310
 N    0.1519945615   -0.5533090860   -2.3807028067
 C    1.1112271740   -1.0135071057   -3.1704304069
 N    0.9258205615   -1.2461353622   -4.5206954361
 N    2.3223014826   -1.1953916270   -2.5722387670
 C    2.0953033445   -0.8111735623   -1.3224113877
 C    3.1109507299   -0.8108952695   -0.2282652974
 H    0.6812006895    2.1870398620   -0.2583641123
 H   -0.8302809736    1.7484552132   -1.0743296309
 H   -0.7959555754    1.9324198290    0.6933292303
 H    0.7300452832   -0.0762517131    0.8466274380
 H   -0.8139324712   -0.4833050959    0.0921490681
 H   -0.0364229263   -1.4229625345   -4.7702208321
 H    1.5581297731   -1.9432087208   -4.8860025728
 H    3.2962246557    0.1969487739    0.1585755310
 H    2.8040317598   -1.4392280297    0.6148830172
 H    4.0465039914   -1.2028129836   -0.6283497980