17

 C    0.2988409209    1.3378429665   -0.0163126096
 C   -0.0716795594   -0.1503077352   -0.0431479463
 C    0.8677382956   -0.9823355802   -0.9975588683
 C    1.7275045884   -1.2627601916    0.2371185386
 O    2.9046536893   -1.3788705293    0.4342568353
 C    0.5814529837   -0.9330052244    1.1919950279
 O    0.8710834149   -0.2843699543    2.3852768604
 C   -1.4951539063   -0.3622646676   -0.2165802735
 C   -2.6758207924   -0.5480106778   -0.3512760444
 H    1.3828703777    1.4681217811    0.0719146600
 H   -0.0309336288    1.8317349284   -0.9338825390
 H   -0.1719649500    1.8307141220    0.8370110694
 H    0.3781967569   -1.8806040797   -1.3815051995
 H    1.3514365166   -0.4476109032   -1.8166847837
 H   -0.0343723493   -1.8186287886    1.3910599577
 H    1.8073949670   -0.0502639716    2.3707586628
 H   -3.7189768848   -0.7072686142   -0.4705037078