12

 O   -0.0049515175    0.0115386809   -0.3822171275
 C   -0.0071783037    1.1486309103    0.0200942527
 C   -1.3251740919    1.8584656602    0.3039966953
 O   -1.2369003813    3.0239339813    1.1278479610
 C   -0.0383906552    3.6490934785    1.2135472271
 N    1.1032327188    3.2767054704    0.8264156712
 C    1.2568719816    1.9655023103    0.2190139686
 H   -1.7625070438    2.1442463895   -0.6633977442
 H   -2.0126383147    1.1609737204    0.7881312278
 H   -0.1670457342    4.6053801931    1.7163540215
 H    1.9518254493    1.3661140133    0.8209269986
 H    1.7459087225    2.0710393218   -0.7592587421