17

 N    0.0889211220    1.1590476985   -0.0165920405
 C    0.1683713109   -0.1922567629    0.1264821617
 O    1.2051528785   -0.7906797657    0.3507713942
 C   -1.1496887073   -0.9388294684   -0.0374280921
 C   -1.2010221420   -1.8894112539   -1.2257746927
 C   -1.0898798416   -2.4299845446    0.1676215182
 N   -2.3792883282   -0.3009031860    0.3628089565
 C   -2.9834782172    0.7327369190   -0.2717197240
 O   -2.5419136519    1.3196341446   -1.2434643234
 H    0.9743400011    1.6406336137   -0.0566785325
 H   -0.6890736143    1.5461398151   -0.5399779699
 H   -2.1515054196   -1.9671341815   -1.7395992861
 H   -0.3232745343   -1.9228384031   -1.8599656982
 H   -0.1299739493   -2.8101872228    0.4930706267
 H   -1.9648796941   -2.9031599828    0.5998848786
 H   -2.8049500407   -0.6232426265    1.2191143909
 H   -3.9457818120    1.0033230074    0.2031272228