19

 O   -0.1362368418    1.3315516147    0.3383754623
 C   -0.0518323009   -0.0774904352    0.1726936767
 C   -1.4675990486   -0.5918358381   -0.0764079184
 C   -1.5604156359   -2.1431661438   -0.0248196319
 N   -2.0884660692   -2.4609284880    1.3119144127
 C   -2.4902286980   -1.3552159223    1.8176580347
 C   -3.1273946825   -1.3114180510    3.1799248881
 O   -3.1271192668   -2.5766218553    3.7828049704
 N   -2.3693624471   -0.2259699010    1.0279303264
 H    0.7278313123    1.6631219029    0.5987238428
 H    0.5884745832   -0.3486380687   -0.6810673082
 H    0.3580103230   -0.5631786095    1.0720891849
 H   -1.8344723091   -0.1761597480   -1.0194190808
 H   -2.2445038106   -2.5282025263   -0.7904748950
 H   -0.5899535810   -2.6257369387   -0.1857913348
 H   -2.5849461803   -0.5861412948    3.8089213191
 H   -4.1527520394   -0.9211760002    3.0715471598
 H   -2.7682298979   -3.1774986593    3.1099926243
 H   -2.1908269893    0.6684193025    1.4653090269