17

 C   -0.0318553959    1.6016479718    0.0720921257
 C    0.0170617604    0.0681333379   -0.0149042577
 C    0.8026173505   -0.4522448879   -1.2070650684
 C    1.7741357935   -1.2979911428   -0.8615275434
 C    1.8210227849   -1.4523312851    0.6297872952
 O    2.1086689545   -0.1912647672    1.3059261181
 C    0.7458829435   -0.5812699737    1.1625581304
 C    2.3063534590   -2.6467705591    1.2538703898
 C    2.7247880285   -3.6636181598    1.7395463962
 H    0.9783790928    2.0025080546    0.1866130038
 H   -0.4760613470    2.0303165500   -0.8314165828
 H   -0.6319466035    1.9257335377    0.9279850608
 H   -1.0117730477   -0.3174990562   -0.0501345623
 H    0.5990350735   -0.1134386958   -2.2172584836
 H    2.4674119545   -1.8008687717   -1.5227658455
 H    0.2237320810   -0.8009376020    2.0901820241
 H    3.0908519272   -4.5576769706    2.1802554594