18

 O   -0.0637944634   -0.1118690028   -0.2111879095
 C    0.0126785942    1.0820613126   -0.0809428241
 C    1.3074296284    1.8692839420   -0.0734909373
 C    1.3364272396    2.9113763133   -1.1735407988
 C    1.3785837782    2.5088878834   -2.6785526183
 C    2.0550695115    3.8572657795   -2.9050840577
 C    2.4866443262    3.9551309968   -1.4925697219
 N    1.4453713907    4.8932991695   -1.9939683048
 C    0.4089329288    4.1448729086   -1.2133431261
 H   -0.9052865571    1.7031436887    0.0406629993
 H    1.3877381100    2.3723214682    0.9015126728
 H    2.1402295742    1.1655932976   -0.1667828797
 H    2.0786863446    1.6884635480   -2.8575299406
 H    0.4250005718    2.2973307880   -3.1747221608
 H    2.5372217708    4.2373267625   -3.7956287582
 H    3.4039371110    4.2541241905   -1.0023135441
 H   -0.5694594003    4.0495206829   -1.6996409658
 H    0.2942482909    4.6332137708   -0.2411394743