11

 O    0.0884685873    0.0557940125    0.7370542914
 C    0.0154621518    1.0402265459    0.0473348601
 O   -1.0667015417    1.2449978676   -0.7414477960
 N   -1.6722548901    2.7140443670   -0.9087623511
 N   -0.9887719740    3.4925450792   -1.4912184582
 C    0.3668970253    3.2225051988   -2.0385658210
 O    0.5490184461    3.4109935700   -3.2001411233
 C    1.3637829144    2.8957755977   -1.0036069772
 C    1.1712696020    1.9785599578   -0.0505971918
 H    2.3058817414    3.4276860484   -1.0947410545
 H    1.9554030674    1.7657624950    0.6679532316