17

 C   -0.0906773623    1.4628568920    0.0279512685
 C   -0.0801402153   -0.0378024710    0.0097306333
 C    0.8446558874   -0.9751192036   -0.8388689111
 O    1.9429729959   -0.9520426422    0.1156056349
 C    0.7391971092   -1.0052533341    0.9366925864
 C   -0.0272417992   -1.9689740239   -0.0195682573
 C   -1.2722250912   -1.0430325540   -0.1114381128
 C   -2.2428910532   -1.0859268905    1.0275693634
 O   -3.4428922861   -1.0751671995    0.9120812882
 H    0.9356229147    1.8370715380    0.1002573183
 H   -0.5410489478    1.8659164260   -0.8849305110
 H   -0.6585293318    1.8494130254    0.8804280117
 H    1.0657506870   -0.9562657345   -1.9057614910
 H    0.8552855729   -1.0225461239    2.0193562327
 H    0.0212277872   -3.0567442335   -0.0370135005
 H   -1.8056302699   -1.0393960302   -1.0661611212
 H   -1.7687504376   -1.1267836807    2.0377633974