19

 O   -0.0639353012    1.4455915023    0.0230176581
 C   -0.0035967603    0.0260901711    0.0059337323
 C    0.6753740252   -0.5841216033    1.2564205525
 C    0.0104804426   -1.9588112627    1.4591098922
 C   -1.4021725940   -1.8024514320    0.8799738128
 C   -2.1637801131   -0.5523106248    1.2921963224
 C   -1.4036685587   -0.5551201736   -0.0025259128
 C   -2.1298228632   -2.9851281366    0.5288308846
 C   -2.7202676215   -3.9952537236    0.2468226918
 H    0.8352397929    1.7818389906   -0.0465056422
 H    0.5153652262   -0.3169205932   -0.9033497565
 H    1.7611761723   -0.6576896111    1.1474282655
 H    0.4811309614    0.0800447016    2.1043480118
 H    0.5349061017   -2.7339577078    0.8907139632
 H    0.0013209015   -2.2763434129    2.5066402636
 H   -3.2434996599   -0.6078266749    1.2248921966
 H   -1.7955142166    0.0313795092    2.1286559003
 H   -1.9622125538   -0.5436846241   -0.9304503646
 H   -3.2480369215   -4.8812409141   -0.0046688617