23

 C   -0.1666590925    1.5389274429    0.0773463457
 C    0.1635488603    0.0560092496   -0.1329301659
 C    0.8285863384   -0.5538328697    1.0853773626
 C    0.0173466929   -1.1118425232    2.2312901900
 O   -1.3692351267   -1.0821253172    2.0868010463
 C   -2.0367845990   -1.9788972031    2.9515750223
 C    0.8659520234   -2.0367910649    1.3711774205
 C    0.2272889527   -3.0457110245    0.4456077852
 O    2.0960866529   -2.4448463266    1.9225717484
 H    0.7351377646    2.1182235553    0.3046014054
 H   -0.6253473973    1.9723607824   -0.8170121567
 H   -0.8641879902    1.6621120757    0.9113288986
 H   -0.7574696632   -0.4840265452   -0.3674205944
 H    0.8271797788   -0.0578090190   -0.9994715818
 H    1.7349684375   -0.0431734395    1.4023499684
 H    0.3733106916   -0.9263269121    3.2467495036
 H   -3.1087012144   -1.8596826149    2.7764263261
 H   -1.7554271557   -3.0234268547    2.7557878900
 H   -1.8216946635   -1.7541393744    4.0072839658
 H   -0.7690471763   -2.7277729320    0.1330854228
 H    0.8440834130   -3.2019253622   -0.4453003840
 H    0.1237379691   -4.0139446439    0.9517870551
 H    1.9287485934   -3.2148558290    2.4783208361