21

 C   -0.0336145791    1.5435444650   -0.0360182332
 C   -0.0287236503    0.0045333541    0.0266607385
 C   -1.4853262975   -0.5040276177    0.1163682613
 C    0.6521841150   -0.5575602217   -1.2492464847
 C    0.9927332298   -2.0303193135   -1.1190305535
 O    0.6254860982   -2.8673456960   -1.9099454121
 C    1.8483888356   -2.3788797084    0.0935358565
 C    1.5723318255   -1.4913423568    1.2794602923
 C    0.7400781947   -0.4521471537    1.2496085713
 H    0.9855313969    1.9428969664   -0.0582535780
 H   -0.5565108423    1.8946485499   -0.9320115643
 H   -0.5426908206    1.9674608354    0.8364621556
 H   -2.0792522788   -0.1267329561   -0.7235853136
 H   -1.5278941526   -1.5970949907    0.0977995053
 H   -1.9589232939   -0.1652848889    1.0435929627
 H    0.0250493308   -0.4152381957   -2.1333205243
 H    1.5949790429   -0.0150038823   -1.4050350652
 H    1.6915019192   -3.4367008928    0.3315090522
 H    2.9052781564   -2.2960076234   -0.2058342248
 H    2.0803840831   -1.7500531075    2.2053454873
 H    0.5697687771    0.1216711843    2.1586887507