16

 C   -0.1024383138    1.5333340371   -0.0027796031
 C    0.0156535121    0.0422549986   -0.0401006440
 C    0.7466398486   -0.7955286579   -1.1259367474
 C   -0.2862635911   -1.8241626671   -0.6205835534
 C    0.1796952552   -2.1756451333    0.8033827880
 C    0.4273520217   -0.7147766515    1.2415393179
 O    0.8178755900   -0.2727362845    2.2855266455
 O   -1.2104019237   -0.7166012473   -0.3565549361
 H    0.8625880218    1.9728161587    0.2669198249
 H   -0.4174024084    1.9306481245   -0.9708750098
 H   -0.8294555528    1.8346719401    0.7570854837
 H    0.5128725673   -0.4286326121   -2.1265785652
 H    1.8137412442   -1.0073479396   -1.0135928322
 H   -0.7031509864   -2.6082824719   -1.2504404256
 H   -0.6093259767   -2.6453478036    1.3954880729
 H    1.0867128819   -2.7834537004    0.8682800639