19

 C    0.0735572104    1.4698725213    0.0904250839
 C   -0.1436478861   -0.0180327147   -0.1635727659
 N    0.8515941761   -0.5281064620   -1.0947536704
 C    0.8795448731   -1.8668999212   -1.3955999397
 N    0.2922749765   -2.7960354313   -0.6487221983
 N    0.6519743479   -3.9357337224   -1.3174263738
 C    1.3965517030   -3.6461340154   -2.3996846256
 C    1.9421050999   -4.6713819763   -3.3349302676
 N    1.5625957978   -2.3363175010   -2.4849281980
 H    1.0729905470    1.6550430873    0.4949137859
 H   -0.0306717348    2.0491920149   -0.8346352963
 H   -0.6654834352    1.8485805623    0.8019531340
 H   -0.0457466313   -0.5822951957    0.7690124583
 H   -1.1691293729   -0.1973149203   -0.5255249436
 H    1.0383587852    0.0522753724   -1.8995540226
 H    0.3429282151   -4.8303043144   -0.9775318536
 H    1.5833555445   -5.6727879807   -3.0824010842
 H    1.6450499089   -4.4449180399   -4.3626529677
 H    3.0359645751   -4.6789846130   -3.3034559749