15

 C    0.0388827380    1.3681635824    0.0080670488
 O   -0.0117350882   -0.0644309711    0.0038365390
 C   -1.2407440563   -0.5776882467    0.0105394229
 N   -2.3818640169    0.0457535137    0.0203176804
 C   -3.3351335275   -0.9686114109    0.0234502012
 C   -4.7775255097   -0.7494742211    0.0338854544
 O   -5.3360860956    0.3226921484    0.0413258182
 C   -2.7245227214   -2.2012808749    0.0154491782
 N   -1.3748755239   -1.9432037694    0.0070517430
 H    1.0982662553    1.6241577732    0.0010902966
 H   -0.4621632036    1.7714360022   -0.8758218032
 H   -0.4490273482    1.7657165248    0.9018504208
 H   -5.3567823406   -1.7031486952    0.0349710869
 H   -3.1188976228   -3.2040228447    0.0149561930
 H   -0.6201314385   -2.6090068006   -0.0002798406