16

 O   -0.1593610490    1.4321377120    0.1752349858
 C   -0.1104742654    0.0369149435    0.0943637049
 C   -0.4269097701   -0.8237780212    1.2771843614
 C   -1.5373862585   -0.1702155231    2.1156269027
 C   -2.4223965551   -0.1858334251    0.8572114863
 C   -3.8711714431   -0.3152524325    0.7351482801
 O   -3.2088380477    0.9148915350    0.4021298260
 C   -1.3418418453   -0.8193198758    0.0178336180
 H   -0.9539919471    1.7323918594   -0.2780336146
 H    0.7160070329   -0.3276641375   -0.5146454354
 H    0.2334954865   -1.6100218491    1.6194230092
 H   -1.9222568770   -0.8142257728    2.9095140095
 H   -1.3040251844    0.8192401824    2.5144478708
 H   -4.3003746374   -0.8577445814   -0.1070473198
 H   -4.4939960677   -0.2800040297    1.6283430284
 H   -1.4898331316   -1.5668093041   -0.7527950033