20

 C   -0.1050162623    1.5764173815   -0.0645998737
 C    0.0214176573    0.0697221263    0.0007277459
 C    1.3332243820   -0.6185286715   -0.2844187489
 C    0.7567504145   -0.6482638381    1.1135761694
 C    1.4339634604    0.0855215820    2.2212319356
 N    0.7551390451    0.1126550922    3.5220248821
 C    2.0363706846   -0.6257313445    3.3996592291
 C    1.9979877500   -2.0543765167    3.5489740592
 C    2.0024707698   -3.2506540032    3.6706131015
 H    0.8193430238    2.0801426176    0.2341658178
 H   -0.3331864275    1.9012455137   -1.0857267988
 H   -0.9071524541    1.9386185052    0.5879069386
 H   -0.8635747055   -0.4543206610   -0.3515303300
 H    1.3418749254   -1.5365403610   -0.8613312327
 H    2.1990657965    0.0160082075   -0.4522502580
 H    0.3212903395   -1.5880502968    1.4362028360
 H    1.9714640509    0.9844426863    1.9236722039
 H    0.9187192114    0.9959751170    3.9984521913
 H    2.9202751099   -0.1581952331    3.8295775232
 H    1.9952624783   -4.3064415333    3.7826252083