18

 C    0.0615605131    1.5080238360    0.2086519455
 C   -0.0468560602    0.0125638897   -0.1205925897
 C   -1.4490269990   -0.5044883063   -0.0712515110
 C   -2.7313418933   -0.1330731066   -0.8924945850
 C   -3.6025854490   -0.4925092709    0.3016184228
 C   -3.2483087879   -1.5544754214   -0.7286875534
 C   -1.9756178216   -1.9251667513    0.0885505275
 C   -2.3316450113   -0.8608669406    1.1224706222
 H    1.0992498790    1.8509805732    0.1513042430
 H   -0.5279908038    2.1087462758   -0.4920072677
 H   -0.3108411029    1.7148585370    1.2169648869
 H    0.3790299409   -0.1757245360   -1.1160233379
 H    0.5638957899   -0.5671234144    0.5845200848
 H   -2.9108007661    0.5788277547   -1.6877798126
 H   -4.5711711811   -0.1051000632    0.5880397083
 H   -3.8954839406   -2.1308817580   -1.3761662484
 H   -1.4259654112   -2.8492815276    0.2134602793
 H   -2.1057301049   -0.8269388401    2.1805047754