14

 C    0.2431800719    1.4840878705    0.0707350406
 C    0.1593870412   -0.0199287815    0.0354376394
 O    0.0837593568   -0.7259776968    1.0138048761
 C    0.1741488325   -0.6672650918   -1.3730537042
 O    0.2490617034    0.0220526597   -2.3575711344
 C    0.0879345077   -2.1931362311   -1.3759181911
 C    0.1027770607   -2.7850611230   -2.7005641490
 C    0.1151101389   -3.2738562730   -3.7969107072
 H    1.1569005326    1.8198137368   -0.4299958617
 H   -0.5881659029    1.9185341433   -0.4935781344
 H    0.2250581850    1.8296558714    1.1043088028
 H    0.9110823219   -2.5704718255   -0.7548046839
 H   -0.8153988861   -2.4728221939   -0.8177979342
 H    0.1259402863   -3.7074232452   -4.7661224488