19

 O    0.0529698975    1.3809395782    0.0554016208
 C    0.0236263820   -0.0264035430    0.0643307624
 C    0.3501633259   -0.6305688319    1.4476539448
 C   -0.8041109374   -0.0213642642    2.3139656830
 C   -2.0109784652   -0.0277032129    1.3323075628
 C   -1.3992678348   -0.6395075498    0.0308950974
 O   -2.0840414320   -0.3441398204   -1.1643756777
 C   -1.0529094912   -2.0877489090    0.3278682742
 C   -0.0110776155   -2.0791433696    1.1671035165
 H   -0.4291371933    1.6612211242   -0.7314374764
 H    0.6514004815   -0.4509192982   -0.7299113951
 H    1.3518737505   -0.4493985928    1.8370985160
 H   -0.9824001687   -0.6108025741    3.2159604500
 H   -0.5521406532    0.9982492980    2.6116035619
 H   -2.8590153512   -0.6172152264    1.6919198461
 H   -2.3539513770    0.9889959884    1.1232348877
 H   -3.0288072321   -0.4344244832   -1.0069818767
 H   -1.6117980461   -2.9379536632   -0.0441477080
 H    0.4589613905   -2.9320747901    1.6409937202