19

 C   -0.0208143533    1.5428419013    0.0116144991
 C   -0.0520253314    0.0328587502    0.0527949931
 C   -1.3464339430   -0.6842449739   -0.1905432754
 C   -1.4763567272   -1.7655570795    0.5807306591
 C   -0.2756341787   -1.9595728205    1.4820879077
 C    0.6555009806   -0.8154129144    1.0776420169
 C    1.2207284546   -0.7433326487   -0.3445909450
 C    1.2340431209   -1.8760322597   -1.2965711207
 O    2.1736697205   -2.1213769857   -2.0189190214
 H    0.9622701260    1.9267804763    0.2995612839
 H   -0.2415715688    1.9162722012   -0.9946041479
 H   -0.7636075855    1.9669455848    0.6964866220
 H   -2.0683861029   -0.3381534152   -0.9220418355
 H   -2.3117664034   -2.4560823993    0.5620501878
 H   -0.5517391084   -1.8784281433    2.5418105073
 H    0.1800635930   -2.9502745296    1.3621880987
 H    1.2799375748   -0.3614810802    1.8387363217
 H    2.1148623201   -0.1328503547   -0.4324501356
 H    0.3176671320   -2.4992981090   -1.3251867556