16

 O   -0.0955993988    1.3181078367   -0.0866707953
 C    0.0536432171   -0.0720269207   -0.0555999661
 C    1.1888973696   -0.6634180573   -0.7551693805
 C    1.3093925686   -1.9960608658   -0.7007449497
 C    0.2783263245   -2.7349384356    0.0225699254
 C   -1.1487745498   -2.2753876387    0.0587721892
 C   -1.3131875137   -0.7586410949    0.0074096886
 C   -0.4651701383   -0.7178480740    1.2445160921
 N   -0.3480006220   -2.2065858107    1.3155690126
 H    0.6135752094    1.7046291740    0.4389491279
 H    1.8877788575   -0.0102519450   -1.2657437114
 H    2.1296325796   -2.5374250383   -1.1570288090
 H    0.4074719851   -3.8090375642    0.1090561807
 H   -1.9739880976   -2.9713050370   -0.0513979992
 H   -2.2082319511   -0.2151902021   -0.2601957386
 H   -0.5279912802   -0.1427682264    2.1587919133