23

 C    0.0754302676    1.5407003498    0.4303672053
 C    0.0084329636    0.0652344949    0.0796716182
 C   -1.3384283642   -0.4335046885   -0.4258484330
 C   -1.7853701707    0.1880788726   -1.7553994346
 C   -3.1206503633   -0.4011978376   -2.2542780275
 C   -3.5693901170    0.1830305077   -3.5122915469
 C   -3.9166429814    0.6808844606   -4.5499717957
 C    1.2492691726   -0.5817212322   -0.4917993776
 C    0.8214077269   -0.8862341840    0.9252739888
 H    1.0596126879    1.8052528212    0.8293232925
 H   -0.1050796264    2.1770414005   -0.4428236128
 H   -0.6716041771    1.7996701977    1.1906449248
 H   -1.2908574561   -1.5242637967   -0.5429499367
 H   -2.1052392080   -0.2431368525    0.3392354698
 H   -1.8992426161    1.2723256614   -1.6528324757
 H   -1.0156383997    0.0274014994   -2.5187169259
 H   -3.0188860910   -1.4882739062   -2.3732572619
 H   -3.8934211257   -0.2540900650   -1.4879086109
 H   -4.2330205128    1.1135890444   -5.4662789971
 H    1.1255954163   -1.3598170537   -1.2382424949
 H    2.1305393691    0.0338722108   -0.6390123200
 H    1.4117407834   -0.4731723307    1.7366705512
 H    0.4109308523   -1.8688511838    1.1343471307