16

 O   -0.5898277193    0.6674690492    0.7544235542
 C    0.0396256725    0.9944264902   -0.2170922330
 C    1.3315702415    1.7805573927   -0.1897576045
 C    1.2364672436    3.0647908431   -1.0459748617
 C    2.5352216693    3.8063324711   -1.1351538904
 C    2.9012352842    4.9717167667   -0.5369355230
 O    4.1602274160    5.3034492024   -0.8571593721
 N    4.6787680829    4.3322141457   -1.7052774959
 C    3.7155237347    3.4594974281   -1.8592886471
 H   -0.3113563372    0.7291644772   -1.2432441184
 H    1.5872667755    2.0120953448    0.8473083453
 H    2.1217389551    1.1355305680   -0.5991833327
 H    0.8922044643    2.7993321918   -2.0536435346
 H    0.4701497769    3.7225585125   -0.6226615058
 H    2.3858237964    5.6567590559    0.1189239871
 H    3.8874580737    2.6000938107   -2.4933522473