16

 C    0.4508400062    1.3352082711   -0.0441797180
 N    0.0554087018   -0.0582052348   -0.0734576590
 C    0.7142927395   -1.1267689980   -0.5829256707
 C   -0.1188376004   -2.1913415624   -0.3347905485
 C    0.0423442341   -3.6513936432   -0.6561507004
 C    1.2922508397   -3.9611695651   -1.3414270921
 C    2.3234871574   -4.2098665060   -1.9057580074
 N   -1.2280043428   -1.7255864113    0.3043867233
 N   -1.1214877968   -0.4368398525    0.4616935814
 H    1.3775423348    1.4622399776    0.5221981304
 H    0.5929114811    1.7175119934   -1.0586828365
 H   -0.3524146622    1.8870236926    0.4437399768
 H    1.6766023518   -1.0531397772   -1.0592301737
 H   -0.0241975461   -4.2332569676    0.2722336919
 H   -0.8065749313   -3.9803989801   -1.2693073639
 H    3.2310236631   -4.4443031364   -2.4046935436