17

 O    0.0282854560    1.3921019990    0.1363051354
 C   -0.0483951250   -0.0135115770    0.1490924233
 C   -1.4926038078   -0.5391227094   -0.0521826951
 C   -2.0049135294   -0.0353782111   -1.3329506593
 N   -2.3556349075    0.3849238918   -2.3515699610
 C   -1.5674477425   -2.0558815996    0.0215931757
 C   -1.6736594272   -2.7278031298    1.3681046755
 C   -2.8472974243   -2.7411400073    0.4215599520
 H   -0.1968454190    1.6980181126   -0.7500168369
 H    0.6084925250   -0.4722411765   -0.6052050307
 H    0.2954435454   -0.3387262700    1.1348098526
 H   -2.1137995255   -0.1034684182    0.7403601187
 H   -0.9645326013   -2.5609723368   -0.7275201410
 H   -1.1214284961   -3.6471174679    1.5253522391
 H   -1.7409697503   -2.0955558089    2.2476505986
 H   -3.7014473313   -2.1178665994    0.6640956398
 H   -3.1032559192   -3.6698359316   -0.0749019666