20

 O    0.0698140954    1.2884407165   -0.3853153113
 C    0.0134687136   -0.0823215700   -0.0111114358
 C    0.8477129962   -0.3233129367    1.2341378625
 C    0.5210002461   -0.0605801766    2.5021080622
 C   -0.7281945566    0.5475219187    3.0935392651
 C   -1.7411976301    1.1531819365    2.1095189921
 C   -2.3073421954    0.0970409484    1.1854786415
 N   -2.4622208113    0.4217727613   -0.2507589361
 C   -1.4358921794   -0.5460286364    0.1777441163
 H   -0.8107499237    1.4835409664   -0.7471713637
 H    0.4456062507   -0.6879299847   -0.8242100348
 H    1.8334315820   -0.7445721429    1.0517011129
 H    1.2690774133   -0.3087579504    3.2554063798
 H   -1.2206083024   -0.2164463424    3.7160648893
 H   -0.4159440840    1.3238104342    3.8054613617
 H   -2.5499287350    1.6380310284    2.6687755452
 H   -1.2436383698    1.9192756131    1.5122135640
 H   -3.0818812398   -0.5332846654    1.6203456053
 H   -3.2680234376   -0.0458593342   -0.6542698982
 H   -1.6045548622   -1.5985456937   -0.0363498480