21

 C    0.0776717800    1.4213979316    0.0090146679
 O    1.2253201461    0.5490513509   -0.0071152668
 C   -0.0666125617   -0.0301291141    0.0026180691
 C   -0.6194657210   -0.9668206785    1.0779438919
 C   -1.6974435004   -1.3481171464    0.0117383132
 C   -0.6408594264   -0.9552220580   -1.0715350938
 C    0.3713783282   -2.0951062987   -1.3027445801
 C    0.5481621490   -2.9422087604   -0.0192140738
 C    0.3970507044   -2.1090249686    1.2766468548
 H   -0.0645190200    1.9812109841    0.9330522674
 H   -0.0828213960    1.9911361994   -0.9059139722
 H   -0.9490765653   -0.5329392048    2.0250173910
 H   -2.0763801683   -2.3719865191    0.0099847645
 H   -2.5397012707   -0.6525100901    0.0238750594
 H   -0.9892083420   -0.5111824639   -2.0071240856
 H    0.0438221576   -2.7378674375   -2.1271076940
 H    1.3238970803   -1.6462211291   -1.6065441759
 H   -0.2128668907   -3.7295779545   -0.0158887245
 H    1.5122625696   -3.4596418676   -0.0316018904
 H    1.3554755628   -1.6633419816    1.5662544579
 H    0.0858988045   -2.7606800031    2.1003823299