20

 C   -0.0457096988    1.4649935437   -0.0225824331
 C    0.0094621702    0.0098082719   -0.0184844590
 C    0.0557182633   -1.1934803710   -0.0004075598
 C    0.1012713176   -2.6550584625   -0.0097313993
 C   -1.3049159106   -3.2780533961    0.0798490028
 C    0.8542440706   -3.1306446381   -1.2611079970
 O    1.0124719497   -4.5467274609   -1.1693765228
 C    1.3190824055   -5.2001784101   -2.3055160417
 N    1.5669485004   -6.4373571633   -2.2764328636
 H    0.5019498790    1.8865853474    0.8274715185
 H    0.3947738053    1.8774157776   -0.9370300292
 H   -1.0789403569    1.8242497392    0.0376755424
 H    0.6841411441   -2.9978374210    0.8559160221
 H   -1.2336868317   -4.3678138974    0.0641394185
 H   -1.8014550180   -2.9688244631    1.0026290034
 H   -1.9237665682   -2.9528911862   -0.7626020290
 H    0.2877012581   -2.8651051573   -2.1635846495
 H    1.8377427364   -2.6489077501   -1.3147070567
 H    1.3142172006   -4.5562691933   -3.1964853534
 H    1.7596466534   -6.7736006394   -3.2176119634