16

 C   -0.0959004970   -1.2408250696   -0.0964831582
 C   -0.0453265997   -0.0412458884   -0.0466966114
 C    0.0183787989    1.4135213067    0.0262178516
 C   -0.6036537735    2.0179999073    1.3242429956
 C    0.2355012524    3.2789089279    1.6308733622
 C    1.5423988536    2.9907936134    0.9101358166
 C    1.4276377388    1.9770663887    0.0443479150
 C    2.7172754691    3.7632635318    1.1207450004
 N    3.6571057211    4.4111819508    1.3179655382
 H   -0.1417439327   -2.3008582768   -0.1434956109
 H   -0.4983083812    1.8215220006   -0.8571573860
 H   -1.6686953535    2.2273611058    1.2103881702
 H   -0.4891763635    1.2914054132    2.1323574045
 H   -0.2220378238    4.1907308738    1.2266059485
 H    0.3760920036    3.4448163914    2.7025452291
 H    2.2126031072    1.6083747035   -0.6033829254