18

 C    0.0224052230    1.4616157881    0.0594711481
 C   -0.0071848320    0.0075988561    0.0061954965
 C   -0.0398880322   -1.1962801281   -0.0229392118
 C   -0.0494240768   -2.6294374838   -0.0972470159
 C    0.9553391695   -3.3281792990   -1.0296661794
 C    0.2373304960   -4.5867686901   -1.4634866584
 C   -1.0122895949   -4.6362524723   -0.9932758714
 C   -1.3020392567   -3.4762060367   -0.1014822580
 N   -0.4749408282   -3.3602357562    1.1157015884
 H    0.9422057911    1.8572799223   -0.3856011327
 H   -0.8228919274    1.9005723422   -0.4825043823
 H   -0.0248371391    1.8200157298    1.0937905672
 H    1.1911755617   -2.6836280141   -1.8849119826
 H    1.9077421391   -3.5321876744   -0.5235995236
 H    0.7137011429   -5.3482629551   -2.0703545683
 H   -1.7333883426   -5.4218364733   -1.1861400597
 H   -2.2977192314   -3.0534800990   -0.0221360238
 H    0.0846154379   -4.2055856163    1.2235173776