17

 C   -0.0165849738    1.3990128081    0.0068141455
 C    1.4156822585    1.9630955316    0.0387092666
 C    2.2074133072    1.2642408170   -1.0257478803
 C    1.7438475902    0.1171498298   -1.5825696107
 C    0.4724102674   -0.5762285023   -1.2260764394
 O   -0.0330264454   -0.0237803874   -0.0203578566
 O    2.5898590276   -0.3465941125   -2.5374785482
 C    3.6321839041    0.5360567335   -2.5833690368
 C    3.4557621867    1.5377921670   -1.6830359900
 H   -0.5728079186    1.6832642222    0.9039494856
 H   -0.5507075892    1.8004073925   -0.8696166842
 H    1.3826358957    3.0474463534   -0.1230729517
 H    1.8593411484    1.8040869408    1.0299979976
 H   -0.2719821065   -0.4903111228   -2.0378583691
 H    0.6290022226   -1.6444176173   -1.0386835867
 H    4.4030842127    0.3067089113   -3.2999334748
 H    4.1248061125    2.3669404850   -1.5107075669