25

 C    0.0760567217    1.3641994577   -0.3227882769
 C    0.0958346120   -0.0992937260    0.1427040878
 C    0.6864230788   -0.2262430840    1.5551013535
 C   -1.3028099031   -0.6946920178    0.0923360744
 C   -2.0187297755   -1.1735816019   -1.1468646638
 C   -1.0672784764   -1.9000310698   -2.1053675969
 C   -0.6908059864   -2.8890331865   -0.9574891569
 C   -1.6608566823   -2.1555490559   -0.0129087565
 C   -2.5454721065   -2.8567125904    0.9793998120
 H    1.0826162746    1.7960428568   -0.3200586128
 H   -0.3295182634    1.4517523974   -1.3356481825
 H   -0.5488741070    1.9760884930    0.3390858114
 H    0.7479317111   -0.6569612602   -0.5399138942
 H    0.0760547127    0.3192426284    2.2850112468
 H    0.7295697402   -1.2723474468    1.8747348288
 H    1.7010008538    0.1840818642    1.5999892613
 H   -1.9879536057   -0.1741211140    0.7641038584
 H   -2.9926449034   -0.7820280635   -1.4208996120
 H   -1.5942729233   -2.4011767690   -2.9203351177
 H   -0.2567972397   -1.3052068831   -2.5394947849
 H   -1.0215680451   -3.9087198076   -1.1722367231
 H    0.3598289544   -2.9303771477   -0.6512143462
 H   -1.9665955764   -3.2461725389    1.8265826840
 H   -3.3030905836   -2.1780588361    1.3855290759
 H   -3.0675083516   -3.7055556483    0.5214264900