21

 O    0.1358334118    1.4082504209   -0.1045259250
 C    0.0349114565   -0.0004606515   -0.0222319001
 C    0.7204966074   -0.6133972054    1.2435094964
 C   -0.4102815500   -1.3360259596    2.0045044220
 C   -1.2894415788   -1.8406243324    0.8424569818
 C   -1.4328996372   -0.5347086130    0.0417635528
 C   -2.2983374295    0.4321872103    0.8597996488
 O   -1.6451737132    0.7892881748    2.0794073400
 C   -1.2322149103   -0.3429855368    2.8421800390
 H   -0.1959423702    1.7479739310    0.7371609613
 H    0.5182190711   -0.3703286606   -0.9310024404
 H    1.4978872191   -1.3280097985    0.9559997627
 H    1.2046850680    0.1738251384    1.8289495722
 H   -0.0475995474   -2.1358227183    2.6575949533
 H   -0.7709789236   -2.6140711011    0.2646549959
 H   -2.2505186304   -2.2534345675    1.1677835437
 H   -1.8741621245   -0.6674003340   -0.9501785439
 H   -2.4577463294    1.3715372905    0.3253177534
 H   -3.2811073251   -0.0187913231    1.0694368711
 H   -2.1135713391   -0.8503988321    3.2676752434
 H   -0.6410280553    0.0608764380    3.6701481217