14

 C    0.0645148592    1.4605354464    0.2161440759
 O    0.9297893448    2.2009549896   -0.6734115293
 C    2.0278289795    1.4962995692   -1.0296105239
 C    2.0861372952    0.1327499835   -1.0429560378
 O    3.2826600402   -0.2666657218   -1.5062608410
 N    4.0361670961    0.8634289388   -1.8231806901
 C    3.2783661035    1.9055098696   -1.5432556910
 C    0.9504665562   -0.6775822739   -0.6937347448
 C   -0.0684894430   -0.0082722117   -0.1308703284
 H    0.4476229575    1.5708459506    1.2459744578
 H   -0.9007173985    1.9688826961    0.1646257363
 H    3.6591263804    2.9008428068   -1.7174650775
 H    0.9142348707   -1.7341343803   -0.9290072489
 H   -0.9978652919   -0.5005132927    0.1331363727