18

 C    0.0620398405    1.3958722987   -0.0247714718
 O   -0.1218103563   -0.0061078991    0.0878751604
 C    0.6447101519   -0.6103623026    1.1077433905
 C    0.1332870533   -2.0384970464    1.3485051616
 C    1.3674685709   -2.9037449861    1.2407981433
 N    1.2792173299   -4.2257865298    1.5241427127
 C    2.4706846324   -2.1950235333    0.8825206477
 C    2.1440440227   -0.7908108520    0.7267271579
 O    2.8655462545    0.1202531102    0.3652202183
 H    1.0938891649    1.6510065240   -0.2815377348
 H   -0.6142276381    1.7360557773   -0.8132079989
 H   -0.2048063232    1.9044191316    0.9158296706
 H    0.5928109031   -0.0054494788    2.0278715300
 H   -0.3597544016   -2.1669117084    2.3183165324
 H   -0.5948688977   -2.2975659154    0.5715388690
 H    0.3746457709   -4.6635051196    1.5692598806
 H    2.0561665002   -4.8327556927    1.3211531312
 H    3.4616793216   -2.5967045775    0.7140266393