17

 C   -0.0083340768    1.5226806889    0.0832814635
 C   -0.0318166594   -0.0040005769   -0.0250673529
 C   -1.4542832083   -0.5579092242   -0.0301982375
 C    0.8218117942   -0.5088646678   -1.2120533560
 O    2.1103100542   -0.6845257293   -0.6453226220
 C    1.8478776027   -1.1836657406    0.6414754899
 O    0.6819961472   -0.5414085680    1.1113630517
 H    1.0207871113    1.8875775829    0.0226800211
 H   -0.5929367667    1.9844426494   -0.7195498978
 H   -0.4288588008    1.8380082365    1.0422283296
 H   -2.0031597356   -0.2122283726   -0.9129591375
 H   -1.4430439028   -1.6515532302   -0.0353432282
 H   -1.9977484845   -0.2255985681    0.8588835025
 H    0.4301984616   -1.4622156630   -1.6009106798
 H    0.8994023396    0.2082387061   -2.0316825410
 H    1.6908130676   -2.2782006111    0.6111261833
 H    2.6967165566   -0.9478767419    1.2918086411