19

 C   -0.5242670661    1.6561795822   -0.0419670197
 C    0.2044429825    0.3134471103   -0.0396786934
 C   -0.7715497438   -0.8549174789    0.1159917718
 O   -0.4597596840   -1.9625363937    0.4674637462
 C    0.9858016348    0.0764873548   -1.3532259562
 O    0.6779662858    0.6530264803   -2.3702661751
 C    2.1209296649   -0.9182417047   -1.2715037693
 C    2.7034054268   -1.2895982304   -2.6272690677
 O    3.7946028607   -2.1637262000   -2.3841409874
 H    0.1872680508    2.4844332928   -0.0812473861
 H   -1.1694660583    1.7364963724   -0.9201557475
 H   -1.1350632121    1.7715853974    0.8584395734
 H    0.9153315031    0.2267497435    0.7893975689
 H   -1.8239341627   -0.6064002356   -0.1474893660
 H    2.9076626145   -0.4826219250   -0.6391766822
 H    1.7753874074   -1.8072040471   -0.7298549364
 H    1.9277990680   -1.7678399106   -3.2437402598
 H    3.0177389020   -0.3785393198   -3.1551636210
 H    4.1726328356   -2.4124860477   -3.2324788624