18

 O   -0.0088143738    0.1183171310   -0.6266171924
 C    0.0026189580    1.2364352475   -0.1882772238
 C   -1.0564431848    2.1451736501    0.4668335544
 C   -0.0152581410    3.3096258100    0.4414771478
 C    1.0426200145    2.3323713409   -0.0938615138
 C    2.4617575825    2.2253958411    0.3407082516
 C    3.1282648490    0.9603931321   -0.1919766156
 C    2.6873117810    1.4499463965   -1.5971382486
 N    2.1085695981    2.7317684265   -1.0307523324
 H   -1.9582895087    2.2875091522   -0.1340647919
 H   -1.3533835430    1.8050075392    1.4630314898
 H   -0.2563280312    4.0999478065   -0.2718043345
 H    0.2087216420    3.7586791737    1.4109004734
 H    2.8402229189    2.8848666841    1.1172301800
 H    4.2113304256    0.9618736208   -0.0573274583
 H    2.7204832039    0.0099589565    0.1580115102
 H    3.5156141043    1.6997724426   -2.2618573883
 H    1.9581533548    0.8342707886   -2.1251357777