19

 C    0.2198850702    1.0688988893   -0.4040041061
 O   -0.1042853079   -0.0257000037    0.4279090268
 C   -1.3231849985   -0.6411811061    0.1450043064
 C   -2.4581880887   -0.0121076998    0.9446586748
 C   -1.7703011954   -1.1865196932   -1.1995624585
 C   -0.6858237212   -1.9345731378   -2.0308338265
 O    0.5879513051   -1.8381512489   -1.3891009861
 C   -0.3586884728   -2.8009122509   -0.9066056242
 C   -1.4427469526   -2.1268954180   -0.0105753245
 H    1.1322239618    1.5114532570    0.0028821220
 H    0.4115391872    0.7438205688   -1.4339327552
 H   -0.5679553808    1.8363100385   -0.4111828195
 H   -2.5770567055    1.0423159545    0.6754419921
 H   -3.4127497025   -0.5161304217    0.7696115319
 H   -2.2234745565   -0.0650797876    2.0116583200
 H   -2.7456742206   -0.9486477464   -1.6073688890
 H   -0.7077388900   -2.1087595320   -3.1000687051
 H   -0.0433716068   -3.8358990080   -0.8576850373
 H   -2.1345828744   -2.7129851241    0.5829743880