16

 O   -0.0695356555    0.0088172198    0.2682448390
 C   -0.0841667818    1.1828839233    0.0538793730
 C   -1.1884217671    2.2882391537   -0.0825294377
 C   -1.7112320667    2.5436531325    1.3146013904
 C   -0.8932090312    3.3226519452    2.0313748997
 C    0.3198296785    3.7588079652    1.2529288279
 C    1.4940647908    2.7034608755    1.2609843091
 N    0.9858997535    2.1298392375   -0.0354330464
 C    0.0127892557    3.2594995457   -0.1887605455
 H   -1.9362154331    2.2033042519   -0.8722486714
 H   -2.6017054958    2.0548814293    1.6913963262
 H   -1.0346217823    3.5674114396    3.0782784266
 H    0.6202862853    4.7962520677    1.4135153586
 H    2.4863247939    3.1436220456    1.1278876149
 H    1.5179658296    1.9861731543    2.0846382454
 H    0.1277051762    3.9153341832   -1.0508016298