20

 C    0.0765557088    1.3581963147   -0.5675026051
 C   -0.0387559102    0.1518064268    0.3756290523
 C   -1.4214901547   -0.4831946813    0.3431966650
 C   -2.5163411227    0.3228207592    1.0121425634
 O   -1.7965700479   -1.0790145425   -0.9131610005
 C   -1.5825842285   -1.9623950727    0.1931589212
 C   -0.4479526446   -2.9606797969    0.0724655343
 C   -2.7986217094   -2.5700309405    0.7242847625
 N   -3.7355515207   -3.0869253669    1.1618895057
 H    1.0960252712    1.7536360134   -0.5563839425
 H   -0.1652987023    1.0647586187   -1.5929567176
 H   -0.5961056938    2.1711846873   -0.2796429591
 H    0.7232372338   -0.5813275411    0.1042117135
 H    0.1737851110    0.4572816489    1.4071119844
 H   -2.5916394158    1.3117589861    0.5510287896
 H   -3.4856620087   -0.1690609366    0.9225735780
 H   -2.2929880093    0.4620445830    2.0748507712
 H    0.4159496353   -2.5121081358   -0.4168368039
 H   -0.1535481940   -3.3311513462    1.0589477369
 H   -0.7730124474   -3.8153253875   -0.5276915494