20

 C   -0.0960556324    1.5384794639    0.0297000311
 C    0.0104727867    0.0291664289    0.0362660539
 C    1.3586832758   -0.6532187597   -0.1258305262
 O    2.5311367221    0.1092389207   -0.1697887977
 C    0.6637828006   -0.6904045320    1.1941280515
 C    1.2582722829   -0.1510710559    2.5000827770
 N    0.8890519945   -1.4188269068    3.2349669983
 C   -0.5775369149   -1.5263041610    3.1377443159
 C    0.2235352092   -1.9126114299    1.9577979864
 H    0.8161478693    1.9958954402    0.4211500261
 H   -0.2525433994    1.9196753606   -0.9859605857
 H   -0.9367956976    1.8804357668    0.6425690708
 H   -0.8251226100   -0.4935549542   -0.4256667639
 H    1.3921797092   -1.5761791439   -0.7071163632
 H    2.6040713411    0.5006020295   -1.0467761156
 H    2.3423418862   -0.0331308835    2.4625940895
 H    0.8066955174    0.7490167962    2.9320979008
 H   -0.9836705148   -2.3212113335    3.7562788788
 H   -1.1759817528   -0.6172783429    3.1098690669
 H    0.3242203669   -2.9405778335    1.6213920652