15

 N    0.1443341683    1.1834554330   -0.4578977402
 C   -0.1154172125    0.1761813759    0.4203684472
 O    0.5118286255    0.0019247377    1.4446941784
 C   -1.2984256650   -0.7201808023    0.0866736776
 C   -1.8297469269   -0.9787326761   -1.3398830589
 O   -1.7910402123   -2.4068446549   -1.1267128944
 C   -1.0662716565   -2.2595226461    0.1119659698
 C    0.3227004768   -2.7176099611   -0.0173521653
 N    1.4015805337   -3.1065435469   -0.1557980334
 H    0.9438735047    1.7693128864   -0.2765263877
 H   -0.3130444701    1.2621054401   -1.3486130111
 H   -2.1031983974   -0.4592049984    0.7776263331
 H   -2.8413559444   -0.6282971925   -1.5642345639
 H   -1.1507827907   -0.6803985451   -2.1501778297
 H   -1.5457591631   -2.8016433396    0.9321968583