21

 C   -0.0277402288    1.5641253825   -0.2245866298
 C    1.4666429629    1.9613055900   -0.2377454642
 C    2.2184115890    0.6301503809    0.0056439329
 C    2.7498636670    0.4717032155    1.4354759378
 C    1.7486433101    0.5816472263    2.5596705558
 C    0.4584062201    0.2387173327    2.5710186303
 C   -0.3744386276   -0.3586965592    1.4629533235
 C   -0.0153409037    0.0364548978    0.0252921384
 O    1.2932529223   -0.3996148699   -0.3347835602
 H   -0.5880513761    2.0919045211    0.5508506842
 H   -0.5004697725    1.7880908990   -1.1837463553
 H    1.7499650045    2.3861966293   -1.2035701669
 H    1.7036743494    2.7010187067    0.5306576234
 H    3.0648388184    0.5157253349   -0.6802153912
 H    3.2511098816   -0.5051904392    1.5033659709
 H    3.5399627671    1.2192740881    1.5847964899
 H    2.1651219140    0.9499901970    3.4957644521
 H   -0.0705468542    0.3557763719    3.5154277025
 H   -0.3233614098   -1.4552398606    1.5347976984
 H   -1.4288564159   -0.1013757854    1.6284965359
 H   -0.7044181577   -0.4860772395   -0.6470676185