17

 N   -0.0873194686    1.4228445567    0.2080728235
 C   -0.0112712190    0.0342403806   -0.0034191707
 C   -1.0269761626   -0.8513540498   -0.3131519243
 C   -2.4556477029   -1.3386228972   -0.3151110652
 O   -3.2127253947   -0.9623553944   -1.4439029815
 C   -1.8164577542   -2.7937568518   -0.3252268219
 N   -0.5057384662   -2.1235716221   -0.3520962540
 C    0.8127171557   -2.1193143243   -0.0373294588
 C    1.1562708508   -0.7812882556    0.1382070350
 H    0.7891564441    1.8873741909    0.0074311425
 H   -0.8163703680    1.8553626136   -0.3443436397
 H   -3.0125738455   -1.1372807418    0.6103541189
 H   -4.1288744329   -1.2156053999   -1.2891885736
 H   -1.9939449048   -3.3899751711    0.5754055327
 H   -2.0356264255   -3.3780157916   -1.2233127884
 H    1.4224438098   -3.0082624355   -0.0151079202
 H    2.1561929845   -0.4144525765    0.3237229955