15

 O    0.4045664018    1.1326065090    0.5985856669
 C   -0.0669885837   -0.0574941073    0.0359540747
 C   -1.5623189231   -0.1031034175   -0.2975108615
 C   -1.6560579814   -1.2916912799   -1.2848039170
 C   -0.3827063751   -1.1842289628   -2.1550037767
 C    0.5826867070   -0.3539448234   -1.3159121532
 O    1.6502627780    0.1038112417   -1.6435223075
 H    1.2441082224    1.3169691609    0.1501120649
 H    0.1659173997   -0.9238019176    0.6874714471
 H   -2.1964413689   -0.2256446967    0.5827234485
 H   -1.8420784708    0.8368624885   -0.7876829237
 H   -1.6548461331   -2.2354312164   -0.7289318919
 H   -2.5729980387   -1.2700881325   -1.8769573642
 H    0.0590355503   -2.1450177115   -2.4345368550
 H   -0.5615008844   -0.6390215746   -3.0887877712