18

 O    0.2723728232    1.2167033722   -0.4710261381
 C    0.0167791502   -0.0336668776    0.1654524322
 C   -1.4183814569   -0.4638885443    0.1218030387
 C   -2.0947966843   -0.9657744625   -1.1436822736
 C   -1.9730968253   -1.9185161669   -0.0005435261
 O   -1.2755475528   -3.0970351723   -0.1470840574
 C   -2.9759170102   -1.6172312689    1.0813358560
 N   -2.2035034446   -1.1939743237    2.2864703375
 C   -2.4614000149   -0.2220391670    1.1900224654
 H   -0.2311697231    1.8894364074   -0.0021145184
 H    0.6310755094   -0.7632252551   -0.3736004489
 H    0.3589722282   -0.0250900439    1.2112030885
 H   -3.0611396227   -0.5773012651   -1.4539493418
 H   -1.4106698632   -1.1665862567   -1.9624142365
 H   -0.9260150144   -3.3295923745    0.7221529957
 H   -3.9941600270   -1.9770156519    1.1754226556
 H   -2.8847347061   -1.0061392460    3.0246569455
 H   -3.0486840255    0.6715705268    1.3703434360