15

 N    0.0219887468    1.3513996654   -0.0386436686
 C   -0.0817374315    0.0012555485    0.0058384533
 C   -1.1758378601   -0.7992130840    0.0384799647
 C   -0.7815978853   -2.2031507431    0.0621900951
 O   -1.4963968889   -3.1808691858    0.1319067573
 C    0.7592046084   -2.2517282692   -0.0483981370
 C    1.2165543572   -0.7926358324    0.0842748124
 O    2.1809887644   -0.3304303249   -0.8562934013
 H    0.9140978558    1.7178309651   -0.3352019962
 H   -0.7855623091    1.9055237404   -0.2721282093
 H   -2.2104026001   -0.4807382164    0.0367260103
 H    1.1843159091   -2.9188044890    0.7047041130
 H    1.0352323136   -2.6588797828   -1.0282796563
 H    1.6848673336   -0.6097927780    1.0581545238
 H    1.8738835960   -0.5768872840   -1.7365776913