21

 C    0.0796360883    1.4976806904    0.2644867409
 C   -0.0567457771    0.0170788301   -0.1334328566
 C   -1.4729352443   -0.4670522014   -0.1280342430
 C   -2.2103154166   -0.9442702194   -1.1416469371
 C   -3.5185009233   -1.4260996510   -0.5400650302
 C   -3.7413799796   -0.3823226800    0.5642957347
 C   -2.3202749059   -0.6339795656    1.1328031366
 C   -2.4324360490   -2.1747950811    1.3477990615
 O   -3.2247011185   -2.6244443457    0.2441117259
 H    1.1297849070    1.8051064081    0.2629775530
 H   -0.4647045069    2.1400824534   -0.4344558234
 H   -0.3201342724    1.6817962057    1.2668798405
 H    0.3745007069   -0.1366648140   -1.1290641922
 H    0.5406694749   -0.5912702604    0.5604439105
 H   -1.8953961219   -1.0955006460   -2.1668660711
 H   -4.3375966499   -1.6669842496   -1.2152888851
 H   -3.8744632373    0.6333217659    0.1892995320
 H   -4.5521376609   -0.6516470056    1.2475365988
 H   -2.0125028683   -0.0756341311    2.0169708366
 H   -1.4550716564   -2.6723062279    1.3433646029
 H   -2.9455346088   -2.4136438248    2.2883133549