21

 C   -0.1159501156    1.4925579545    0.0154630083
 C   -0.0573444598    0.0375104551    0.0132152781
 C   -0.0015444822   -1.1649473802    0.0235115105
 C    0.0469317179   -2.6366584050    0.0036858654
 C   -1.3993604982   -3.2002122044    0.0307315661
 C    0.7629863766   -3.1112115591   -1.2894308620
 C    0.7850026184   -3.1280382189    1.1794714780
 C    1.3836102364   -3.5588453296    2.1308907876
 C    2.1104511696   -4.0639797526    3.2872402123
 H    0.3959410125    1.9085579257    0.8903726960
 H    0.3606259227    1.9127334687   -0.8772285450
 H   -1.1513401488    1.8504331111    0.0369990230
 H   -1.9550088791   -2.8425809428   -0.8408217106
 H   -1.3736719007   -4.2935078200    0.0135548111
 H   -1.9203377372   -2.8768897160    0.9342914648
 H    1.7834655638   -2.7244437569   -1.3269660764
 H    0.8015166254   -4.2039785768   -1.3144462980
 H    0.2201804327   -2.7530502843   -2.1688240144
 H    1.4787118118   -4.7133707737    3.9034933147
 H    2.9874653673   -4.6467437321    2.9842505780
 H    2.4619553794   -3.2441938303    3.9235978570