21

 C   -0.6985747884    1.3510746202   -0.1392787818
 C   -0.0610448738   -0.0427600253   -0.1215339997
 C    1.0608703246   -0.2556325237   -1.1333702377
 C    2.4062371518    0.4094936332   -0.8867036350
 C    2.1413704889   -0.9978805474   -0.4165788755
 O    1.7851710948   -1.2026753071    0.9268699561
 C    0.5696660220   -0.4860584126    1.2350143327
 C    0.9149518591    0.6088444176    2.2495253585
 O    1.5845366161    0.0464045799    3.3591190346
 H    0.0359204037    2.1390833267    0.0483732160
 H   -1.1468429635    1.5463967530   -1.1183330335
 H   -1.4926599293    1.4406758120    0.6089486954
 H   -0.8445497158   -0.7690723387   -0.3684320155
 H    0.7825938268   -0.4963870812   -2.1531243544
 H    3.0542516816    0.5330951221   -1.7484027699
 H    2.4912145968    1.1993633218   -0.1492570367
 H    2.6842819679   -1.8407490197   -0.8286417337
 H   -0.0803257170   -1.2014620999    1.7531030994
 H    1.5197372586    1.4015529835    1.7825705996
 H   -0.0014629666    1.0737868394    2.6280840905
 H    2.2686002715   -0.5223279938    2.9829610907