17

 C    0.0004563601    1.3699997482   -0.0680666999
 O   -0.0520064816   -0.0555083487   -0.0976071228
 C   -1.2581976052   -0.6301639559   -0.0211872843
 N   -2.3363607875    0.1500723407    0.0774805548
 C   -3.5015674922   -0.4979621291    0.1491299477
 C   -3.5967366272   -1.8795769913    0.1238129657
 C   -2.3969951093   -2.5920753801    0.0176667958
 C   -2.3593277467   -4.0951111313   -0.0204944799
 N   -1.2226789097   -1.9632475744   -0.0551040984
 H    1.0595447175    1.6207999896   -0.1411195258
 H   -0.5510224650    1.8034936448   -0.9069506874
 H   -0.4191337543    1.7619704697    0.8625648871
 H   -4.3907916953    0.1238653199    0.2300088109
 H   -4.5534393037   -2.3827109580    0.1833322268
 H   -1.8844483656   -4.4345532602   -0.9462644433
 H   -1.7512655959   -4.4757141526    0.8060328878
 H   -3.3596184686   -4.5285607813    0.0452784455