20

 C    0.0442738576    1.3113582159    0.1701995225
 O    0.2053111181   -0.1049287081    0.0221149328
 C    0.6001523868   -0.5169323538   -1.1998243994
 O    0.8071408132    0.2323683919   -2.1216791763
 C    0.7454615334   -2.0240919193   -1.2374886266
 C    1.1422898172   -2.5473289580   -2.6212196581
 C    1.3088830045   -4.0492304861   -2.6430655765
 C    2.2643875966   -4.6946457446   -3.5735251428
 N    2.5383312486   -4.6763244581   -2.1230140058
 H    0.9855157301    1.8302645821   -0.0283702160
 H   -0.7147601089    1.6881984927   -0.5201198441
 H   -0.2676626932    1.4683438438    1.2027731485
 H    1.4825811240   -2.3120249843   -0.4780133739
 H   -0.2006291668   -2.4656506351   -0.9021970585
 H    0.3826464905   -2.2455266689   -3.3516945063
 H    2.0736647049   -2.0652800318   -2.9408679264
 H    0.4125819167   -4.6086225103   -2.3762423034
 H    2.0516974978   -5.6765799584   -3.9865257841
 H    2.8523410017   -4.0499298733   -4.2222943222
 H    3.2277164871   -3.9541139362   -1.9224413333