16

 N   -0.1148410374    1.3690462629    0.0893327384
 C    0.0517458438   -0.0127778537   -0.0340456050
 O    1.1496190809   -0.5135917168   -0.2018623447
 C   -1.1847679995   -0.7892095490    0.0024857725
 C   -1.3555373981   -2.1467054993    0.1675595573
 C   -2.7456299578   -2.4198693591    0.1771776142
 C   -3.3994334301   -1.2135644988   -0.0046827007
 N   -4.7514712592   -0.9090570658   -0.1889553303
 N   -2.4586331840   -0.2244608846   -0.0836271824
 H    0.7652537096    1.8528715237    0.2046333130
 H   -0.8355710059    1.6847205643    0.7227123228
 H   -0.5484592266   -2.8482263439    0.3088996173
 H   -3.2221965413   -3.3778933566    0.3183769878
 H   -5.3297430451   -1.7363114472   -0.1259720576
 H   -5.0999305162   -0.2125044334    0.4606847537
 H   -2.6423085931    0.6827544473   -0.4798168263