16

 C   -0.0122910613    1.5636544933   -0.0628173336
 C   -0.0031983967    0.0375678966    0.0439640282
 C   -1.4050297510   -0.5640732922    0.0448997612
 O   -2.0839575503   -0.3143786586   -1.2030497903
 C   -2.4552207372   -1.4706930889   -1.7816401740
 O   -3.0257253130   -1.5883820746   -2.8128793367
 O   -2.0701991481   -2.5371431635   -0.9881827895
 C   -1.4262529899   -2.0728895002    0.1380596076
 N   -0.9413724758   -2.7713838935    1.0586438268
 H    1.0085720576    1.9547858055   -0.0632384017
 H   -0.5016419266    1.8902880047   -0.9844450396
 H   -0.5442095074    2.0161700327    0.7810972445
 H    0.5642782905   -0.4039423545   -0.7835415790
 H    0.4794545685   -0.2911828848    0.9703357714
 H   -2.0106804157   -0.1236404767    0.8447500949
 H   -1.0757646336   -3.7691244553    0.8925103998