13

 C   -0.0427452691    1.4180794222   -0.0273196579
 N    0.0581310634   -0.0316385365   -0.0386673358
 C    0.6002497461   -0.7159816862   -1.0634939861
 N    0.5763543177   -2.0142321162   -1.2506815442
 C    1.3089328932   -2.1194166823   -2.4011643674
 O    1.5506251250   -3.3001948180   -2.9727476350
 N    1.7664455626   -1.0110562517   -2.9258255591
 O    1.2685971572   -0.0364473521   -1.9971220569
 H    0.9134706691    1.8531748723   -0.3241779866
 H   -0.8192685980    1.7939891840   -0.7055373691
 H   -0.2717831998    1.7445647482    0.9886486430
 H   -0.5609761986   -0.5690362520    0.5453769326
 H    1.1282676513   -3.9682925017   -2.4195722276