13

 N    0.0107974694    1.3350284220    0.0104014851
 C   -0.0401399687    0.0756789114    0.0038675312
 O    1.0808016813   -0.7589441671   -0.0070786894
 C    0.7256140389   -2.1555544639   -0.0126370790
 C   -0.7628515871   -2.0859091501   -0.0037479184
 C   -1.1993341009   -0.8071492723    0.0056837025
 C   -2.6115199677   -0.9496981107    0.0129635827
 N   -2.9639477287   -2.2141603774    0.0081704877
 O   -1.7516835565   -2.9625602132   -0.0028369187
 H    0.9778910522    1.6609784453    0.0066438595
 H    1.1388100643   -2.6336996922   -0.9081757993
 H    1.1489937716   -2.6433734108    0.8728710638
 H   -3.3867944580   -0.1973925810    0.0214679323