19

 C   -0.0591092242    1.3605431558   -0.0908805487
 O   -0.0295821669   -0.0503855589    0.0138139151
 C    0.6473235133   -0.5994227465    1.1370442458
 C    0.4970719531   -2.1181608493    0.9807015765
 C    2.1575322128   -0.1904364254    1.1683485873
 C    2.8671058772   -0.4944844320   -0.0656896452
 C    3.4564465554   -0.7382613367   -1.0843928219
 C    0.0307238407   -0.1552853462    2.4009676812
 C   -0.4611333000    0.2104786189    3.4352665733
 H    0.9270715455    1.7787007431   -0.3331653673
 H   -0.7418981113    1.5906201520   -0.9119122155
 H   -0.4352242497    1.8297920412    0.8274600700
 H    0.9857329159   -2.4342957950    0.0565131313
 H    0.9494025742   -2.6397741811    1.8276185964
 H   -0.5626554814   -2.3752079081    0.9305010696
 H    2.2335929188    0.8795248065    1.3888855963
 H    2.6250947519   -0.7069346083    2.0141508974
 H    3.9782136071   -0.9530852031   -1.9839132484
 H   -0.9065983024    0.5252388431    4.3469717670