21

 C    0.1702413192    1.5763680613   -0.0436101490
 C    0.2113821075    0.0468261585   -0.0695700711
 C    0.5391856668   -0.5663109975    1.3070649144
 C    0.5733907881   -2.0606567774    1.3255213992
 C   -0.2775018828   -2.9810377392    1.8939324688
 C    0.2175781569   -4.2868001429    1.6025659743
 C    1.3599715682   -4.1301880150    0.8509155409
 N    2.2493034621   -5.0382273478    0.2325824207
 N    1.5644867074   -2.7808414428    0.6873373335
 H    1.1326538844    1.9948673224    0.2724547845
 H   -0.0631535052    1.9870742338   -1.0308181431
 H   -0.5909121580    1.9389951292    0.6564137650
 H   -0.7513104766   -0.3511630261   -0.4112030281
 H    0.9542117551   -0.2887050543   -0.8050784913
 H    1.4983721143   -0.1561074642    1.6572365359
 H   -0.2124588233   -0.2362734887    2.0331272041
 H   -1.1559112524   -2.7392546382    2.4740662016
 H   -0.2016322706   -5.2289762852    1.9223283668
 H    3.0779123062   -5.2076601751    0.7970407109
 H    1.7961351697   -5.9328536141    0.0900656914
 H    2.2958340229   -2.3990748867    0.1120737505