18

 C    0.0240374596    1.5025606365    0.0068577423
 C   -0.2299452062    0.0064590319    0.0211558162
 O   -0.7209867928   -0.5492598961    0.9780035767
 C    0.1530224356   -0.7460952561   -1.2460912782
 C    0.1370398347   -2.2618261188   -1.0856100083
 C   -0.1442439393   -3.0103939002   -2.3815207167
 C    0.0900456058   -4.5093450175   -2.3463331152
 O   -0.5445207482   -2.4493581254   -3.3767798608
 H    1.1039227652    1.6927654814    0.0059697612
 H   -0.3781582181    1.9584344196   -0.9041488047
 H   -0.4220714835    1.9659049642    0.8875057647
 H   -0.5602568582   -0.4633701085   -2.0325306649
 H    1.1231450655   -0.3825423194   -1.6051353578
 H    1.0681865718   -2.6367410907   -0.6444399113
 H   -0.6446738338   -2.5356377584   -0.3637038467
 H   -0.3936109301   -4.9600811712   -1.4731635073
 H   -0.2846699568   -4.9678844726   -3.2620681012
 H    1.1636471887   -4.7120831887   -2.2534814781