15

 C   -0.2075185434   -1.0852081642    0.0625762878
 C   -0.0477444520    0.1032490478    0.0127908376
 C    0.1187349560    1.5611968103   -0.0245934745
 C    1.5359210780    1.9426174876   -0.0534175844
 C    2.6883127829    2.2778932570   -0.0581899917
 N   -0.5776818238    2.1185333794   -1.1989775740
 C   -2.0043324203    2.3710485464   -1.0091272079
 C   -1.0333737612    3.4988216479   -1.0496929986
 H   -0.3375724312   -2.1386359018    0.0989522732
 H   -0.3138986160    1.9673565807    0.9114762243
 H    3.7110015246    2.5641310477   -0.0693263064
 H   -2.6336241415    2.1467945729   -1.8646437274
 H   -2.4435672458    2.1245997735   -0.0440597007
 H   -0.8210907357    4.0091119356   -0.1118446231
 H   -0.9360917505    4.1184782692   -1.9355641341