14

 O   -0.5461117548    0.6028573458    0.5459149900
 C    0.3592465074    0.8307788868   -0.2059694137
 C    1.3291349094    2.0048385568   -0.0337582341
 O    2.6529897549    1.5212963274    0.0705267161
 C    3.3304754511    1.8048134169   -1.1450053480
 C    2.5753934413    3.0390757810   -1.6654494415
 O    1.2517549196    2.8010264534   -1.2088535137
 C    3.1150636602    4.3043454169   -1.1318663445
 N    3.5469440140    5.2949071789   -0.7241394063
 H    0.5871612030    0.1961855247   -1.0906977953
 H    1.0808095660    2.5778802946    0.8673477553
 H    4.3828612711    1.9877600703   -0.9225763890
 H    3.2407226390    0.9813102804   -1.8645894638
 H    2.5525604079    3.0948828960   -2.7566718915