18

 O    0.0159943534    1.2930098876   -0.8154223648
 C    0.0453227734    0.2504841330    0.1424796379
 C   -1.3112240841   -0.3991906169    0.2823400204
 N   -1.7144868974   -1.1991519099   -0.9017957785
 C   -1.5025735251   -1.8618358505    0.3832746113
 C   -0.4626347788   -2.9791407377    0.5966885235
 C   -1.5043126642   -3.6852742291    1.4853746308
 O   -1.4910642573   -4.6766940619    2.1519321506
 C   -2.5714453362   -2.6034128812    1.2095547939
 H   -0.3082301652    0.8921593263   -1.6309058254
 H    0.7916942399   -0.5145579267   -0.1204306768
 H    0.3521305957    0.7067930162    1.0896697115
 H   -2.0768584980    0.2296333216    0.7347414624
 H   -2.7097993598   -1.0896015469   -1.0814450726
 H   -0.2094718631   -3.5372754895   -0.3102901923
 H    0.4637033921   -2.7092220315    1.1121320396
 H   -2.9546235847   -2.0960026622    2.1000552419
 H   -3.4208755207   -2.9840787708    0.6306329664