19

 C    0.0595180026    1.4752096990    0.0007314444
 C   -0.0896626039   -0.0129023990   -0.0300623863
 C   -0.1621950037   -0.8059859586   -1.1135912072
 C   -0.0330869257   -2.2301871975   -0.6597021385
 O    1.3790156969   -2.3647938551   -0.1685075158
 C    0.9153912889   -2.0989626030    1.1299248711
 C   -0.5286642421   -2.2498502861    0.8151030724
 C   -0.0685600664   -0.8604089527    1.2008794870
 C   -0.3744975217   -0.3107700890    2.5715616658
 H    1.0162608561    1.7661766806    0.4527280580
 H    0.0212736216    1.8978824349   -1.0064660237
 H   -0.7265532643    1.9501635929    0.6003690099
 H   -0.0875214120   -0.4881931854   -2.1458839689
 H   -0.2716923501   -3.0405708521   -1.3459449689
 H    1.5475155727   -2.3756958043    1.9660836828
 H   -1.3427834052   -2.8081261004    1.2615294166
 H   -0.2789443138   -1.0896972786    3.3357367731
 H    0.3094525241    0.5004587950    2.8434655971
 H   -1.3973244240    0.0799133194    2.6305223711