17

 C    0.1641889505    1.4070675830   -0.1632420696
 O   -0.1290044429    0.0477165196    0.0678837527
 C    0.7035962208   -0.5312339139    1.0209972409
 C    0.3637317611   -2.0006956994    1.2132765312
 O   -0.4632001471   -2.5845206968    0.5507078683
 C    1.1376978320   -2.6985893383    2.2898105628
 C    0.3404258842   -3.5590486679    3.2235044896
 N    1.2033399757   -4.1660049404    2.2208295587
 H    1.1914754455    1.5455700855   -0.5354656299
 H   -0.5380204383    1.7634370833   -0.9197400951
 H    0.0442872889    2.0122953145    0.7491704346
 H    1.7711953169   -0.4694297256    0.7333878488
 H    0.6281459931   -0.0276190721    2.0039706865
 H    2.0322229650   -2.2050738060    2.6601147700
 H    0.6731429182   -3.6600902184    4.2525098196
 H   -0.7345555965   -3.5804611588    3.0677157851
 H    0.6256851928   -4.4429039682    1.4252865758