19

 C   -0.3151441801    1.5268952846    0.1737889465
 C   -0.0007254722    0.0323705659    0.0913962463
 C    1.1238711999   -0.5213733485   -0.8412376451
 C    2.1950620371   -0.1196237962    0.2410229952
 O    2.6316467720    1.1970277261    0.4328770977
 C    1.0061641488   -0.7230374158    1.0431480660
 C    1.0362645131   -1.8626230576   -0.0163288882
 C   -0.1209207695   -2.7963504510   -0.2166019432
 O   -1.1403147933   -2.8197406554    0.4287504271
 H    0.5148117665    2.1734534014   -0.1150827680
 H   -1.1426698073    1.7605530779   -0.5043093998
 H   -0.6471547677    1.8053481995    1.1811685980
 H   -0.9436905476   -0.5076602360    0.0093179515
 H    1.2023138487   -0.4353394107   -1.9261440808
 H    3.0984966502   -0.7376334432    0.2058311192
 H    2.0022758419    1.6683717121    0.9827597323
 H    0.9292652951   -0.8545808153    2.1239278893
 H    1.9611929583   -2.4523631719   -0.0567427717
 H    0.0430501863   -3.5295057357   -1.0410430624