18

 C   -0.7763594200    1.3259765253    0.1263808796
 C   -0.0047438615    0.0334389649   -0.0183919674
 O    1.1552900691    0.1508724901   -0.8888285418
 C    1.9990989105   -0.5293596114    0.0606299039
 C    3.1554261402    0.3482654596    0.5629369817
 N    2.5688310755    1.0406403535    1.6966761799
 C    1.3471976622    0.5892037718    2.1220418394
 O    0.7375554259    0.9896345758    3.0902241096
 C    0.8974640129   -0.4858635157    1.1339845200
 H   -0.1299255823    2.1359411784    0.4728593156
 H   -1.2051678484    1.6120517103   -0.8390915963
 H   -1.5912950842    1.2020695781    0.8461243182
 H   -0.6651917808   -0.7636495924   -0.3869900922
 H    2.3343966662   -1.5013881065   -0.3140276120
 H    4.0208178857   -0.2593945823    0.8605097400
 H    3.4696982407    1.0386494390   -0.2273921083
 H    3.0527588160    1.7498175156    2.2242194462
 H    0.5771417723   -1.3912786140    1.6471357738