21

 C   -0.0158349119    1.6898139179    0.0243285319
 C    0.0180750956    0.1610885733    0.1350967656
 C   -1.3557964315   -0.5003240534   -0.0087788501
 O   -2.2693650065   -0.0509505050    0.9743498756
 C   -1.8963655217   -0.5110140004   -1.4855354519
 C   -1.4926281945   -1.9897588400   -1.5445965917
 O   -1.2653155826   -2.7546284619   -2.4386889906
 C   -1.3263178932   -2.0678548859   -0.0243898887
 C   -0.1921823585   -2.8899684561    0.5680418204
 H    0.9931855480    2.1061887574    0.0900730795
 H   -0.4480676889    2.0202435183   -0.9265935322
 H   -0.5975036191    2.1401820038    0.8366645311
 H    0.6887120156   -0.2431685244   -0.6330142258
 H    0.4414833982   -0.1248037308    1.1046507746
 H   -2.3583563429    0.9044214487    0.8940146855
 H   -2.9837835139   -0.3889876857   -1.5087532149
 H   -1.4386817571    0.1509318463   -2.2246921251
 H   -2.2894267270   -2.3879538361    0.3957326996
 H    0.7809629402   -2.5893567375    0.1695336424
 H   -0.1608197120   -2.7972535763    1.6578941377
 H   -0.3339695563   -3.9462716820    0.3215445470