18

 O   -0.6167900727    1.2345628262    0.9286406053
 C   -0.0897915176    0.1414669619    0.1841551611
 C    0.8348669522   -0.7711480474    1.0278147283
 C    0.0444405345   -2.0793748132    1.3001136557
 C   -1.4364338391   -1.7271786017    1.0267270588
 C   -2.0999257979   -1.1309090635    2.1863667180
 N   -2.6281690455   -0.6862575236    3.1134080634
 C   -1.3180236056   -0.7299936694   -0.1705774536
 O   -2.4672132852   -0.0025382208   -0.4764838718
 H    0.0933019184    1.8439551558    1.1479746951
 H    0.4015889391    0.5093075709   -0.7254019407
 H    1.7818949832   -0.9764474165    0.5222260009
 H    1.0688067028   -0.2569577924    1.9641309397
 H    0.3436139472   -2.8596298427    0.5936511822
 H    0.2050230614   -2.4718666525    2.3052673540
 H   -2.0195397760   -2.6047153354    0.7335187163
 H   -1.0728492962   -1.3381887876   -1.0491996662
 H   -2.4670652330    0.7653401419    0.1117313835