16

 C    0.0764057281    1.4748251072   -0.2320940900
 N   -0.0250343197    0.0272977786    0.0007298063
 C    0.6506263941   -0.4424786157    1.1496051956
 C    1.7929727747   -1.1997704598    1.1604039375
 N    2.5869390335   -1.6287003826    0.1320268315
 O    2.1756812832   -1.4860003435    2.4076694685
 N    1.2442933617   -0.9030446378    3.3176391937
 C    0.3798845700   -0.2977364822    2.5413605186
 O   -0.6711354458    0.3735129591    3.0430743292
 H    1.1257874573    1.7390564795   -0.3914914165
 H   -0.4806616223    1.7303523677   -1.1386862479
 H   -0.3070416536    2.0838097965    0.5995196648
 H   -1.0019945174   -0.2441802127    0.0244640136
 H    2.1048049647   -1.6130814077   -0.7567247040
 H    3.0917116601   -2.4856220900    0.3083536507
 H   -0.6285517286    0.3033978735    4.0063013984