15

 O    0.0367194218    0.0100197364    0.4787996373
 C    0.0395667837    1.1500227957    0.0974439969
 O   -1.1527529370    1.7664083278   -0.1643722182
 C   -1.1526790412    3.0081185487   -0.9002954294
 C   -0.1052855089    3.9891898942   -0.3506420485
 C    1.2136208375    3.2915655526   -0.1931963251
 C    1.2648902299    1.9687950146   -0.0304370756
 C   -0.9797057881    2.7593595635   -2.3331181754
 C   -0.8508668112    2.5690559402   -3.5119394972
 H   -2.1565834694    3.4095352450   -0.7330143579
 H   -0.0238835722    4.8449306257   -1.0271308793
 H   -0.4418643589    4.3807363316    0.6187242016
 H    2.1209656915    3.8888615683   -0.1963134795
 H    2.1914666105    1.4231188598    0.0988754846
 H   -0.7399179080    2.3901534359   -4.5533608642