22

 C   -0.0953552076    1.5950994805    0.0777655826
 C    0.0069895221    0.0640044667    0.0147049996
 C    0.7767076892   -0.4513709889   -1.1883077032
 C    1.7849164570   -1.2682055737   -0.8689605513
 C    2.7567867551   -1.9259412569   -1.7969821919
 C    1.8676743893   -1.4172008909    0.6304186448
 C    2.3480916283   -2.6978054660    1.2620196950
 N    2.1989037615   -0.1041299381    1.2652400538
 C    0.7877846575   -0.5554844404    1.1753395992
 H    0.9025132846    2.0329668696    0.1593960170
 H   -0.5801729366    1.9946263091   -0.8191145140
 H   -0.6845505978    1.9130349481    0.9446007607
 H   -1.0125129813   -0.3505532494    0.0114918421
 H    0.5404548197   -0.1303252884   -2.1985262924
 H    2.5304490065   -1.6923430477   -2.8407616758
 H    3.7836786977   -1.5980011216   -1.5901745112
 H    2.7487779665   -3.0176682697   -1.6866180893
 H    3.4092958392   -2.8747324885    1.0517499146
 H    2.2241159223   -2.6674690702    2.3496037260
 H    1.7873316413   -3.5607487380    0.8859397456
 H    2.5205723732   -0.2800453438    2.2171316063
 H    0.2715660323   -0.8064174715    2.0970449418