17

 C   -0.0837814281    1.5795365531    0.0004447926
 C   -0.0408187251    0.0646111355   -0.0194699177
 C    1.2184358941   -0.6471696760   -0.5804423005
 O    1.9954675587   -0.2188127141    0.6055367516
 C    0.7105967093   -0.6802089533    1.1477410792
 C    0.4478129254   -0.6262396906    2.6129287875
 O    1.2089365457   -0.1730475749    3.4277767629
 C    0.8492464579   -1.9298021218    0.2282136292
 O   -0.3106471601   -2.6599077853   -0.0342188994
 H    0.8750404314    1.9894207201    0.3240319243
 H   -0.3105521724    1.9671471940   -0.9986571227
 H   -0.8653312304    1.9411505958    0.6764992679
 H   -0.9869769834   -0.3971111902   -0.3079222730
 H    1.7037043937   -0.5417043240   -1.5514834056
 H   -0.5424049447   -1.0491461393    2.8964905853
 H    1.7171942636   -2.5452535596    0.4847727247
 H   -0.0846200757   -3.4024180094   -0.6027450565