16

 O   -0.0775415107    0.0022088168   -0.3175754128
 C    0.0192634734    1.1531307711    0.0250621470
 C    1.2814805934    1.9285269353    0.0442608240
 C    1.1897490670    3.4320781599   -0.1802984682
 C    1.5028899266    2.9177205780    1.1743770846
 C    0.7771844541    3.0755171485    2.5260720687
 N    2.1161497002    3.2182516556    3.1136563097
 C    2.8155734809    3.0794540588    1.9355843633
 O    3.9820791793    3.0894868532    1.6525018946
 H   -0.8747771700    1.7336348369    0.3586943753
 H    2.1592254006    1.4053251064   -0.3196577792
 H    1.9924478119    3.8952886189   -0.7430842060
 H    0.2011526701    3.8467099502   -0.3540677353
 H    0.1498870571    3.9681756884    2.6164053638
 H    0.2277473984    2.1965940171    2.8773917008
 H    2.4223389376    3.3708816050    4.0619975898