15

 C    0.0138831567    1.2774491714   -0.0306702976
 O   -0.1517832962    0.0402528466    0.6574537352
 C   -1.3159458666   -0.6058564544    0.3836439584
 C   -1.4281019460   -1.9277919432    0.0842720303
 O   -0.5462261587   -2.9457760020   -0.0788100746
 N   -2.7918072455   -2.1730295254   -0.0259574864
 C   -3.4036521790   -0.9776393993    0.1959844931
 O   -4.7463407729   -0.9019211574    0.1313288910
 N   -2.5699284735   -0.0104962135    0.4498555706
 H    0.9657521736    1.6941934748    0.3047375791
 H    0.0415257490    1.1239527627   -1.1178071998
 H   -0.7987709844    1.9697008468    0.2101033431
 H    0.3309807877   -2.5819168559    0.0871954522
 H   -3.2296463896   -3.0537371069   -0.2346252750
 H   -4.9732799146    0.0150725556    0.3293393804