23

 C    0.0781308787    1.4397437524    0.2773860360
 C   -0.0416143522   -0.0680846258    0.0008564587
 C   -1.5065185092   -0.5000003272    0.0868577176
 C    0.6227523898   -0.4845320721   -1.3403737276
 C    2.0182708066   -0.9941600233   -0.9649687501
 C    3.1624521332    0.0443105244   -0.7565662847
 C    3.1105448339   -0.2007026180    0.7804803442
 C    1.9430091020   -1.2129323613    0.5758204808
 O    0.6636516920   -0.8107913333    1.0164973752
 H    1.1088946368    1.7914269431    0.1895665825
 H   -0.5332232327    2.0117395544   -0.4289064377
 H   -0.2705069779    1.6604607046    1.2905733092
 H   -2.1059366490    0.0003473321   -0.6805744196
 H   -1.5914639169   -1.5812783682   -0.0526873268
 H   -1.9242235454   -0.2474345405    1.0660861568
 H    0.0435586461   -1.2916873498   -1.7997899862
 H    0.6518726117    0.3444398859   -2.0539268302
 H    2.3100959441   -1.8608895784   -1.5604733217
 H    4.1081124081   -0.2371339405   -1.2255748869
 H    2.9205939048    1.0605869497   -1.0795104010
 H    4.0171387837   -0.6513756547    1.1926642270
 H    2.8412521670    0.6587645855    1.3976245414
 H    2.1277929748   -2.2177037089    0.9668744830