20

 C    0.1404033647    1.1484060898   -1.0059972098
 O   -0.1463968226    0.3990024347    0.1627909320
 C   -1.2902357727   -0.4218783696    0.1075985875
 C   -1.0016826002   -1.7950214848   -0.5514383936
 C   -0.9346147193   -1.7624495319   -2.0081607510
 N   -0.8996454875   -1.7303287554   -3.1635469922
 C   -1.7580574597   -0.6318180135    1.5649237519
 C   -2.0849134935    0.6870897005    2.2569084721
 O   -2.8511415214   -1.5430883453    1.6128133348
 H    0.9730465915    1.8099959813   -0.7561129942
 H    0.4308714200    0.5121125726   -1.8496615137
 H   -0.7218914555    1.7593788748   -1.3102689469
 H   -2.0982894173    0.0799765063   -0.4515259178
 H   -0.0560023755   -2.1785322879   -0.1530259230
 H   -1.7954124882   -2.4860468424   -0.2515671763
 H   -0.9440209652   -1.1328883735    2.1031238264
 H   -2.9101294064    1.1986894774    1.7438575522
 H   -2.3859793434    0.5036499765    3.2915263338
 H   -1.2194199809    1.3515233795    2.2461080380
 H   -3.6479130868   -1.0646488592    1.3572813498