17

 C    0.1248335070    1.5420809172   -0.0355188302
 C    0.0312184385    0.0494703450   -0.0079540226
 C    0.0163842160   -0.8282748678   -1.0439007329
 O   -0.0806773514   -2.0938486680   -0.6081574800
 N   -0.1299917426   -2.0790616150    0.7785776922
 C   -0.0713921709   -0.8149880261    1.1308418093
 C   -0.1199807667   -0.4344791683    2.5590932919
 C   -1.2515099890   -0.9185192977    3.4089820470
 N    0.0972761352   -1.4553364916    3.5944586339
 H    1.0075722867    1.9004336833    0.5057811181
 H    0.1943130361    1.9103627337   -1.0622098612
 H   -0.7507943744    2.0099399463    0.4275459270
 H    0.0681042406   -0.7029267949   -2.1149283475
 H    0.3184197564    0.5339971088    2.7851499690
 H   -1.6174835913   -0.2939825399    4.2194551382
 H   -1.9984349993   -1.5373242965    2.9201779077
 H    0.1706449591   -2.3623748183    3.1368910002