20

 C    0.0475018860    1.6707045768   -0.0108185402
 C   -0.1177373136    0.1467125466   -0.0117781371
 C    0.6636829551   -0.5155556981   -1.1428699317
 C    2.2169330757   -0.6237164882   -1.1310039040
 N    2.1603018297   -2.0984563036   -1.4874561282
 C    1.5029286056   -2.8276332207   -0.3806959716
 C    1.6671252656   -2.6149438537    1.0844846741
 O    2.0876940633   -1.6354163155    1.6547828510
 C    0.6658831474   -2.0312849653   -1.3398605236
 H    1.0971394818    1.9538816163    0.1233336245
 H   -0.2975827046    2.1105367368   -0.9535343096
 H   -0.5243040845    2.1298963736    0.8009581303
 H    0.2026939780   -0.2531327421    0.9529466874
 H   -1.1801017622   -0.1079035201   -0.1249627480
 H    0.3528451737   -0.0643632169   -2.0925432779
 H    2.7095558944   -0.0880485223   -1.9437260524
 H    2.7188064992   -0.4210187172   -0.1871504392
 H    1.4715877762   -3.8924374383   -0.6090305577
 H    1.3624684148   -3.5138847464    1.6683507082
 H   -0.0002921416   -2.5724003916   -2.0073177640