16

 O    0.0303914970    1.5024579984    0.0632048582
 C   -0.0148238278    0.1109791687   -0.0703573913
 C    0.7451942157   -0.5407754649    1.1083361517
 O    1.2663917775    0.1396301930    1.9508536367
 C   -1.4118121331   -0.3806007623    0.0118019253
 N   -2.4916705307   -0.7851129198    0.0901326439
 C    0.6539573362   -0.3290732187   -1.3701199882
 C    0.3310715611   -1.6399086536   -2.0477277121
 C   -0.0947369874   -0.3395024550   -2.6761760910
 H    0.4318345910    1.6720779896    0.9324764408
 H    0.7909124331   -1.6443964417    1.1065219233
 H    1.6861769849    0.0063660572   -1.4009102725
 H    1.1547533208   -2.1908001898   -2.4865727837
 H   -0.4480444003   -2.2616023599   -1.6203665320
 H   -1.1509608108   -0.0958164524   -2.6555426744
 H    0.4333317230    0.0164629211   -3.5527559748