16

 C   -0.0554698040   -1.2234899762   -0.0553994536
 C    0.0040727136   -0.0221609393   -0.0184257099
 C    0.0386149194    1.4079121566    0.0360102686
 C    0.5163006887    2.1638442474    1.2697951691
 C    1.3290091691    1.4019687072    2.3164732542
 C    2.5875589167    1.0089072806    1.5716430689
 C    2.5977421002    1.4745743878    0.3210247520
 C    1.3459273569    2.2175407340    0.0050529225
 H   -0.1001115728   -2.2831103331   -0.1003071607
 H   -0.7872779490    1.8910917313   -0.4800879474
 H   -0.0887464874    3.0058052753    1.5840197529
 H    1.5501258901    2.0362728170    3.1845797894
 H    0.7929833406    0.5228764305    2.6967696796
 H    3.3554571154    0.3871242925    2.0171255036
 H    3.3824431381    1.3125442536   -0.4081240957
 H    1.3662492344    3.0832389247   -0.6478538137