17

 O    0.1336275115    1.4141908600    0.1448475353
 C    0.0529592982   -0.0062953452    0.0331838790
 C   -1.3966650289   -0.5066226558    0.0686068125
 C   -1.4690661624   -1.9987628526   -0.2759425885
 C   -0.9365853878   -2.2629695809   -1.6932945101
 C    0.3213470166   -1.4832476348   -1.9789584247
 C    0.7698345030   -0.4975760852   -1.2014379392
 H   -0.2550758096    1.7847207507   -0.6556638594
 H    0.5803126663   -0.3674276891    0.9272563997
 H   -1.8339558382   -0.2992189140    1.0500818127
 H   -1.9776641937    0.0671469044   -0.6677521414
 H   -0.8657645975   -2.5640923030    0.4462480981
 H   -2.4959920458   -2.3667378518   -0.1806764838
 H   -0.7479976987   -3.3343499850   -1.8376126284
 H   -1.7011628315   -2.0009048235   -2.4405746144
 H    0.8800684128   -1.7610924219   -2.8704335661
 H    1.6946712456    0.0232670378   -1.4389681611