15

 O    0.0066548183    0.0566041524   -0.2281400083
 C   -0.0160522952    1.2374997077   -0.0447408631
 C   -1.2749784581    2.1167494105    0.1525116885
 C   -0.7718685709    3.3374817328    0.9012598290
 C    0.7041253530    3.2464663470    1.0851094677
 C    1.1975376305    2.1970515552    0.0838299621
 N    1.2194099372    2.8914254075   -1.2315047443
 C    0.5706900283    3.9742861113   -1.0647567566
 N    0.1435447200    4.3363605143    0.2485339622
 H   -1.7311857529    2.3308579170   -0.8188809359
 H   -2.0168464616    1.5734773649    0.7442407811
 H   -1.4131911506    3.7862943735    1.6512413943
 H    1.2348321407    3.5159900950    1.9903207099
 H    2.1329784000    1.6837609002    0.2958205846
 H    0.3636599414    4.6674027307   -1.8741450112