21

 C    0.1397518508    1.5456160471    0.0854224291
 C    0.0011710819    0.0349024834    0.0028816311
 C    0.0937983624   -0.5099406584   -1.4283880702
 C    0.2532638274   -2.0414836477   -1.5449199642
 C    1.5944007327   -2.6036939403   -1.0135642777
 C    1.6437810007   -2.8460026041    0.5163112428
 C    0.8073237298   -1.8118120176    1.2326925723
 O   -0.0434306703   -2.0359450780    2.0482623146
 O    1.0818947410   -0.5486850490    0.7721501741
 H    1.1117576957    1.8634872963   -0.3043834577
 H   -0.6441883787    2.0320110969   -0.5032692991
 H    0.0558211278    1.8814901908    1.1219042680
 H   -0.9425484214   -0.2759163993    0.4678157268
 H   -0.8054344206   -0.1967413929   -1.9734016167
 H    0.9462552622   -0.0306195967   -1.9278281388
 H   -0.5875400753   -2.5470575857   -1.0503637441
 H    0.1714953839   -2.2981032083   -2.6067108616
 H    1.8053174777   -3.5565922449   -1.5097914777
 H    2.3984775744   -1.9185841199   -1.3005968953
 H    1.2541595112   -3.8302686244    0.7869599576
 H    2.6788209470   -2.7898414573    0.8718482865