15

 O   -0.0738616135    1.4044358481    0.0105160959
 C    0.0316651963   -0.0071689946    0.0017530420
 C   -1.4011028780   -0.5409951701    0.0123079080
 N   -1.4338234038   -1.9910912870    0.0048287169
 N   -1.4158925961   -2.6918441299   -1.1246036665
 C   -1.3804343935   -3.9587563323   -0.7065363753
 C   -1.3716212385   -3.9662454287    0.6943974526
 N   -1.4018191628   -2.7038802064    1.1263970851
 H    0.8127877841    1.7757167484    0.0023972571
 H    0.5481639382   -0.3787679830   -0.8956069539
 H    0.5649356954   -0.3885412238    0.8851201153
 H   -1.9195162462   -0.1994409448    0.9095040268
 H   -1.9362458362   -0.1894218611   -0.8711129469
 H   -1.3710384437   -4.7757988365   -1.4099369633
 H   -1.3534346815   -4.7907506683    1.3888590463