17

 N   -0.0238076064   -0.9740050098   -0.4930312283
 C   -0.0121177527    0.1204256886   -0.1221228359
 C    0.0258743709    1.5057415473    0.3480314118
 C    1.4001529713    2.1387100098    0.1598504035
 C    1.9149702987    2.7265363499   -1.1232291992
 C    0.8140526754    3.4555922281   -1.9046668126
 C    0.5513977685    4.3656511704   -0.6610300277
 C    1.6534524727    3.6199511396    0.1033404697
 H   -0.7490236047    2.0680345762   -0.1810778541
 H   -0.2512327419    1.5180454962    1.4089141122
 H    2.1760830204    1.6074761681    0.7056634393
 H    2.8599344678    2.4016760404   -1.5415577465
 H    1.2085125437    4.0238148587   -2.7489111412
 H   -0.0161394069    2.8413131767   -2.2685096534
 H    0.8155223938    5.4067211129   -0.8561022766
 H   -0.4521242692    4.3489159312   -0.2222642743
 H    2.3663933683    4.0861016056    0.7733438533