21

 C    0.0121963573    1.5541094796    0.0871755235
 C   -0.0058804256    0.0319809054   -0.0107508560
 C    0.5277451579   -0.4630529912   -1.3702522388
 C    0.1511362365   -1.9021481961   -1.6720340403
 O    1.1906708742   -2.8100752749   -2.0561533889
 C    0.5486859468   -3.0115678148   -0.7926695668
 C    1.3517637103   -2.7729094690    0.4738824337
 C    0.6592806782   -1.7998684396    1.4396095276
 O    0.7872252945   -0.4394577941    1.0740291948
 H    1.0287693025    1.9324779822   -0.0603647538
 H   -0.6371230870    1.9998540299   -0.6718923170
 H   -0.3303865027    1.8726873824    1.0747484202
 H   -1.0417701629   -0.3268088200    0.1213684194
 H    0.1465838016    0.1839841823   -2.1683055875
 H    1.6175212994   -0.3640590565   -1.3670402307
 H   -0.7688517174   -2.0296240453   -2.2452546239
 H   -0.1038558223   -3.8862271333   -0.7714937988
 H    1.5207802709   -3.7269541904    0.9869109519
 H    2.3341649361   -2.3685683224    0.2121090858
 H   -0.4044369561   -2.0699379582    1.5529326281
 H    1.1241833376   -1.8746163656    2.4282609678