20

 C    0.1403048644    1.5435902131   -0.0135205727
 C    0.0322040774    0.0192094951   -0.0683534372
 C   -1.4342014224   -0.5241837901   -0.0009675757
 C   -2.1924317227   -0.0938204944    1.2979250468
 C   -1.5238379448   -0.5231718542    2.6047642274
 C   -2.1957505756   -0.0673362302   -1.1707669972
 C   -2.8208721617    0.3364535692   -2.1133521812
 C   -1.3631414524   -2.0001881499   -0.0369336877
 N   -1.2865999099   -3.1531870460   -0.0348801554
 H    1.1821035657    1.8455876945   -0.1537664090
 H   -0.4558169689    2.0111286099   -0.8022910850
 H   -0.1911531638    1.9454592383    0.9484171087
 H    0.4744576026   -0.3521537118   -0.9974914413
 H    0.5979390960   -0.4349445087    0.7504987735
 H   -2.3057099941    0.9932128352    1.2599238684
 H   -3.2011382270   -0.5132373446    1.2392208434
 H   -1.3699218521   -1.6059700060    2.6369233973
 H   -0.5548563730   -0.0372104281    2.7522088764
 H   -2.1595455700   -0.2506872370    3.4520348751
 H   -3.3754821177    0.6779023757   -2.9526759746