21

 C    0.7731642887    1.3001613071    0.2765666754
 C    0.3013445056   -0.0820784562   -0.1375521472
 O   -1.0080477592   -0.2807346502    0.3892121255
 C   -1.5490881342   -1.5286004009    0.0892270710
 C   -2.9764963787   -1.7978288441    0.6387053599
 C   -3.3960112427   -2.4424962346   -0.7220673709
 C   -4.7444367791   -2.1175503072   -1.3487813734
 C   -2.1471847236   -1.7680578708   -1.3211417311
 O   -1.8626161611   -1.3829322058   -2.4197563432
 H    1.7827746328    1.4848968948   -0.1022296595
 H    0.1065802287    2.0686317241   -0.1246917580
 H    0.7876574505    1.3926106725    1.3663772789
 H    0.2828540648   -0.1809578611   -1.2305157887
 H    0.9778434683   -0.8593451719    0.2564239574
 H   -0.8567145884   -2.3484182777    0.3511259020
 H   -3.0479826845   -2.4191097397    1.5314996966
 H   -3.4920168035   -0.8489583023    0.8077214678
 H   -3.2375715864   -3.5280757845   -0.6919384080
 H   -4.9111931376   -1.0361223873   -1.3776677887
 H   -4.7885382562   -2.4883344809   -2.3771231412
 H   -5.5641417142   -2.5736371534   -0.7850353845