15

 O   -0.0723285079    1.3438642525   -0.1997752808
 C    0.0091906238    0.0087926421   -0.0495258680
 C    1.2175129517   -0.6254548129   -0.0113922616
 C    1.5052050949   -2.0064589941    0.1763892699
 C    0.6476420381   -3.0628951214    0.1800925907
 N   -0.6899210211   -3.0785609780   -0.1009243287
 C   -1.4780172403   -2.0671743871   -0.1864012819
 C   -1.3218118423   -0.6176729632    0.0705451274
 N   -2.3294581410    0.1471018466    0.2993256763
 H    0.8147905202    1.7080154588   -0.3063724844
 H    2.0903202232    0.0227546556   -0.0831395402
 H    2.5561503955   -2.2452546451    0.3171978679
 H    1.0627145066   -4.0521909556    0.3532452328
 H   -2.5089558172   -2.3076480569   -0.4690407485
 H   -3.1900993342   -0.4072339714    0.3119420091