21

 C   -0.7188545959    1.6111480679   -0.1645125099
 C   -1.0154449917    0.1376244541   -0.4274164351
 C   -0.8473099702   -0.7406712984    0.7970524163
 O   -0.5110788547   -0.3186727361    1.8807847293
 C   -1.1019192916   -2.2334150161    0.6050458778
 C   -1.8684634485   -2.9706546544    1.7164410497
 C   -2.8606610866   -3.3414706820    0.5897018778
 C   -4.3051351597   -2.9076137002    0.7230425476
 O   -2.1234922116   -2.5321948149   -0.3713013975
 H   -0.8519671563    2.2007500677   -1.0757416633
 H   -1.3833571529    2.0114269365    0.6057192105
 H    0.3059028099    1.7482018611    0.1906178058
 H   -2.0342035574   -0.0217039678   -0.8010668412
 H   -0.3708483656   -0.2704633614   -1.2193110825
 H   -0.1414719524   -2.6986510574    0.3313172030
 H   -1.3460971047   -3.7997172262    2.1934486732
 H   -2.2682513041   -2.3049867719    2.4833627830
 H   -2.8060347603   -4.3992520371    0.2997212045
 H   -4.3709156052   -1.8597555566    1.0323507726
 H   -4.8289680733   -3.0193908120   -0.2315015312
 H   -4.8188925173   -3.5234535646    1.4693505097