18

 C    0.0639720723    1.5836125321   -0.0933273151
 C    0.0934317229    0.0575815434   -0.0064469977
 C    0.7092708528   -0.6351325539   -1.2094586172
 O    2.1429637708   -0.6148332199   -1.2084708141
 C    1.4737725728   -1.8081901992   -0.7801140436
 C    1.3906894708   -1.9426203016    0.7259718359
 C    0.9025413077   -0.5379191984    1.2013985930
 C    2.0234994038    0.3067124220    1.6144787446
 N    2.8933506514    0.9699618533    1.9882829891
 H    1.0699589589    1.9856124583   -0.2372203629
 H   -0.5587660247    1.9037130299   -0.9345355402
 H   -0.3506869009    2.0258210109    0.8175262411
 H   -0.9354734388   -0.3156268112    0.0871302788
 H    0.2385746338   -0.5563859314   -2.1866551591
 H    1.6236609798   -2.6830066309   -1.4071961641
 H    0.6471834827   -2.7052080901    0.9834218011
 H    2.3388696265   -2.2281628648    1.1875459358
 H    0.2498370374   -0.6331158885    2.0740639145