19

 C   -0.1025170394    1.5498726343    0.0066089271
 C    0.0083932021    0.0402290631    0.0181434009
 C   -1.1965936563   -0.6864676796   -0.5467489907
 C    1.3682073575   -0.5982740421   -0.2306037837
 C    2.5404319721    0.1787438526   -0.4931934541
 C    3.5311196183    0.8174480342   -0.7331894536
 C    0.7301589519   -0.6343553040    1.1768675820
 C    1.2905449426    0.1080882950    2.2638666169
 C    1.7510468583    0.7169594980    3.1934988313
 H    0.7870635254    2.0252051306    0.4216844896
 H   -0.2369452085    1.9134759081   -1.0179158806
 H   -0.9678544717    1.8721190172    0.5959119111
 H   -1.3690997545   -0.3981780154   -1.5897716182
 H   -1.0670945787   -1.7729014246   -0.5158288180
 H   -2.0999257028   -0.4394154642    0.0222175177
 H    1.3438336590   -1.5560901327   -0.7438554737
 H    4.4066335760    1.3816419267   -0.9384269258
 H    0.3467582470   -1.6124773800    1.4556376273
 H    2.1639436115    1.2558997928    4.0096002046