18

 O    0.1037307822    1.4211448180   -0.1533742693
 C    0.0739471298    0.0304242238    0.1511743350
 C   -1.3421581307   -0.5190542357    0.1063917458
 C   -2.0041957686   -0.8240031711   -1.2759573288
 N   -1.0342455472   -1.9960905044   -1.4001430887
 C   -1.5640898961   -2.0606154360    0.0330328030
 C   -2.9658453133   -1.7487777651   -0.5144674205
 C   -4.3436059330   -1.7468528329   -0.0468946460
 O   -3.8699956679   -2.6612411249   -1.0734919262
 H   -0.0607390974    1.5134164820   -1.0968877652
 H    0.7269414959   -0.5479000628   -0.5102234502
 H    0.4615005796   -0.0545634576    1.1724340288
 H   -1.9914617615    0.0102010458    0.8091410839
 H   -2.2082991563   -0.1480226803   -2.1074110767
 H   -1.4775555563   -2.7365075204   -1.9513047570
 H   -1.2456423262   -2.8319852235    0.7345948362
 H   -4.6032262425   -2.2180755503    0.8995272196
 H   -5.0428626507   -0.9895359848   -0.3971118238