21

 C    0.0147524673    1.5516167909    0.0247295345
 C    0.0187963034    0.0403889050    0.0279018430
 C    0.9381147701   -0.8163237645   -0.9187524576
 C    0.5611945413   -1.9371853929    0.1066088522
 C    0.6451104959   -0.8126240776    1.1920900146
 C   -0.9617536420   -2.0017337106   -0.1048794402
 C   -1.7621695189   -3.2485716184   -0.2139984784
 O   -3.1271264643   -2.9181827215   -0.3997696641
 C   -1.3141346759   -0.7150709250   -0.1556314409
 H    1.0237806356    1.9536698046    0.1638024270
 H   -0.3735094894    1.9435056024   -0.9223768978
 H   -0.6161341160    1.9465050033    0.8293285031
 H    0.6115258858   -0.9473254004   -1.9536035166
 H    1.9936772040   -0.5250267470   -0.8755527493
 H    1.1199689121   -2.8704978450    0.1858006341
 H    1.6726498732   -0.5209149334    1.4370431277
 H    0.0489098225   -0.9402384220    2.0992765228
 H   -1.3786105158   -3.8597158487   -1.0517983255
 H   -1.6164812284   -3.8598794897    0.6957658452
 H   -3.6240869013   -3.7375655709   -0.4752020526
 H   -2.2907778793   -0.2745455385   -0.2915726209