19

 C    0.0656128103    1.4732986168   -0.1952504125
 C    0.1091189621   -0.0101589406    0.0868654654
 N    1.4315549508   -0.6534049505    0.1797776140
 C    0.5452420168   -0.6404303433    1.3658108708
 C    1.1307743966    0.1512288309    2.5191660065
 O    2.2642004522   -0.5353324410    3.0604518415
 C   -0.0789632275   -1.9636056393    1.7784759926
 O    0.8867791241   -2.8977149862    2.2287485115
 H    0.8985302371    1.9995159308    0.2749856198
 H    0.1317247478    1.6506902031   -1.2738954220
 H   -0.8728693911    1.9123093455    0.1600501131
 H   -0.6601846723   -0.5729122885   -0.4428650840
 H    1.4231656271   -1.5791695541   -0.2422347893
 H    1.4116386405    1.1630642935    2.2068789017
 H    0.4107821964    0.2362830307    3.3395001097
 H    2.8841972630   -0.6232507711    2.3243814037
 H   -0.8488703213   -1.7790341263    2.5472064703
 H   -0.5827962348   -2.4247214867    0.9205565536
 H    1.4668657123   -2.4155352438    2.8358490236