16

 C   -0.0226097230   -0.6507657135   -1.0016950064
 C    0.0642568115    0.3187455444   -0.2935757491
 C    0.1875037671    1.5200271291    0.5400440324
 N    1.4132054184    2.3027776332    0.3690169065
 C    1.7529327386    2.6795754348   -0.7950746265
 C    2.9520246515    3.5594910138   -1.1366851475
 N    2.9684609764    3.6899359758   -2.6008447886
 C    1.9587720765    3.0309165131   -3.0151200870
 N    1.1609969554    2.4436512988   -2.0370561075
 H   -0.0959244630   -1.5300172393   -1.5933674936
 H   -0.6921164986    2.1598576198    0.3648925273
 H    0.1337481135    1.2168732769    1.5913524677
 H    2.8622590769    4.5443802579   -0.6655732604
 H    3.8877377628    3.1182543968   -0.7781803880
 H    1.6852417821    2.9213237226   -4.0598155322
 H    0.4829201938    1.7147592656   -2.1987768369