19

 C   -0.0721862601    1.4792381336    0.0195839926
 C    0.0744153456   -0.0207744997   -0.0762417763
 C    0.7075772022   -0.7367751934   -1.2628553498
 C    1.9904322996   -0.0232645970   -1.7101849577
 O    2.5124047720    0.0324644832   -0.3518471423
 C    1.3806443680   -0.7256201269    0.1005742428
 C    1.4613531323   -2.1620215746    0.5560372889
 O    0.4614963591   -2.8302569473   -0.2254194569
 C    0.3531585304   -2.1836421232   -1.5105935750
 H    0.8585825436    1.9857879570   -0.2451770179
 H   -0.8676979256    1.8404375416   -0.6397712729
 H   -0.3249587622    1.7709821863    1.0440169020
 H   -0.7569810444   -0.5933963743    0.3284645575
 H    2.6257045264   -0.6509133129   -2.3459194052
 H    1.8964236017    0.9739861885   -2.1536650970
 H    2.4743837713   -2.5423194036    0.3536486365
 H    1.2128187518   -2.3496821263    1.6044259534
 H   -0.6667719743   -2.3723914848   -1.8582296825
 H    1.0556099024   -2.6237100961   -2.2359893599