16

 O   -0.1486928876    0.1398292884   -0.6544467240
 C   -0.0649850347    1.2003311952   -0.0758011321
 N    1.1086545861    1.8125758270    0.2555580928
 C    2.3975736239    1.1513141996    0.0919091056
 C    2.7051896956    0.7298097506   -1.3764630222
 O    3.7602583603    1.7068338962   -1.4870938990
 C    3.5643702762    2.1562093936   -0.1426644237
 C    2.6401901470    0.1431020329    1.1153401298
 C    2.8641008581   -0.6714777118    1.9698448050
 H   -0.9439128538    1.8064137348    0.2199056414
 H    1.0686010482    2.6043097166    0.8802553254
 H    3.0710816721   -0.2950566019   -1.4822977605
 H    1.8880640518    0.9120947195   -2.0766878329
 H    3.2636166429    3.2110246302   -0.0910954670
 H    4.4410947084    1.9891323093    0.4918097180
 H    3.0481991054   -1.4033445003    2.7174049234