19

 C   -0.0526737850    1.5300232822   -0.1189182381
 C    0.0617566933    0.0281709031    0.0268994713
 C    1.3191352380   -0.7578084649   -0.1989311284
 N    2.4766525653    0.0506997477    0.2563520265
 C    1.9840332530   -0.0744181998    1.6655782770
 C    1.9232301100    1.1680559313    2.4424074242
 N    1.8663960931    2.1271655816    3.0850485894
 C    0.6742197592   -0.7389991958    1.1873740785
 C   -0.0610629886   -1.7644951200    1.9999144377
 H    0.9010099817    2.0229056894    0.0758327854
 H   -0.3565345931    1.7843470329   -1.1399549768
 H   -0.8002252365    1.9402037570    0.5670315489
 H   -0.8100174075   -0.5176688470   -0.3327200357
 H    1.4344314615   -1.5548174712   -0.9244863515
 H    3.3535699261   -0.4468129183    0.1475898223
 H    2.5691712198   -0.7997002949    2.2429720951
 H   -0.6068109850   -1.2975907901    2.8286822587
 H   -0.7929857598   -2.2958200387    1.3838045771
 H    0.6205933846   -2.5094649845    2.4269110286