17

 C   -0.0938744008    1.5093032576    0.0204749688
 C    0.0195307491    0.0291181924   -0.0727741253
 N   -0.0993184436   -0.6886452526   -1.1112826614
 C    0.0824322185   -2.0770099760   -0.6794644567
 C    0.5110097272   -1.9770615994    0.7967267945
 O    1.8875881586   -2.2638494582    0.8968059034
 C    2.3941383971   -2.3776378508    2.1494764395
 N    3.6346870508   -2.5245019366    2.3081890973
 O    0.2688286227   -0.6092976440    1.1240810239
 H    0.8431219136    1.9367432369    0.3908852345
 H   -0.3222878619    1.9209150990   -0.9619059607
 H   -0.8814133193    1.7853702652    0.7287118494
 H   -0.8538459127   -2.6324596460   -0.7974400872
 H    0.8554999798   -2.5782922662   -1.2670246271
 H   -0.0549406688   -2.5933835481    1.5020265737
 H    1.6291734118   -2.3386658729    2.9356909396
 H    3.8503937678   -2.6182835200    3.2987065438