23

 C    1.0080708469   -2.8701754025    4.2864354617
 C    0.8794106976   -2.7126084566    2.7909594625
 N   -0.2281253906   -1.8735731177    2.3170529338
 C    1.1558051627   -1.4545956969    2.0294292819
 C    1.6082127818   -0.1201215074    2.5845151512
 C    0.5766153539    0.9851975720    2.4591391104
 C    2.6226996212   -0.0499537361    3.6824512426
 N    2.9886139657    0.3278747463    2.3227124312
 C    3.9104698866   -0.5562457973    1.6248090367
 H    0.7980486865   -1.9299299504    4.7998359603
 H    0.2922457436   -3.6176912908    4.6453832298
 H    2.0120527628   -3.2072061514    4.5663620470
 H    1.0707254505   -3.6298405398    2.2326323063
 H   -0.6618580919   -2.2669428659    1.4869995785
 H    1.4857124775   -1.6133766919    1.0021367734
 H   -0.3249722723    0.7333494074    3.0230588421
 H    0.9881209083    1.9285987652    2.8255417389
 H    0.2869381800    1.1269400932    1.4114287940
 H    2.5847260015    0.7576455690    4.4105894190
 H    3.0212147411   -0.9861729145    4.0672231323
 H    3.8062476641   -1.6227735695    1.8808274123
 H    3.7755222209   -0.4489582690    0.5430564428
 H    4.9340961314   -0.2503580355    1.8643730812