18

 C    0.0323368779    1.4939691552    0.1273035386
 C   -0.0147587556    0.0027500344   -0.0103622305
 C   -1.0028043454   -0.8923547933    0.7707577566
 C   -1.0665993201   -2.2109888190    0.0233460304
 N    0.4168876665   -2.0772696621   -0.2755670846
 C    0.4827399724   -1.0775514129    0.9036902577
 C    0.4459330800   -0.8497916132   -1.1941706995
 C   -0.3132473889   -0.8942708222   -2.4310454871
 C   -0.9377666768   -0.9058179488   -3.4591942079
 H    1.0211793867    1.8857102675   -0.1362607130
 H   -0.7040915330    1.9722734098   -0.5278842282
 H   -0.1849795945    1.8040067460    1.1546790642
 H   -1.6929268888   -0.4584999758    1.4842496498
 H   -1.2094183880   -3.0657110803    0.6894755547
 H   -1.7029685614   -2.3122933850   -0.8603606305
 H    1.1841038730   -1.1189055800    1.7247789829
 H    1.5000762749   -0.6489433895   -1.4150925050
 H   -1.4878333791   -0.9224347007   -4.3675899686