15

 C   -0.3405075895    1.4312478958    0.4352657860
 N   -0.2627608204   -0.0074947967    0.6073943648
 C    0.9164810009   -0.6696773341    0.6402415744
 O    2.0233104936   -0.1773979197    0.5602378566
 C    0.7546591749   -2.1765267006    0.8368217730
 C    0.1621330460   -2.6830205989    2.0971244672
 O   -0.5788866784   -2.6985062353    0.8795788084
 C    1.7296590162   -2.9950283207    0.1435304280
 N    2.4875335569   -3.6671483304   -0.4105731042
 H    0.6777062696    1.8213661798    0.4543181487
 H   -0.8035667724    1.6911240366   -0.5225119752
 H   -0.9190470708    1.8905946227    1.2429835075
 H   -1.1015361651   -0.5677957943    0.5935225041
 H    0.4693183277   -3.6573010144    2.4687916311
 H   -0.1637681594   -1.9575344197    2.8391190598