21

 O   -0.2738551491    1.4256568040    0.3311944815
 C   -0.0731653477    0.0385735229    0.1114846665
 C   -1.4413378153   -0.6291807429    0.0638729403
 C   -1.3606186203   -2.1409992715   -0.1661564998
 C   -2.7399029035   -2.8075371752   -0.2177199134
 C   -2.6479988624   -4.3113638157   -0.4467509581
 O   -3.9548338699   -4.8863933063   -0.5857649646
 C   -4.4404548708   -5.6108418171    0.4375248760
 O   -5.5312544072   -6.0963360570    0.4296761488
 H    0.5860260105    1.8549346501    0.3589382285
 H    0.4622919324   -0.1431021087   -0.8352874257
 H    0.5319697442   -0.4103735868    0.9168126192
 H   -1.9634151616   -0.4177538071    1.0049348551
 H   -2.0305257567   -0.1576323116   -0.7318616570
 H   -0.8247432288   -2.3418101583   -1.1042314803
 H   -0.7605879744   -2.6017674865    0.6310848281
 H   -3.2823041693   -2.6212042246    0.7178052983
 H   -3.3425055846   -2.3677187279   -1.0208319890
 H   -2.1152914148   -4.5360588803   -1.3760319086
 H   -2.1101229249   -4.8028679131    0.3753622544
 H   -3.7178556559   -5.7101903064    1.2726701497