14

 C   -0.2244183201    1.2911768839   -0.0289937302
 O   -0.0599459717   -0.1139573391   -0.0459198583
 C    0.5758207172   -0.6348868572    1.0444786702
 C    0.8146749346   -1.9891545283    1.1795437577
 O    0.5280068305   -3.0412829954    0.3829341254
 N    1.4526863800   -2.1509005352    2.3588518373
 N    1.6512250580   -0.9825633893    3.0150503855
 C    1.1171379055   -0.0590129636    2.2143794791
 H    0.7449585496    1.8064483116    0.0067148069
 H   -0.7407999910    1.5584217129   -0.9525197208
 H   -0.8284805558    1.6123641518    0.8303293631
 H    0.0768988720   -2.6951607319   -0.3963463425
 H    1.7700214599   -3.0158242490    2.7613688966
 H    1.1411838113    0.9796860288    2.5064531801