18

 C    0.3857318617   -0.2090221987    1.2899998988
 C    0.1526136869    0.5273498265    0.3678631876
 C   -0.0816029552    1.4256326940   -0.7711416439
 N    1.0174067631    2.3394075150   -1.0898307509
 C    1.2611319291    3.3585583223   -0.1071213298
 C    2.1168779321    3.2077646357    1.2098121044
 C    3.4079903936    3.1273991692    0.3633354506
 C    2.5153031808    4.2660704016   -0.1926401744
 O    2.2454827592    4.6823394912    1.2000646428
 H    0.5802038888   -0.8607136945    2.1058273597
 H   -0.2978770451    0.8257484987   -1.6629095189
 H   -0.9782206621    2.0288952815   -0.5833166693
 H    1.8549722862    1.8079566606   -1.2983008334
 H    0.3470662507    3.9299912248    0.0741896848
 H    1.8768652000    2.7308610035    2.1588958842
 H    4.3108091469    3.4653628097    0.8732535861
 H    3.5894223621    2.2393044941   -0.2485011730
 H    2.7558100613    5.0464221648   -0.9157355153