22

 C   -0.0803219541    1.4173520836   -0.0032400952
 N    0.0128912037   -0.0362319726    0.0201330953
 C    1.3734745726   -0.5595943543   -0.2018896843
 C    0.7777387666   -0.5778111909    1.1578966862
 C    0.6460854026   -2.0993753728    1.4110617312
 C    0.0679963910   -2.5566054178    2.7309539124
 C    2.0646123954   -2.5514124758    0.8910533383
 C    1.4802408193   -2.0710021144   -0.4823420743
 C    0.1230795464   -2.6189287295    0.0372825266
 H    0.8136385523    1.9286358382    0.3949844745
 H   -0.2322051788    1.7522001737   -1.0344347350
 H   -0.9447410210    1.7330305114    0.5898021656
 H    2.1615648070    0.1276434605   -0.4930771654
 H    1.0880992135    0.0923161670    1.9543985240
 H   -0.9702393977   -2.2235402613    2.8409910696
 H    0.0796446739   -3.6483345608    2.8151911622
 H    0.6366957063   -2.1517519255    3.5767431176
 H    2.9421666457   -2.0273401948    1.2839683812
 H    2.2119731939   -3.6338978751    0.9435672247
 H    1.9040542723   -2.3869511167   -1.4353738077
 H    0.0981454052   -3.7108489432    0.0140461095
 H   -0.7953147764   -2.1923255591   -0.3608189271