17

 C    0.0233363218    1.5576245653    0.1171598427
 C   -0.0568145404    0.0271330250   -0.0213368790
 C    0.6482912205   -0.4935958282   -1.2373641391
 C    0.1080525277   -0.9089367364   -2.4345672983
 N    1.1473644627   -1.2704759003   -3.2305659197
 N    2.3431282062   -1.1267027992   -2.6468404190
 C    2.0539820031   -0.6509575530   -1.4269804189
 C    3.0699586287   -0.3666123942   -0.4797544819
 C    3.8949912286   -0.1122415188    0.3594432898
 H    1.0648491447    1.8856782543    0.1788707399
 H   -0.4354753245    2.0538813154   -0.7438090901
 H   -0.4940938263    1.8935857767    1.0213627301
 H    0.3810435080   -0.4338906442    0.8716825102
 H   -1.1068275459   -0.2849415415   -0.0491806431
 H   -0.9152236544   -0.9767908908   -2.7696501352
 H    1.1093132393   -1.6274485507   -4.1703203230
 H    4.6355981001    0.1067206603    1.0880299546