15

 C    0.0287143266    1.4185479965    0.0095045177
 O    1.3223711787    1.9379394919   -0.0097733885
 C    2.0583846920    1.6479569686    1.1868943152
 C    1.8528088978    0.2017842249    1.5114474155
 N    2.5373241187   -0.5562781202    2.3618780529
 N    1.9665981448   -1.7694012483    2.2475577239
 C    0.9362469659   -1.8162780478    1.3550077168
 C    0.8419636114   -0.5337215062    0.8607917245
 O   -0.0046857656   -0.0085349653   -0.0642075820
 H   -0.5052195821    1.7305104706    0.9231025672
 H   -0.4821764176    1.7786999382   -0.8836969752
 H    3.1032605852    1.8797938805    0.9659690052
 H    1.7288895195    2.3081743572    2.0041635852
 H    2.3263387820   -2.5273957194    2.8006912470
 H    0.3851978425   -2.7179961112    1.1483904848