12

 N    0.0511413477    1.2588863168    0.1615386576
 C   -0.0402132451   -0.0867763532    0.0429775142
 N   -1.1375106759   -0.7971573760   -0.0515627455
 C   -0.6805985628   -2.0887596828   -0.0813966313
 O   -1.5100202582   -3.1261005594   -0.1743464199
 C    0.6859029906   -2.1281128535   -0.0088711914
 O    1.0990069487   -0.7840309513    0.0731722455
 C    1.6428887108   -3.1437355350   -0.0072271484
 N    2.4317450624   -3.9959013092   -0.0075913809
 H    0.9393234621    1.6802002135   -0.0581157988
 H   -0.7707171783    1.7788366951   -0.0993539793
 H   -2.4090416019   -2.7742205250   -0.2020794517