14

 O    0.2595047710    0.9956401791   -0.7616239089
 C   -0.0657163709    0.1650967697    0.3203648889
 C   -1.4155947476   -0.4507425891    0.1379887254
 N   -2.1546726908   -0.3680666271   -0.9139612900
 C   -3.2902364006   -1.1205499767   -0.6085019497
 C   -4.4280046218   -1.3204027447   -1.5122203862
 O   -4.5183228009   -0.8618855272   -2.6241896203
 C   -3.1461801274   -1.6198150127    0.6501088647
 O   -1.9514964029   -1.2010946329    1.1425220884
 H   -0.3804608956    0.8189569256   -1.4643846650
 H    0.6747134679   -0.6427419338    0.4467181456
 H   -0.0553050540    0.7464261953    1.2533116067
 H   -5.2317032427   -1.9533472635   -1.0739842394
 H   -3.7495595437   -2.2374938721    1.2939847098