14

 O    0.3475077322    0.9133526587   -0.7739084093
 C   -0.0356334746    0.1217218551    0.3373885394
 C   -1.3850220850   -0.4339530094    0.2220029211
 C   -2.5055982833   -0.8602948966    0.1096479098
 C   -3.8462138897   -1.3655770275   -0.0152959239
 C   -4.3542177337   -1.8700526198   -1.3205403050
 O   -4.0035446394   -2.7698961374   -0.2849320156
 C   -4.8147001554   -0.8229422231    0.9258700830
 N   -5.5801102128   -0.3756680895    1.6664549982
 H   -0.2828126037    1.6374218228   -0.8512097690
 H    0.6916102757   -0.6956628839    0.3913523519
 H    0.0410676756    0.6784411421    1.2841907498
 H   -5.4171906386   -1.7821619619   -1.5361975427
 H   -3.6772144274   -1.8359926796   -2.1713081678