18

 C   -0.3957601281    1.4778498063   -0.0035883660
 O   -0.0798049112    0.1142374723   -0.2094271925
 C   -1.1840243676   -0.7675142587   -0.0536830258
 C   -0.7016244160   -2.1428966206   -0.5403244496
 N   -0.2329731867   -2.0723565627   -1.9076454996
 C   -0.8024614637   -2.7713836182   -2.9259880021
 O   -1.7091874800   -3.5683716326   -2.8100353111
 C   -1.6606393232   -0.8334520730    1.3314297294
 C   -2.0409905406   -0.9053497055    2.4692465354
 H    0.5211866963    2.0453511607   -0.1762862843
 H   -1.1691506383    1.8216430651   -0.7070137385
 H   -0.7460826509    1.6604034619    1.0204170626
 H   -2.0113261687   -0.4356191310   -0.7029417326
 H    0.0974478171   -2.4845282815    0.1267263124
 H   -1.5185023986   -2.8649019765   -0.5088685776
 H    0.4688080416   -1.3801130926   -2.1172223282
 H   -0.3272297084   -2.5340782285   -3.8984051898
 H   -2.3850287329   -0.9665185449    3.4725391280