14

 C   -0.0365768486    1.3752506133   -0.0216297571
 O    0.0317732400   -0.0564605695    0.0476910086
 C    0.6543141098   -0.5764288840    1.0908463926
 N    1.1753090857    0.1789613830    2.0026814102
 C    1.8078738959   -0.4148546504    3.0598431265
 N    2.3560318208    0.1982066751    4.0135668664
 O    1.8346835906   -1.8572241934    3.0577680906
 C    1.2536229703   -2.4945257343    2.0474706948
 N    0.6558869085   -1.9643665838    1.0474085457
 H    0.9669699732    1.8052994163   -0.0526581568
 H   -0.5804811936    1.5910054957   -0.9407533209
 H   -0.5644917521    1.7757218963    0.8466665956
 H    2.7606747696   -0.4557177069    4.6808661085
 H    1.3322927199   -3.5747589473    2.1456118852