18

 C    0.1149252932    0.8572077660    0.5019371295
 O   -0.2883376331    0.0644518144   -0.6046726180
 C   -1.4416608601   -0.6541422303   -0.3712687206
 C   -1.6053872333   -2.0032067719   -0.9611965704
 C   -0.3004777369   -2.8071766000   -0.8682292337
 N   -0.1378541057   -2.4738016278    0.5839751297
 C   -1.4514189860   -1.8313913007    0.5925893669
 C   -2.4391652240   -2.0551129480    1.6428374123
 O   -2.2506968629   -2.7870713171    2.5904114407
 H    1.0181910602    1.3882213127    0.1953443386
 H   -0.6572428449    1.5924862929    0.7716468133
 H    0.3384968921    0.2281541938    1.3716090869
 H   -2.3607891354   -0.0622737658   -0.3343948598
 H   -2.4804731293   -2.2848967245   -1.5334055879
 H   -0.4741099127   -3.8722045983   -1.0436628581
 H    0.5259338458   -2.4584539337   -1.4931950411
 H   -0.1671524111   -3.3013194082    1.1717994903
 H   -3.3967743560   -1.5043910035    1.5085321013