17

 C   -0.4554608196    1.3656985895   -0.0103613499
 C    0.0469728910   -0.0723126080   -0.0042645320
 C    1.3360487079   -0.3864412237   -0.7957998774
 O    1.7282108320   -0.0567040815   -1.8771929884
 C    1.9471937038   -1.1764125094    0.3747487453
 C    0.7737465523   -0.6641901709    1.2269203453
 C    0.8164680140   -0.0974107976    2.5908179273
 N    0.1877525597   -1.4120339947    2.3305393291
 H    0.3240557770    2.0574652760    0.3226759030
 H   -0.7529414560    1.6559105777   -1.0222155987
 H   -1.3236635939    1.4895998170    0.6455481458
 H   -0.7459151523   -0.7563857467   -0.3408480485
 H    1.9269349643   -2.2595556486    0.2124349562
 H    2.9587242835   -0.8825283981    0.6674842661
 H    1.7355029257   -0.1390088059    3.1697613375
 H    0.1764893306    0.7515710598    2.8180282192
 H   -0.8255010899   -1.3146155349    2.3243527499