21

 C   -0.0381889924    1.4393109781   -0.1978030580
 O    1.2925973668    1.6076741438    0.3288864588
 C    1.4295389003    0.1938743381    0.5721194118
 C    0.0062281941   -0.0912437502    0.0329515343
 C   -0.9903830414   -0.6708202318    0.9954833900
 C   -1.3324403122   -0.1791950030    2.4414079412
 C   -2.2457686341   -1.4108915547    2.1919939926
 C   -2.5301388248   -0.8315905749    0.7782438526
 C   -1.0082485780   -2.1218390362    1.5769874688
 H   -0.7864568390    1.9803506749    0.3954934417
 H   -0.1106702489    1.7635404942   -1.2432583615
 H    2.2552384091   -0.2440393628   -0.0021684611
 H    1.5795530794   -0.0273285382    1.6366366935
 H    0.0019657767   -0.6700775340   -0.8952860005
 H   -0.5511432985   -0.2934539321    3.1983303176
 H   -1.8302668047    0.7909860629    2.5270183256
 H   -2.9712245634   -1.8378936349    2.8844848468
 H   -3.1181215839    0.0899961666    0.7331069926
 H   -2.8423108353   -1.5425969644    0.0073959564
 H   -1.2061313443   -2.9297460022    0.8661324664
 H   -0.1991880355   -2.3846255093    2.2650617105