17

 O   -0.0900590701    1.4488259124    0.0105335187
 C    0.0398352390    0.0386001948    0.0017897419
 C   -1.3842314116   -0.5334520874    0.0124499016
 C   -1.4053409638   -1.9863574832    0.0049617523
 C   -1.4084077531   -3.1970921409   -0.0014591823
 C   -1.4141802641   -4.5567339462   -0.0085567104
 C   -1.4245390293   -5.7666714432   -0.0150862860
 C   -1.3966081817   -7.2212909005   -0.0234885738
 O   -2.7252234897   -7.7279500256   -0.0131900522
 H    0.7907444657    1.8342085065    0.0040682453
 H    0.5701432208   -0.3187612944   -0.8931947156
 H    0.5872253658   -0.3282011955    0.8825582869
 H   -1.9046309459   -0.1487695941    0.8984893565
 H   -1.9215313240   -0.1394560089   -0.8592967460
 H   -0.8450788560   -7.5618708389   -0.9157493633
 H   -0.8276139225   -7.5717190365    0.8538547248
 H   -2.6648892096   -8.6888783983   -0.0179197884