15

 O    0.1425264387    1.3612579823   -0.2576452120
 C    0.0407710293   -0.0202034889   -0.0815589245
 C   -1.3936753847   -0.4680378675    0.0263581990
 N   -2.3461267425    0.3728640383   -0.0429781898
 C   -3.6905780081   -0.0659897588    0.0612108964
 N   -4.6908816970    0.7232529312   -0.0001396381
 C   -3.8590678850   -1.5055273441    0.2460719571
 C   -2.7870307430   -2.2963145258    0.3047803638
 O   -1.5087639380   -1.8084715691    0.1971460209
 H   -0.7672621635    1.6966815920   -0.2655881783
 H    0.5038487813   -0.5654307956   -0.9194006670
 H    0.5670402461   -0.3476471263    0.8292910131
 H   -4.3564269283    1.6803023636   -0.1314273227
 H   -4.8572429257   -1.9127937400    0.3334107990
 H   -2.7866253495   -3.3694815014    0.4380133532