15

 C   -0.3764937080    1.3646839485   -0.0343451617
 N    0.0669277114   -0.0210741213   -0.0151738563
 N    0.2811391633   -0.5999117709   -1.2296775678
 C    0.6716812883   -1.8193279652   -1.2447668745
 N    0.8870314293   -2.5757203298   -0.1068232192
 C    0.6980785696   -2.0823204665    1.1648031385
 O    0.8837008010   -2.7393756714    2.1653991155
 C    0.2380140157   -0.6469251315    1.2084339330
 N    0.0135118810   -0.0266260205    2.3016892649
 H    0.3360819994    1.9968563218    0.5033867991
 H   -0.4502214509    1.6690672093   -1.0767256140
 H   -1.3452040495    1.4582185802    0.4650682939
 H    0.8486562837   -2.3002070871   -2.1975189698
 H    1.1947671560   -3.5361086131   -0.1784119270
 H    0.2005227496   -0.6692674323    3.0728586854