17

 C   -0.0205208379    1.3739852994   -0.0382131469
 N    0.0207659699   -0.0711977482   -0.0186838237
 C   -1.1096360956   -0.8892061744   -0.4227682869
 C   -0.7010605142   -2.3076609183    0.0199037141
 C    0.8442846005   -2.2700574335   -0.0038295414
 C    1.3991324311   -2.7152188446   -1.2802498112
 N    1.8075870811   -3.0676175174   -2.3025572695
 C    1.1722530485   -0.7636940721    0.2158774132
 O    2.2476882794   -0.3085751607    0.5279904030
 H    0.9581560034    1.7387674576    0.2768767903
 H   -0.2381035194    1.7485578927   -1.0461470345
 H   -0.7887951350    1.7517656680    0.6459948131
 H   -2.0276419667   -0.5527287110    0.0708051434
 H   -1.2738096734   -0.8285626950   -1.5082597102
 H   -1.0316797829   -2.4868765819    1.0458860225
 H   -1.1219018939   -3.0847426660   -0.6181511776
 H    1.3024578650   -2.8529751046    0.7983220122