14

 N   -0.0977173580    1.5096890632    0.1096915430
 C   -0.0474255132    0.1087769200   -0.0420087640
 C   -1.1337633183   -0.9421831015   -0.1138171995
 O   -0.3801887789   -1.7258236238   -1.0672196603
 C    0.6133860751   -0.7474776077   -1.1154085910
 O    1.5413700325   -0.6889158440   -1.8503784134
 C   -0.3619006587   -0.8190239790    1.1640975595
 C    0.5311973968   -1.8243316701    1.6616117227
 C    1.2810735535   -2.6586866203    2.0921595750
 H    0.7351788607    1.8626585846    0.5697523917
 H   -0.1828122273    1.9795008563   -0.7857992556
 H   -2.2036882616   -0.8748381130   -0.2485884314
 H   -0.8931184748   -0.2435950540    1.9205563730
 H    1.9434683921   -3.4017795209    2.4622876105