19

 C    0.0417229277    0.9234219610    0.5734268372
 O   -0.2296329769    0.0171356806   -0.4840123573
 C   -1.4048580762   -0.6841644133   -0.2833993727
 C   -1.6122662069   -2.0267646786   -0.8973236561
 O   -0.4022257787   -2.7609856463   -1.0115439447
 C   -0.2161348066   -2.7184024001    0.4276584774
 C   -1.4901066302   -1.8952899433    0.6268440253
 C   -2.4493634541   -2.0323157678    1.7610159770
 O   -1.8801021260   -1.3720083044    2.8897980456
 H    1.0407238479    1.3293551190    0.3997854884
 H   -0.6829540522    1.7517313410    0.5852707816
 H    0.0067867725    0.4215580484    1.5494213305
 H   -2.3116431212   -0.0722246373   -0.2502150493
 H   -2.4305029301   -2.2947611298   -1.5583555744
 H   -0.2833261851   -3.7265623275    0.8521581206
 H    0.7326701237   -2.2512285065    0.7080192275
 H   -3.4179397851   -1.5862120585    1.4833131226
 H   -2.6303546387   -3.0968676210    1.9804466690
 H   -2.4524739938   -1.5243840356    3.6483332519