24

 C    0.5144794193    1.6810586839    0.1199918347
 C   -0.1154680850    0.3001836272   -0.0491722212
 N    0.4817910121   -0.3853277313   -1.1912463424
 C    1.6373176971   -1.2396838685   -0.9435245799
 C    0.3292178747   -1.8339696493   -1.3510212061
 C   -0.4668002881   -2.7079705150   -0.4180708407
 C   -1.9910256412   -2.8997555510   -0.6813356723
 C   -1.8297707144   -4.3985566212   -0.3132410475
 C   -0.3040220946   -4.2513929017   -0.5581832203
 H    1.5858396911    1.5970431282    0.3303537773
 H    0.3963438530    2.2710127909   -0.7931279851
 H    0.0478718773    2.2209876239    0.9499400212
 H   -0.0138997099   -0.2627513615    0.8938676778
 H   -1.1897051518    0.4020321439   -0.2457807635
 H    2.4618920050   -1.1566821326   -1.6472859707
 H    1.9415252599   -1.3933499496    0.0926914083
 H    0.2163104307   -2.1216074365   -2.3980909035
 H   -0.3022044585   -2.4179238619    0.6235052789
 H   -2.6892623121   -2.2955380707   -0.0967447539
 H   -2.2239272537   -2.7685681564   -1.7432600798
 H   -2.0541017991   -4.5837707608    0.7413692725
 H   -2.3725455332   -5.1313141934   -0.9147541982
 H   -0.0337124381   -4.5258821727   -1.5834582237
 H    0.3829015595   -4.7543613339    0.1267979380