18

 C    0.0179492661    1.5679377539   -0.1136731228
 C    0.0457362365    0.1155858897   -0.0245218394
 C    0.0671875636   -1.0868015452    0.0406801055
 C    0.0670053242   -2.5293565319    0.1235441137
 C    0.1725928009   -3.1855531291    1.5435110792
 N   -1.1215854213   -3.8139767874    1.2856502991
 C   -1.9386751748   -4.7007175135    2.0712229497
 C   -1.3234082005   -3.2559482496    0.0516205934
 O   -2.2239068720   -3.3339322203   -0.7387251925
 H    0.7551715430    1.9369217342   -0.8351955782
 H   -0.9670996329    1.9259617539   -0.4326822759
 H    0.2411862407    2.0303896716    0.8542105865
 H    0.7698101358   -2.9725919655   -0.5892772274
 H    0.9992492390   -3.8934410380    1.6704235711
 H    0.1656817233   -2.4685324735    2.3703574256
 H   -2.2311675672   -4.2409028854    3.0231840995
 H   -2.8400927006   -4.9182723546    1.4934432736
 H   -1.4191165638   -5.6426934494    2.2855711893