17

 C   -0.1401556111    1.5201803491    0.2151614423
 C    0.1240758301    0.0517520034    0.0756236338
 C   -0.6694311110   -1.0065404782    0.7870211486
 C    0.8104098987   -0.8463676474    1.1145136272
 O    1.7317336105   -1.6377009409    0.4142966097
 C    1.3986466633   -1.5282068914   -0.9606894020
 O    0.7289851961   -0.2970794878   -1.1447338139
 C    1.2788122066   -0.3451875513    2.4174154517
 O    0.5742642123    0.2522496396    3.1993486994
 H    0.7477483737    2.0942722514   -0.0637352996
 H   -0.9667391282    1.8238403663   -0.4350235622
 H   -0.4049238916    1.7538827700    1.2486857735
 H   -1.3342667548   -0.6582797859    1.5703410553
 H   -0.9835625935   -1.9046949483    0.2675932867
 H    2.3138718402   -1.5342880053   -1.5596804573
 H    0.7502403550   -2.3677381352   -1.2571620343
 H    2.3532763638   -0.5422996183    2.6151544513