17

 C   -0.2107606995    1.4985510450    0.0134403795
 C    0.0637796329   -0.0064281259    0.0107128439
 C    0.8408038821   -0.4160233783   -1.2309112749
 O    1.1727855762   -1.8221842168   -1.2057631850
 C    1.6561380626   -2.3102109876   -0.0584870834
 O    2.0950443322   -3.4298984178    0.0153359888
 C    1.5443541441   -1.4027371451    1.1570522144
 N    2.3240442805   -1.8270256866    2.1924359013
 N    0.7822442931   -0.3780272863    1.2271463893
 H    0.7277421461    2.0621912797    0.0060814624
 H   -0.8049345098    1.7956322116   -0.8568087174
 H   -0.7568882161    1.7704246693    0.9195589203
 H   -0.9037106154   -0.5331679693    0.0043704253
 H    0.2680801036   -0.2740982496   -2.1496184467
 H    1.7721882733    0.1604184731   -1.3031306768
 H    2.6272148866   -2.7876728619    2.1445011865
 H    2.1225976476   -1.4388135037    3.1000750425