20

 O   -0.1032065220    1.4642870778   -0.0072063105
 C    0.0312193841    0.0521748696   -0.0411570521
 C   -1.3646533781   -0.5504439704    0.0831004107
 C   -1.3603145061   -2.0589619255    0.0698697531
 C   -0.7144030744   -3.0645199860    1.0252596218
 N   -1.3811313385   -4.0197310398    0.0439378527
 C   -2.5746188069   -3.0346396772   -0.0823871351
 C   -2.5033634276   -3.0761976632   -1.6111474590
 C   -1.0550693239   -3.0425294107   -1.1158270994
 H    0.7735632504    1.8527983746   -0.0782203204
 H    0.4972290345   -0.2830379940   -0.9820150145
 H    0.6674574832   -0.3082636967    0.7832292001
 H   -1.8191319017   -0.1885511743    1.0138752788
 H   -1.9843750954   -0.1681843670   -0.7375252193
 H    0.3783210366   -3.1471385911    1.0376755801
 H   -1.1126435650   -3.1375479546    2.0437569626
 H   -3.4350594543   -3.1282692083    0.5838738502
 H   -2.8278997441   -4.0084693303   -2.0804841126
 H   -2.8682775496   -2.2006845655   -2.1532138721
 H   -0.1211804612   -3.1480872274   -1.6723635450