22

 C    0.2007126121    1.0882879376   -1.3025071645
 C    1.0446715965   -0.1212493823   -0.8787327982
 C    2.5477635100    0.0988490456   -1.1936600824
 C    2.8171520913    0.2891944222   -2.6170662602
 N    3.0102520667    0.4306820076   -3.7479511085
 C    0.8773318116   -0.4184182101    0.6003575798
 C   -0.3085271148   -1.2039159850    1.1069679947
 C    1.0791222765   -1.7895521548    1.2142699480
 C    1.4685108766   -3.0162748984    0.4166398614
 H    0.4964266497    1.9855770811   -0.7460416763
 H    0.3153846608    1.3005403384   -2.3694242971
 H   -0.8583034291    0.9054578057   -1.1005887310
 H    0.7128793742   -0.9883682463   -1.4606469034
 H    2.9153751994    0.9775635820   -0.6492472816
 H    3.1328273246   -0.7572993355   -0.8421531176
 H    1.1857763599    0.4135702088    1.2322078003
 H   -0.8168415503   -0.8696254105    2.0046508649
 H   -0.9691656795   -1.6380533464    0.3615491121
 H    1.5104692178   -1.7707929389    2.2121717549
 H    1.0080476466   -3.0272892709   -0.5752728695
 H    2.5540194126   -3.0858591276    0.2821761754
 H    1.1445689868   -3.9264608423    0.9329706789