18

 O   -0.2480373314    0.1143391547    0.0998644541
 C   -0.0363894872    1.2966519879    0.0168954319
 C    1.3261457240    1.9304643678   -0.1244030033
 C    1.4168099433    2.8270895688   -1.3717473376
 C    2.7128958718    3.6206661922   -1.4013903264
 C    2.8180947762    4.8060162987   -2.3873855366
 C    3.0298759147    5.6562386396   -1.1191725955
 O    2.8313137570    4.5101125160   -0.2631983104
 H   -0.8782807546    2.0299180483    0.0354971649
 H    1.4975685821    2.5644963964    0.7565846855
 H    2.0831486328    1.1408885122   -0.1362045424
 H    1.3483943236    2.2201505086   -2.2836729535
 H    0.5733798064    3.5295245812   -1.3850415348
 H    3.5713866263    2.9344799698   -1.4403135877
 H    3.6521799825    4.7730290078   -3.0892122852
 H    1.8961922174    5.0166553330   -2.9337416709
 H    4.0357642066    6.0785547956   -1.0038496895
 H    2.2920862486    6.4437604115   -0.9273682924