22

 C    0.4940299660    0.4552189419    1.4920825701
 C    0.2567201611   -0.0580154664    0.0725600828
 N   -1.0543069224   -0.6989258155   -0.0060573657
 C   -1.4638051444   -1.5508029701   -1.1113161011
 C   -0.4292366483   -2.1542973814   -2.0535646463
 C    0.4754981177   -3.0931368223   -1.2151318941
 O    1.8175328085   -2.6168632966   -1.2991632951
 C   -0.1006717262   -3.0958985047    0.2330833513
 C   -1.2666638861   -2.1143903085    0.2642268810
 H    1.4445087104    0.9946697479    1.5546314497
 H   -0.3122333111    1.1272493268    1.7997813420
 H    0.5295160431   -0.3730600008    2.2081984958
 H    0.2352399584    0.7890295509   -0.6241867292
 H    1.0898679857   -0.7016986267   -0.2372559909
 H   -2.4477991930   -1.3307965990   -1.5201058245
 H   -0.9441964328   -2.7119442860   -2.8420249174
 H    0.1928000555   -1.4022002309   -2.5492051844
 H    0.4400588642   -4.1116015270   -1.6259845861
 H    2.3725093721   -3.1994311266   -0.7709451370
 H   -0.4679127091   -4.0916067060    0.5045985220
 H    0.6868474175   -2.8413191777    0.9527983322
 H   -2.0946007167   -2.3371779411    0.9337711849