21

 C    0.2691593518    1.6260621857    0.0480088031
 O    1.5428635861    1.3473296926    0.6797223124
 C    1.2562097597   -0.0671069228    0.7292182040
 C   -0.0512560361    0.1310521981   -0.0872430052
 C    0.5941734562   -0.6548763246   -1.2812416717
 C    1.0517360649    0.0368310209   -2.5815331536
 C    2.5483170745   -0.3317876200   -2.6907937428
 C    3.0596191868   -0.3088255189   -1.2340664957
 C    1.8883364942   -0.8932834723   -0.4274926637
 H   -0.4019008244    2.1575094731    0.7357936636
 H    0.3777705521    2.2228257268   -0.8647898251
 H    1.3157287850   -0.4633159493    1.7470188399
 H   -1.0353964895   -0.2003466272    0.2415825451
 H    0.0338188712   -1.5678531077   -1.4956442831
 H    0.4749415227   -0.2794145020   -3.4553598646
 H    0.9483517002    1.1246637500   -2.5125380036
 H    2.6483394046   -1.3437781426   -3.1028483401
 H    3.1047816896    0.3411577793   -3.3506242337
 H    3.9924066248   -0.8644196716   -1.1055312595
 H    3.2372628145    0.7230012526   -0.9151218808
 H    2.0501063910   -1.9366966502   -0.1433002351