16

 C   -0.1074316672    1.4947345966   -0.0622717763
 C    0.0455483565   -0.0066053202    0.1011201884
 O    0.0671784259   -0.5414302604    1.1816366477
 C    0.1813469928   -0.7980633802   -1.2087571579
 C    0.0899846614   -2.2729928443   -1.0203211745
 N    1.1603258323   -3.0504194308   -0.9534981547
 N    0.6124544956   -4.2716176646   -0.7494631912
 C   -0.7310295360   -4.1803298296   -0.7079514207
 N   -1.1013729636   -2.9282008030   -0.8793896146
 H    0.6710915777    1.8989901612   -0.7184205972
 H   -1.0706829609    1.7180743750   -0.5358729049
 H   -0.0633484102    1.9802188520    0.9131564199
 H   -0.5891000071   -0.4564069855   -1.9086978844
 H    1.1504922653   -0.5396395383   -1.6511978395
 H    1.2061591835   -5.0789820072   -0.6556855436
 H   -1.3790859263   -5.0307843507   -0.5584079766