17

 C    0.2862995380    1.6392713904    0.2481610377
 C   -0.0375750077    0.1641376445    0.2530694213
 O    0.5010873583   -0.5575480373   -0.9020638723
 C    1.1592978300   -1.5222703474   -0.0736496942
 C    2.5800569293   -1.1254940932    0.3581492307
 O    2.0721837053   -0.3738231054    1.4946718042
 C    0.7269389131   -0.7680224341    1.2206827508
 C    0.8410542357   -2.9469077161   -0.4128614262
 O    1.4784943049   -3.8861559912   -0.0066552661
 H    1.3642778205    1.7973110081    0.3215930520
 H   -0.0825932520    2.0994400471   -0.6731515668
 H   -0.1978111018    2.1350741477    1.0961490138
 H   -1.1218335066   -0.0061669882    0.3068155545
 H    3.1847733287   -1.9774450388    0.6845182850
 H    3.1241323338   -0.5004820146   -0.3556293128
 H    0.2121361563   -1.1841714410    2.0883274911
 H   -0.0502461159   -3.0656019305   -1.0661399325