14

 N   -0.0704413039    1.2857389714    0.0081908212
 C   -0.0330199169    0.0269070423    0.0024898330
 O   -1.1883302432   -0.6744453238    0.0084030511
 C   -1.0628863503   -2.0921342363    0.0008414772
 C   -2.4455429267   -2.6484023914    0.0100205003
 C   -3.6536113985   -2.0296621841    0.0221264736
 O   -4.6062319217   -2.9597056675    0.0262572474
 N   -3.9407278187   -4.2192014089    0.0162233251
 N   -2.7011641523   -4.0001204978    0.0071269608
 H    0.8734171283    1.6661032088    0.0027203276
 H    0.8645930251   -0.6063029811   -0.0069949476
 H   -0.5197072236   -2.4311607429   -0.8921712491
 H   -0.5046954354   -2.4393950408    0.8813393762
 H   -3.9524144021   -0.9956228880    0.0284393931