21

 O   -0.0089995706    1.3496005734   -0.4812921598
 C    0.0879137115   -0.0598484613   -0.3084834794
 C   -1.2639198949   -0.5436834065    0.1909367130
 C   -2.3867406326   -0.5027089725   -0.8859322481
 C   -2.2188877778   -2.0331429466   -1.0956169915
 C   -1.4042674235   -2.0912055090    0.2332131710
 O   -0.1772192768   -2.7877560742    0.2093903682
 C   -2.2267680666   -2.5697246356    1.4234068754
 O   -2.3698616176   -3.9811537756    1.2743461661
 H    0.8311986687    1.6638930944   -0.8271926121
 H    0.3444184973   -0.5606327379   -1.2539296778
 H    0.8675610118   -0.3253574083    0.4194381087
 H   -1.4873392868   -0.0284312181    1.1318430846
 H   -3.3610104144   -0.2321195304   -0.4716341202
 H   -2.1876539935    0.1424035549   -1.7433410737
 H   -3.1192982322   -2.6490739378   -1.1526968302
 H   -1.5733632311   -2.2706854703   -1.9440334326
 H   -0.3933488176   -3.7064994465    0.4161936214
 H   -1.6872033229   -2.3236278030    2.3499267985
 H   -3.2053480671   -2.0685073181    1.4474689433
 H   -2.6954952832   -4.3480611113    2.1006210251