25

 C   -0.4739929169    1.4407030177    0.0420884884
 C    0.2383327308    0.0893868631   -0.1505536231
 C    0.8812903996   -0.3989501486    1.0662111235
 C    1.3982177724   -0.7762979437    2.0880610110
 C    2.0322473295   -1.2842784816    3.3076488760
 C    1.8056901543   -2.8079270224    3.4112097433
 C    3.5351025763   -0.8808424212    3.3756991233
 C    3.7026645563    0.6427146424    3.3063682776
 C    4.2236351660   -1.4320763338    4.6322260546
 H    0.2340636113    2.2109747434    0.3599613802
 H   -0.9399570505    1.7650805030   -0.8933927261
 H   -1.2520524395    1.3637674976    0.8064884471
 H   -0.4847347311   -0.6563018662   -0.5061501236
 H    0.9872499665    0.1824730806   -0.9478359193
 H    1.5351311694   -0.8133817045    4.1700698012
 H    2.1317648739   -3.1948069792    4.3797474835
 H    0.7448543507   -3.0423042991    3.2917822083
 H    2.3555241652   -3.3341021250    2.6240311182
 H    4.0224813870   -1.3194237296    2.4940026719
 H    3.2485935013    1.1243788258    4.1813099267
 H    4.7625443976    0.9166836690    3.2920748163
 H    3.2287697028    1.0551988800    2.4125504359
 H    4.2500579987   -2.5245216396    4.6514401149
 H    5.2582255905   -1.0779155918    4.6847581867
 H    3.7134121777   -1.0907693863    5.5415735935