19

 C   -0.0353386130   -1.1919056935   -0.3079814158
 C   -0.0167962239   -0.0012175700   -0.1345162392
 C   -0.0016224075    1.4278097453    0.0763245300
 C   -0.4052246564    2.3180741683   -1.1498416837
 C    0.9717162361    3.0307216749   -1.1079284468
 C    1.3967455558    2.1790417943    0.1175508934
 C    1.3612722388    2.9003712020    1.4647225753
 O   -0.0202750856    3.0828681216    1.7613172823
 C   -0.6529626835    1.8637935334    1.4087494085
 H   -0.0521135321   -2.2420998908   -0.4632195615
 H   -0.5961264437    1.7429590934   -2.0566672028
 H   -1.2648267738    2.9623225272   -0.9502609023
 H    1.5868591647    2.8672579235   -1.9951017207
 H    0.9263868617    4.1050042706   -0.9114989482
 H    2.2830237013    1.5586977806   -0.0155075568
 H    1.8449959132    2.2888721327    2.2439911826
 H    1.8326608203    3.8872390105    1.4502091340
 H   -1.7269842110    2.0478977511    1.3235911787
 H   -0.4806920214    1.0926205149    2.1754267928