20

 C   -0.1052604747    1.5477847399    0.0391826579
 C    0.0240687654    0.0278382666    0.0246804907
 C    0.9694395944   -0.5409246774   -1.0243024248
 C    2.4038901047   -0.2739965304   -0.4780172385
 C    2.6782503499   -1.7522972811   -0.7689076926
 N    1.1972325773   -2.0247569063   -0.6901698969
 C    0.8286034580   -2.0751495991    0.7607105519
 C    0.8497986488   -0.5944730092    1.1716602937
 O    2.1757608574   -0.0873929853    0.9294922643
 H    0.8669206963    2.0237942876    0.1910288251
 H   -0.5253477646    1.9164308232   -0.9024085501
 H   -0.7684298291    1.8737196673    0.8469721119
 H   -0.9623065440   -0.4428923521   -0.0450801326
 H    0.7662953783   -0.3646698583   -2.0796113837
 H    3.0608323950    0.5203444759   -0.8419642127
 H    3.0383761992   -1.9392897297   -1.7862750341
 H    3.2952441159   -2.2991484761   -0.0502802022
 H   -0.1694127894   -2.5110822016    0.8835024645
 H    1.5428552799   -2.6897072729    1.3139193304
 H    0.5674045813   -0.3542097911    2.1974935379