19

 C   -0.1412788174    1.4858578228   -0.0517030709
 C   -0.2652855442   -0.0273692757   -0.0572975786
 O   -0.5974376494   -0.6389513780    0.9393525939
 C    0.0334572386   -0.7282662506   -1.3358518930
 C   -0.0419526324   -2.0586669926   -1.4744736300
 C    0.3392526216   -2.5097352945   -2.8550682233
 C    0.3562779710   -1.1928490555   -3.6786707247
 O   -0.8797355896   -0.9756074921   -4.3485735313
 C    0.4841141972   -0.0695630408   -2.6254491689
 H    0.8641198473    1.7945609670   -0.3603145072
 H   -0.8415447420    1.9289862624   -0.7692773444
 H   -0.3534983542    1.8655162344    0.9480792214
 H   -0.3258697234   -2.7285461650   -0.6715864638
 H    1.3256583477   -2.9955741319   -2.8467298733
 H   -0.3610181781   -3.2396611117   -3.2801197719
 H    1.1860083694   -1.1746287138   -4.3982236871
 H   -1.0101228469   -1.6945926171   -4.9751697536
 H   -0.1301119635    0.7836465819   -2.9285352248
 H    1.5190674082    0.2886698308   -2.5499156786