21

 C   -0.0218521602    1.5845453110    0.0107572925
 C    0.0243347473    0.0549605201    0.0020181187
 C   -1.3694450070   -0.5718986015    0.0120951473
 C   -1.3570619991   -2.0832713421    0.0038660696
 O   -0.3509098068   -2.7556055131   -0.0092573287
 C   -2.7428808765   -2.7816034226    0.0134270450
 O   -3.7500246652   -2.1112377626    0.0265180762
 C   -2.7303435264   -4.2938337022    0.0050786538
 C   -4.1266108604   -4.9092037932    0.0151373565
 H    0.9862754529    2.0097938415    0.0032810218
 H   -0.5533514041    1.9724795769   -0.8654019962
 H   -0.5362113809    1.9629035251    0.9012175545
 H    0.5711181631   -0.3015546650   -0.8779243982
 H    0.5879947172   -0.3110248456    0.8672997852
 H   -1.9543770985   -0.2487652130    0.8842556240
 H   -1.9710766982   -0.2394749663   -0.8450813306
 H   -2.1453248054   -4.6141812578   -0.8668396972
 H   -2.1286999248   -4.6235995355    0.8620397246
 H   -4.0647803429   -6.0006160059    0.0085995765
 H   -4.6855127894   -4.6000128351    0.9023840971
 H   -4.7024184146   -4.5904248931   -0.8577896324