14

 C    0.0163247447   -1.2412840059    0.2598677972
 C   -0.0180218583   -0.0417995505    0.1863332374
 C   -0.0699629919    1.3923293273    0.0725136039
 C   -1.3072812967    1.9626863998   -0.6217617757
 C   -1.4489158924    1.4984394080   -2.0019708900
 N   -1.5650716811    1.1322101309   -3.0911250055
 C    0.6023777293    2.2073676019    1.1319260869
 N    1.1764356224    2.1323533193   -0.2140368524
 H    0.0490043965   -2.3014611719    0.3190075307
 H   -2.2082897196    1.6874866980   -0.0628672110
 H   -1.2338416277    3.0541946357   -0.6254740496
 H    0.1852599027    3.1744235649    1.4003273958
 H    1.0786516212    1.6684749711    1.9449538203
 H    1.9620852110    1.4874149014   -0.2345502980