23

 C    0.0521637739    1.5406924822    0.0048133192
 C   -0.0159581201    0.0062237168    0.0037994365
 C   -1.4921262270   -0.4352747256   -0.0012800229
 C    0.7044833120   -0.5515197455   -1.2476283776
 C    1.0797153828   -2.0070536911   -1.1322184507
 C    1.0579965694   -2.6918644707    0.0129125874
 C    0.6480410670   -2.0782557201    1.3276516985
 C    0.6967239533   -0.5453453468    1.2669961017
 O    2.0479604802   -0.0900884889    1.3431128801
 H    1.0830998671    1.8820344755    0.1225726090
 H   -0.3477953888    1.9490423678   -0.9301171012
 H   -0.5383367807    1.9581518474    0.8285440708
 H   -2.0375422862    0.0737587453   -0.8033325593
 H   -1.6014179876   -1.5115782818   -0.1606828617
 H   -1.9841157483   -0.1788552817    0.9441375528
 H    0.0690665567   -0.4030317521   -2.1308466114
 H    1.6099287353    0.0400149380   -1.4481407530
 H    1.3958189152   -2.5026002265   -2.0477244578
 H    1.3423319837   -3.7413891503    0.0197420916
 H   -0.3569610638   -2.4211464550    1.6088536520
 H    1.3144112555   -2.4128719993    2.1317212539
 H    0.2103376537   -0.1260567219    2.1557371950
 H    2.5657188365   -0.6289052657    0.7341107772