17

 N    0.0381670957    1.2142389325   -0.3083050254
 C    0.0109592367   -0.0052323254   -0.0274685032
 O    1.0113256884   -0.8525195026    0.4217361591
 C    0.0900917183   -1.9804303103    0.5006713266
 C   -1.0468003755   -1.0989985922   -0.0617367910
 N   -2.3410334457   -0.9540537244    0.6632716875
 C   -3.0530231598   -1.4900307211   -0.5255971975
 C   -2.8743783336   -0.5142633800   -1.6418905256
 C   -1.7737347893   -1.5100167185   -1.3436045184
 H    0.9668639000    1.6147547287   -0.1635861444
 H    0.4234604958   -2.8108682585   -0.1276705940
 H   -0.0385545899   -2.3116122245    1.5361457281
 H   -2.3753273893   -1.6017711257    1.4448446822
 H   -3.8683526070   -2.1973960535   -0.4418020611
 H   -3.4287344980   -0.7296335269   -2.5499485466
 H   -2.7330012820    0.5375870143   -1.4144763885
 H   -1.3886832548   -2.2072776017   -2.0768338979