16

 N   -0.0478991990    1.2669633069   -0.4617750863
 C   -0.0141487120    0.0708539717   -0.0602212017
 O    1.1268954768   -0.6251560731    0.2494880580
 C    0.7967378935   -1.9282654861    0.7749408003
 O    0.8005899809   -1.8879843344    2.1692270871
 C   -0.4416975426   -1.2990522445    2.5880066028
 C   -1.4138408278   -1.5305857559    1.4355829946
 C   -0.6518839579   -2.2083219324    0.3400196217
 C   -1.1917418097   -0.8281166198    0.0941329605
 H    0.8966798612    1.6517119901   -0.5171486657
 H    1.5672721583   -2.6212385797    0.4415666414
 H   -0.7646329158   -1.8102700053    3.4992044085
 H   -0.2968564998   -0.2359423702    2.8148728586
 H   -2.4348214838   -1.8102976639    1.6640511836
 H   -0.9390701629   -3.1099429229   -0.1826517532
 H   -2.0566865394   -0.6266690306   -0.5226787003