20

 O   -0.1860390023    1.2633033580    0.4260692859
 C   -0.0842134618   -0.1366157304    0.2242902607
 C   -1.4981612085   -0.6951955577    0.1289881783
 C   -1.5225943824   -2.2102243563   -0.1080024307
 C   -2.9199001087   -2.7701689675   -0.2665819606
 C   -3.2095726553   -4.2138525168    0.0389794284
 N   -3.7143972681   -3.1630739437    0.8897768360
 C   -3.3925225193   -3.0188803411    2.2255901523
 O   -3.2522990548   -3.9301460504    3.0056343921
 H    0.7018938830    1.6224199542    0.5105136806
 H    0.4699074496   -0.3692028833   -0.7005056316
 H    0.4528602269   -0.6235744224    1.0549283338
 H   -2.0338681559   -0.4434074932    1.0515750292
 H   -2.0210906467   -0.1788189669   -0.6851936138
 H   -0.9597151770   -2.4456064429   -1.0214757372
 H   -1.0158953041   -2.7331182952    0.7134566575
 H   -3.5076969153   -2.3020006027   -1.0560762844
 H   -3.9493896938   -4.7549827290   -0.5442698922
 H   -2.4016820928   -4.8211738956    0.4404146157
 H   -3.3527276724   -1.9544172070    2.5258409300