18

 N   -0.0934164065    1.2730232821    0.4047705604
 C    0.0285198212   -0.0759137781    0.2214819523
 O    1.0980618577   -0.6546982659    0.2281956987
 C   -1.2420402529   -0.7589949096    0.0309118799
 C   -2.2660547948   -1.3742309578   -0.1335644357
 C   -3.4850894217   -2.1492831312   -0.3406351597
 C   -3.2889249168   -3.6433062190   -0.1261891577
 C   -3.3983748294   -4.2292160877    1.2553305629
 C   -4.4706920401   -4.5073147011    0.2289659353
 H    0.7489335750    1.8198041700    0.4768495867
 H   -0.9796031851    1.7369441449    0.3101855905
 H   -4.2690284323   -1.7818334859    0.3352052533
 H   -3.8547087599   -1.9624881346   -1.3583831079
 H   -2.5409905192   -4.0836243775   -0.7781766047
 H   -2.7220953422   -5.0308609652    1.5289233400
 H   -3.6413560615   -3.5576115149    2.0723759337
 H   -5.4337128216   -4.0236433517    0.3589599905
 H   -4.5300944098   -5.4996315069   -0.2037313383