21

 C    0.1558037737    1.5439765817    0.0559359671
 C   -0.1301330049    0.0654572924   -0.1201224310
 C   -1.3627228679   -0.2630370814   -0.9503737781
 N   -2.6309316459    0.1321555702   -0.3496570316
 C   -3.3282504168   -0.7396244801    0.4546591053
 N   -4.4251274460   -0.1634543955    1.0908751577
 O   -3.0216327209   -1.9081913187    0.6161260367
 C    1.0412384924   -0.8789180245   -0.2555279105
 C    0.2127349645   -0.8774035142    1.0079148005
 H    1.0643681701    1.7038444165    0.6443144837
 H    0.2944314061    2.0432828320   -0.9113356748
 H   -0.6611446395    2.0539097128    0.5819662098
 H   -1.2867835669    0.2183322472   -1.9340713685
 H   -1.4284850617   -1.3409574496   -1.1096203603
 H   -2.7963575311    1.1175010093   -0.2206295227
 H   -4.9108272327    0.5728732921    0.5999064417
 H   -5.0408640140   -0.8600252348    1.4832348119
 H    0.9455925693   -1.7250044103   -0.9284076497
 H    2.0403133746   -0.4572836286   -0.2156590039
 H    0.6569989735   -0.4546592829    1.9032427304
 H   -0.4598685657   -1.7083007735    1.1851818462