20

 C    0.0520432985    1.3852504483   -0.2956048191
 C    0.0614170434   -0.0950541275    0.0478386659
 O    1.0970376596   -0.6972628417    0.2195255680
 C   -1.3041193124   -0.7718885498    0.1344732272
 C   -1.8755107578   -1.0258657220   -1.3004623449
 C   -2.6495034999   -2.3465315695   -1.1709423665
 C   -1.7641427906   -3.1768455119   -0.2307104049
 C   -1.2813729325   -2.1613498785    0.8275678008
 H    1.0707698872    1.7377450014   -0.4609200171
 H   -0.5604999408    1.5788332187   -1.1825183479
 H   -0.3987136064    1.9501355205    0.5291277050
 H   -1.9823292642   -0.0890511875    0.6586967033
 H   -2.4873996010   -0.1951410854   -1.6619591310
 H   -1.0501990709   -1.1577836889   -2.0111729863
 H   -3.6263782973   -2.1629788130   -0.7057028976
 H   -2.8313772639   -2.8260077629   -2.1374846337
 H   -2.2840439938   -4.0326441992    0.2087097922
 H   -0.9064722780   -3.5698664189   -0.7892932994
 H   -0.2786132331   -2.3905626955    1.1922509804
 H   -1.9574521763   -2.1553403268    1.6880077357