19

 O    0.0427284218    1.4367255376    0.0534185792
 C   -0.0831306437    0.0471772117    0.3064206743
 C   -1.3455983579   -0.5566871822   -0.3180820016
 C   -1.4305677990   -2.0581115029   -0.1538371542
 O   -0.5306821720   -2.8113665088   -0.9280820530
 C   -1.7983326164   -2.6896219484    1.1762726400
 O   -2.1516674983   -1.8111783736    2.2187939598
 C   -2.7672406536   -2.7498712301    0.0089951815
 O   -3.9407547268   -2.0072395426    0.1080403231
 H   -0.7084653050    1.8763947381    0.4645142632
 H    0.8112922559   -0.4058816137   -0.1378005208
 H   -0.0642479770   -0.1721053409    1.3847391749
 H   -2.2297959803   -0.0905949342    0.1283276059
 H   -1.3653083332   -0.3255462462   -1.3888140162
 H    0.3510787769   -2.7142380462   -0.5508177963
 H   -1.2526533139   -3.5829375219    1.4727639381
 H   -2.6111042152   -2.3234142018    2.8939134707
 H   -2.8964018215   -3.6880881474   -0.5217200326
 H   -3.9101602709   -1.5659611564    0.9681650239