21

 C   -0.1842967199    1.3708255845   -0.1671245586
 C    0.0309835445   -0.0769680455    0.3043603964
 C    0.8124457437   -0.0812987506    1.6323207095
 C   -1.3319251336   -0.7664475405    0.5075576310
 N    0.7889009650   -0.9330339415   -0.6191225748
 C    1.2241029981   -0.4892282981   -1.7191043963
 N    1.9393296547   -1.3305624857   -2.5703011237
 C    2.4526234475   -0.9427219802   -3.7837074334
 O    2.3479794819    0.1643853900   -4.2578900622
 H    0.7654749846    1.8963953738   -0.3120210979
 H   -0.7473863296    1.4130037335   -1.1054386038
 H   -0.7551358761    1.9249419065    0.5836992611
 H    0.2561754341    0.4517229480    2.4100867096
 H    0.9863879577   -1.1073846804    1.9669608688
 H    1.7851925548    0.4057541985    1.5110869638
 H   -1.9054889110   -0.7733969875   -0.4247160928
 H   -1.1893924642   -1.8025884388    0.8256645879
 H   -1.9201250739   -0.2436763565    1.2686083735
 H    1.1166206480    0.5159707549   -2.1263263117
 H    2.0748509734   -2.2793367991   -2.2503833613
 H    2.9820813003   -1.7743580254   -4.2861883853