17

 O    0.0391200347    0.1290132964   -0.5252167827
 C   -0.0118300126    1.2540738121   -0.0950687842
 C   -1.2820802873    1.9678208856    0.4071773965
 C   -0.7896377753    3.2942139084    0.9435003392
 O    0.1440857222    3.1569770760    2.0206154567
 C    0.6600519356    3.4261951172    0.7060220538
 C    1.1543563258    2.2023430589    0.0096959501
 C    2.5480734863    1.6301151434    0.1635794229
 C    2.1525584940    2.2404755476   -1.1388184852
 H   -1.9772592320    2.0956676078   -0.4310168482
 H   -1.7862747198    1.3592111127    1.1632184716
 H   -1.4534056333    4.1524460784    1.0035972200
 H    1.1579005937    4.3844924487    0.5829229696
 H    3.2341645781    2.1681603858    0.8078554616
 H    2.6022981325    0.5481621630    0.2172617692
 H    1.9447002081    1.5768529710   -1.9706942059
 H    2.5571696595    3.2107638470   -1.4071985750