22

 C   -0.1149799200    1.5572205664    0.0146607684
 C    0.0104979259    0.0267251657    0.0011430990
 C    0.6427924963   -0.4377576023   -1.3231483158
 C    0.6187517078   -1.9555894479   -1.5856588684
 C    1.5738258648   -2.7731685301   -0.7491016389
 C    1.6322389823   -2.7801349131    0.5823183108
 C    0.7544653688   -1.9717751792    1.5077916199
 C    0.7561325560   -0.4512742215    1.2600505330
 H    0.8726960572    2.0321246133   -0.0261682798
 H   -0.6908367224    1.9176152778   -0.8443007006
 H   -0.6132641508    1.9083489784    0.9244583643
 H   -1.0074367762   -0.3923447830    0.0436147654
 H    0.1045773554    0.0549286460   -2.1431402285
 H    1.6796233024   -0.0793446481   -1.3760110524
 H   -0.4095428914   -2.3196722400   -1.4374658330
 H    0.8415484910   -2.1268006030   -2.6441031476
 H    2.2635866393   -3.4129111858   -1.2954576794
 H    2.3669033140   -3.4252316124    1.0594592695
 H   -0.2830240690   -2.3347549087    1.4464124471
 H    1.0690099694   -2.1539370097    2.5408134511
 H    1.7937750906   -0.0929657537    1.2256389430
 H    0.2920292488    0.0325830809    2.1291252530