19

 O    0.0669092335    1.3557058997   -0.3884118873
 C    0.0768540747    0.0069558843    0.0546516988
 C   -1.3064101085   -0.5119264027    0.2810561081
 C   -2.3127299452   -0.1710550082    1.4008122580
 C   -2.9157030894   -1.5838332982    1.1888823765
 C   -3.3088854766   -2.5583411741    2.2590785960
 C   -4.3368142842   -2.0452662421    1.2731968562
 C   -1.9143727306   -1.8405157263    0.0798236266
 O   -2.0866196651   -0.8000070509   -0.8978164180
 H   -0.4532058524    1.3781906730   -1.1995434568
 H    0.5923295847   -0.6530181604   -0.6592405607
 H    0.6422329520   -0.0001602856    0.9923161256
 H   -1.8425509422   -0.0489929332    2.3805569285
 H   -2.9604108037    0.6829047697    1.1902479313
 H   -2.9774831711   -3.5877437824    2.1631339143
 H   -3.3544810247   -2.2006809362    3.2827333744
 H   -5.0768018943   -1.3380082396    1.6333215048
 H   -4.7046441062   -2.7247177368    0.5114241609
 H   -1.4889127907   -2.7785877801   -0.2617831573