22

 C    0.0843024787    1.3861327265   -0.3245093121
 C    0.1520050674   -0.0821930621    0.0424639269
 C    1.4274492824   -0.8985012295   -0.0195281465
 C    2.6541735957   -0.0895163825    0.4235776515
 C    1.9532037875    0.2038142524    1.7915274568
 C    0.7363085978   -0.6038802175    1.3276240304
 N   -1.1027648286   -0.7187008345   -0.3313297885
 C   -1.2282721035   -1.2925610071   -1.6679152490
 C   -1.2315071678   -2.1636063294   -0.4594553566
 H    0.9781117297    1.9370115019   -0.0276029079
 H   -0.0327881563    1.5003775846   -1.4080771576
 H   -0.7836405290    1.8489574266    0.1545815404
 H    1.4873295797   -1.8291614090   -0.5714757677
 H    3.5417864949   -0.7144357397    0.5465129052
 H    2.9265071376    0.7706600971   -0.1960053107
 H    2.4745705593   -0.2704806370    2.6258615569
 H    1.7756962647    1.2522410998    2.0510017667
 H    0.1520549768   -1.2699539416    1.9524743945
 H   -2.1514946956   -1.0712202493   -2.1964333941
 H   -0.3376071267   -1.3267185951   -2.2929620509
 H   -0.3655673970   -2.7999858043   -0.2972094554
 H   -2.1637981677   -2.5747014305   -0.0809772123