14

 N    0.0668044206    1.3045292220    0.3639611359
 C   -0.0498452554   -0.0062121788    0.0401651981
 N   -1.0900223592   -0.7806711309    0.1957679130
 C   -0.6374555423   -1.9540179075   -0.3584022657
 N    0.5795117375   -1.9229707277   -0.8349872882
 O    0.9919848210   -0.5957699808   -0.5562603854
 C   -1.4780527049   -3.1740349759   -0.3955689733
 C   -0.9991813918   -4.4240333711   -0.9987170063
 O   -1.0515406018   -4.2763989561    0.4175632851
 H    1.0002464147    1.6724158629    0.4533631851
 H   -0.6113962611    1.6486715896    1.0242502438
 H   -2.5449907169   -2.9677417613   -0.3498617264
 H   -1.7246728730   -5.1131279540   -1.4284352313
 H   -0.0009044574   -4.4504036305   -1.4291921343