16

 C   -0.1521416481    1.5873646596   -0.0393895949
 C   -0.0403667179    0.0713428953   -0.0193099686
 O   -1.2911970485   -0.5474010783   -0.2668736381
 C    1.1794882716   -0.5921242543   -0.7085210757
 C    2.0907083890   -0.3446055217    0.5339356446
 O    2.5318390842   -1.7295448662    0.6419030537
 C    1.1237415614   -1.8116359015    0.2666181569
 C    0.6836091814   -0.6063418840    1.1570877000
 H    0.8015013260    2.0684119790    0.1978334478
 H   -0.4606856802    1.9418869133   -1.0311629015
 H   -0.9004732116    1.9238338640    0.6848536700
 H   -1.6617652777   -0.1682004243   -1.0708249248
 H    1.4857110557   -0.6011383206   -1.7551392396
 H    2.8087190566    0.4495540391    0.7324827665
 H    0.6673269823   -2.7900766379    0.1399700681
 H    0.4232236159   -0.6300172514    2.2148709556