16

 O    0.0357087682    1.4754662111   -0.0975619541
 C   -0.0047587828    0.0735034824   -0.0501903179
 C   -1.4541607366   -0.4921679074   -0.1080692626
 C   -1.5794332100   -0.9639319934   -1.5625087136
 O   -0.2882572134   -1.4660904913   -1.8764818463
 C    0.6395402512   -0.5483131745   -1.3399680434
 C    0.7140993802   -0.4087003814    1.1905709656
 O    1.2108817399    0.3527647121    1.9849248377
 H    0.4877537711    1.7521239631    0.7160361397
 H   -1.5732210768   -1.3463196450    0.5668681560
 H   -2.1626667298    0.2862588400    0.1779395926
 H   -2.3003325491   -1.7706306570   -1.7121564944
 H   -1.8451742261   -0.1226506401   -2.2214056856
 H    0.8308785255    0.2968255365   -2.0159952844
 H    1.5788119397   -1.0822332722   -1.1637572325
 H    0.7617336789   -1.5089375929    1.3231805433