16

 O    0.2776376205    1.3428503390    0.1434956659
 C    0.0144638339    0.0000781188    0.0259105968
 C   -1.3416657977   -0.6483331112    0.0527622200
 C   -2.5674387919    0.1945432354   -0.2779070492
 N   -2.2625120929    1.6002615763   -0.6407856846
 C   -2.5280504118    0.5960243164   -1.7056981813
 C   -1.2693748133   -0.0160182978   -2.3129581203
 O   -1.0303914932   -0.0457790067   -3.4945870775
 C   -0.4998034879   -0.7238678968   -1.2339358489
 H   -0.5353607918    1.8088074931   -0.1369396021
 H    0.7966357708   -0.5766772996    0.5129520099
 H   -1.5102751870   -1.5232982987    0.6706312681
 H   -3.4978102615   -0.0108305470    0.2377639458
 H   -3.0847416675    2.1855331976   -0.5211464338
 H   -3.3951411506    0.7281276933   -2.3414731320
 H    0.0395886319   -1.6088052821   -1.5501688269