23

 C    1.3697601762   -0.3140984787   -1.2018484989
 C    0.3509916657   -0.0680394645   -0.0869808652
 C    0.8034866074   -0.6014777631    1.2928105622
 C   -0.2041120849   -0.2860937382    2.4267674603
 C   -0.4059119298    1.2042311282    2.7054043327
 C   -1.3267589560    1.4332027534    3.9047071978
 O    0.8896935938    1.7571261232    2.9351135071
 C    1.0476786460   -2.0431200330    1.2487629572
 C    1.2162468852   -3.2338764695    1.2202308686
 H    1.5623622319   -1.3830523526   -1.3292676385
 H    1.0096904636    0.0836742163   -2.1557225894
 H    2.3250364220    0.1731752638   -0.9767912271
 H    0.1710350371    1.0080314250    0.0057088181
 H   -0.6085863910   -0.5314041278   -0.3483747529
 H    1.7442045848   -0.0998570783    1.5519311735
 H   -1.1739138331   -0.7383642164    2.1891757502
 H    0.1531643372   -0.7625916353    3.3464719368
 H   -0.8611097772    1.6801741171    1.8219641795
 H   -2.3173145816    1.0005872664    3.7299443323
 H   -0.9007768937    0.9789499931    4.8048179378
 H   -1.4621494711    2.5046383696    4.0932266898
 H    0.7862432281    2.6954080928    3.1212600677
 H    1.3831710295   -4.2820705217    1.1963287905