15

 C   -0.3351787184    1.3120909886    0.0007250284
 C    0.1350395676   -0.1191903848    0.0294890234
 O    1.4106148145   -0.3037531048   -0.7164475597
 C    2.0885425734   -0.6244376453    0.4070617541
 O    3.2578659102   -0.7609588028    0.5806701946
 C    0.8372849257   -0.6232255686    1.3197241053
 O    0.8993221889    0.2143331179    2.4400843864
 C    0.4061097403   -2.0242393814    1.7526759314
 O   -0.1363414077   -2.8165278851    1.0308667985
 H    0.4121843786    1.9857800534    0.4261272187
 H   -0.5461042508    1.6179898052   -1.0274347576
 H   -1.2541165110    1.4082485633    0.5866700855
 H   -0.5954113386   -0.8290059570   -0.3600902328
 H    1.8049337064    0.5269941160    2.5465818743
 H    0.6457751910   -2.2353684845    2.8158313093