18

 C   -0.1730124977    1.5270980432    0.2034122642
 N    0.0295800508    0.0956701547    0.1291468255
 C   -1.1598634615   -0.7770932062    0.2880365673
 C   -0.3952163811   -1.6606538648    1.2947033304
 O    0.4909287107   -2.6390563885    0.7307390834
 C    1.6236192041   -1.7296784041    0.7667290744
 C    0.7312527088   -0.5688966307    1.2370653290
 C   -1.0836302590   -2.1240371185    2.5415212267
 O   -2.0124341581   -1.5454455336    3.0495641492
 H    0.7934093409    2.0406285266    0.1698115733
 H   -0.7547624102    1.8565603862   -0.6634669197
 H   -0.7077284950    1.8530149256    1.1147850074
 H   -2.0011469476   -0.2837634565    0.7948971924
 H   -1.5016192748   -1.2656352880   -0.6291981868
 H    2.3714723564   -2.0661426380    1.4958732404
 H    2.0819822054   -1.5931499765   -0.2170450654
 H    1.0448625431    0.0568150177    2.0757631699
 H   -0.6463009453   -3.0491297686    2.9762018783