20

 C   -0.6657037658    1.4101851977   -0.5159581808
 O   -0.8694561243    0.0222710499   -0.6149413589
 C   -0.5947494493   -0.6631411475    0.5886297889
 C   -0.8147340007   -2.1328526896    0.3857142268
 C   -0.5163863068   -2.8385842165   -0.9055106916
 C   -1.9247453116   -2.8686063850   -0.3680384022
 C   -2.0312971494   -3.9047652495    0.7570026289
 C   -0.8957951111   -3.1537048422    1.5303488894
 H   -0.9005920635    1.8464239930   -1.4899979273
 H   -1.3190933417    1.8668374802    0.2445842465
 H    0.3778431267    1.6532591899   -0.2594377678
 H    0.4462938080   -0.4702917300    0.9090018014
 H   -1.2489066557   -0.2895985852    1.3974910739
 H   -0.3657957908   -2.1777893671   -1.7514804647
 H    0.0871812781   -3.7448230397   -0.9162412451
 H   -2.7514846822   -2.4528745722   -0.9310178354
 H   -2.9833661457   -3.8701407142    1.2912396317
 H   -1.8307047618   -4.9433477748    0.4724128090
 H    0.0217052165   -3.7138321311    1.7403671496
 H   -1.2563510287   -2.7177721463    2.4663107679