25

 C   -0.0117167715    1.5777087755   -0.0910614523
 C    0.1014882676    0.0561429196   -0.0005179251
 C    0.8126838552   -0.6024551608   -1.2059715119
 C    1.2296902588   -1.9865917967   -0.7071977604
 C    2.5474324618   -2.0827562053    0.0136772573
 C    1.2717637915   -1.9220134215    0.8059313043
 C    0.8023477939   -0.5274284286    1.2790740739
 C    1.9652249438    0.3494522713    1.7789596261
 C   -0.2146351386   -0.6882846325    2.4211426411
 H    0.9706646141    2.0542711742   -0.1733411909
 H   -0.5911405443    1.8685811486   -0.9739475932
 H   -0.5163800124    2.0006648094    0.7844330825
 H   -0.9181624676   -0.3535604253    0.0142188564
 H    0.1503874623   -0.6614927288   -2.0751100824
 H    1.6833620409   -0.0105388534   -1.5184722931
 H    0.8516838084   -2.8631388710   -1.2215471040
 H    3.0323794898   -3.0527644638    0.0585911468
 H    3.2397188123   -1.2509652796   -0.0654445020
 H    0.9550902684   -2.7727239718    1.4011538629
 H    2.6761244122    0.5993286326    0.9860870365
 H    1.5976823278    1.2927639480    2.1959702105
 H    2.5210837258   -0.1690532520    2.5669894253
 H    0.2628963084   -1.0846160529    3.3242466743
 H   -0.6706658616    0.2725908931    2.6845396589
 H   -1.0196875470   -1.3749970181    2.1377552786