23

 C   -0.1755615899    1.5678423621    0.0462430511
 C    0.0567427288    0.0541177864    0.0217891205
 C    0.7857265025   -0.4615112920   -1.2355508587
 C    2.2569677765   -0.0214040738   -1.2638036223
 C    0.6419710698   -1.9949986217   -1.3401651700
 O   -0.7261040051   -2.4043553315   -1.3176085385
 C    1.3354492745   -2.6074395268   -2.5676614786
 C    1.0348002415   -4.0880344003   -2.6730097425
 O    0.6380108642   -4.6375144779   -3.6671849399
 H    0.7609557519    2.1345676613    0.0469161481
 H   -0.7578972358    1.8923158392   -0.8238193076
 H   -0.7321045048    1.8595412433    0.9422989989
 H    0.6314213816   -0.2451307016    0.9095307940
 H   -0.9055866415   -0.4608507820    0.0920560281
 H    0.2825066506   -0.0349002788   -2.1188042839
 H    2.7423340221   -0.2557706095   -2.2150826332
 H    2.3465756544    1.0577621273   -1.1147939156
 H    2.8259394166   -0.5116252323   -0.4641911350
 H    1.0689677159   -2.4454737532   -0.4334353937
 H   -1.1451580892   -2.0866012325   -2.1260937378
 H    1.0164230858   -2.1186834778   -3.4957924045
 H    2.4238535770   -2.4926854522   -2.4838198177
 H    1.2245050024   -4.6602642357   -1.7358554613