19

 C    0.1916740770    1.5321951726    0.1551404833
 C   -0.0686825084    0.0295227412   -0.0413515584
 C    0.6696568395   -0.5214705608   -1.2349678761
 C    1.7397473067   -1.4049024923   -1.1142089884
 C    2.3455730575   -1.8247315600   -2.2920950843
 N    1.9436370027   -1.4186150711   -3.4945276208
 C    0.9056623792   -0.5676214338   -3.5135442070
 C    0.4397141673   -0.1003198516   -4.8650249994
 N    0.2563423025   -0.1056811419   -2.4414794814
 H    1.2498872388    1.7261465722    0.3579606504
 H   -0.0883854980    2.0839610261   -0.7458270944
 H   -0.3917027606    1.9190130746    0.9956569026
 H    0.2174700659   -0.5260630863    0.8577747870
 H   -1.1409459628   -0.1304675047   -0.2002366704
 H    2.0836539117   -1.7515539194   -0.1466582079
 H    3.1860745899   -2.5161173618   -2.2703977950
 H    0.1657157156   -0.9575413768   -5.4879348038
 H   -0.4160097061    0.5671459577   -4.7629055537
 H    1.2503223917    0.4212743360   -5.3840917324