20

 C   -0.1270306454    1.5628417456    0.1879247921
 C   -0.0341700152    0.0694528162    0.0787332621
 C    0.0306291746   -0.6756886234   -1.0850060194
 C    0.0552328579   -0.2694348410   -2.5238262709
 C    1.4719883871   -0.1040855650   -3.0834910501
 O    1.3564750485    0.2435199039   -4.4543468825
 N    0.1219595900   -2.0021070675   -0.7167055910
 C    0.1059983947   -2.1181598652    0.6489763637
 C    0.0119495224   -0.8509755355    1.1693809584
 H    0.8070468070    2.0081798265    0.5527961984
 H   -0.3498195792    2.0265492935   -0.7778700112
 H   -0.9161578273    1.8641237360    0.8861048609
 H   -0.4723655831   -1.0055839533   -3.1438259906
 H   -0.4768950866    0.6779094039   -2.6551579537
 H    2.0008543207    0.6722644127   -2.5099243066
 H    2.0327788828   -1.0437760625   -2.9521763096
 H    2.2398214660    0.3920876319   -4.8037569044
 H    0.1500299375   -2.7713709558   -1.3629526658
 H    0.1526409546   -3.0833032294    1.1273361300
 H   -0.0260042168   -0.5989658617    2.2189351001