16

 N   -0.1476747314    1.4108268831    0.0843147005
 C   -0.0903138583    0.0184107106    0.0463788567
 C   -1.1148805337   -0.8958706350   -0.0489568286
 N   -0.5001569580   -2.1412549924    0.0474217231
 C   -1.1557061667   -3.4181953862   -0.0767705065
 C   -1.6082743362   -3.7086813607   -1.5087897974
 O   -2.5003714932   -4.4650738034   -1.7786824993
 C    0.8305958198   -1.9081500854    0.1814887690
 N    1.1151731320   -0.6232546459    0.1880709002
 H    0.7559253137    1.8145968922   -0.1249626628
 H   -0.8637827535    1.8097202488   -0.5067228524
 H   -2.1830669839   -0.7961001896   -0.1409565613
 H   -0.4482567954   -4.2036100257    0.2152342237
 H   -2.0200450135   -3.4925287402    0.5907600333
 H   -1.0239540085   -3.1681023702   -2.2866481221
 H    1.5442321267   -2.7139867300    0.2743917639