18

 C   -0.4031930499    1.4455463920    0.2259066710
 C   -0.1016229502   -0.0348613679    0.2433743713
 O    0.9302394722   -0.5046126108    0.6550536503
 C   -1.2126087040   -0.9466212184   -0.3382270957
 C   -1.0627254369   -0.8989482222   -1.8620285257
 O   -1.4921792825   -0.0116573997   -2.5523666949
 C   -1.1118324169   -2.3602769919    0.1870571161
 C   -1.9142565507   -2.7890139234    1.3558226999
 N   -2.2320052820   -3.2998603931    0.0090369000
 H    0.4982551359    2.0163559831    0.4513300382
 H   -0.8190063487    1.7355758765   -0.7442383595
 H   -1.1686759361    1.6658312578    0.9799659325
 H   -2.1839437155   -0.4939257938   -0.1063702177
 H   -0.4919167381   -1.7492306942   -2.2931541636
 H   -0.1342023728   -2.8117039296    0.0452887447
 H   -1.5161959905   -3.5277470171    2.0446889003
 H   -2.5847864764   -2.0632339325    1.8097508918
 H   -3.0462579169   -2.8109493750   -0.3575174790