19

 C   -0.3070800796    1.4832282585    0.1143826472
 C    0.0142981394    0.0098970289   -0.0163904028
 O   -0.6247177004   -0.8244157670    0.9615318706
 C    0.7933542194   -0.6575042642    1.0832158202
 C    1.6753988549   -1.8245176914    0.8715612379
 C    1.4332576054   -2.8526786592    0.0538099620
 C    0.2112967078   -2.9784811799   -0.8355722670
 C    0.1435073375   -1.7925835989   -1.7781307580
 C    0.0778005770   -0.5110296541   -1.4068317202
 H    0.4413181695    2.0907893843   -0.4053363865
 H   -1.2849193100    1.7017657272   -0.3286462444
 H   -0.3338022361    1.7822130050    1.1646026810
 H    1.0788105947   -0.0133120456    1.9157409949
 H    2.6057921600   -1.8024558547    1.4330590306
 H    2.1809975945   -3.6377390465   -0.0215635423
 H    0.2723771030   -3.9030083135   -1.4149395757
 H   -0.6964274701   -3.0348275532   -0.2286061529
 H    0.2005907694   -2.0104004075   -2.8416700757
 H    0.0812798937    0.2541809018   -2.1793043690