25

 C   -0.0030208802    1.5545244961   -0.1736501342
 C    0.0264299847    0.0359523139    0.0255793124
 C   -1.3778295576   -0.5780108237    0.0491010749
 C   -1.4109487712   -2.1146968751    0.1535866930
 C   -0.7916076165   -2.6451657190    1.4623926025
 C   -2.8589893422   -2.6118859055    0.0854018703
 O   -3.7303773228   -2.1021746353    0.7545652387
 C   -3.1383049799   -3.7851841925   -0.8425643835
 C   -4.5695218935   -4.3084713247   -0.7658915792
 H    1.0071751062    1.9754696451   -0.1868055840
 H   -0.4880599297    1.8205774953   -1.1194447656
 H   -0.5596227607    2.0471697009    0.6311107389
 H    0.6153665686   -0.4269584725   -0.7781139924
 H    0.5522219700   -0.1934470350    0.9597419218
 H   -1.9596700914   -0.1638061831    0.8804357185
 H   -1.9075685975   -0.2783101169   -0.8653802871
 H   -0.8561236621   -2.5449453687   -0.6907165802
 H   -0.8652487348   -3.7362418454    1.5248080331
 H    0.2670013214   -2.3832923675    1.5343351837
 H   -1.3155695821   -2.2229075183    2.3252294923
 H   -2.8881996824   -3.4562184965   -1.8620997001
 H   -2.4064599852   -4.5743925654   -0.6192198023
 H   -4.7199123933   -5.1355649399   -1.4653952396
 H   -4.8021136266   -4.6615388003    0.2423281128
 H   -5.2848372211   -3.5171429262   -1.0030688947