19

 O   -0.0048943077    1.3978573771    0.2642275964
 C   -0.0373375333    0.0313164358   -0.1135922256
 C   -1.4111959538   -0.5484696541   -0.0095608868
 O   -2.3573146691    0.0805556375   -0.8699821989
 C   -3.5328158078   -0.6713709928   -0.5182787536
 C   -3.0661195395   -2.1312732254   -0.7162008663
 C   -1.8125887780   -1.9973714028    0.1422341888
 C   -2.1388323567   -0.9780627826    1.2427365967
 C   -3.5786175065   -0.5325394680    1.0196138600
 H   -0.7074541313    1.8316943120   -0.2328842666
 H    0.3379381209   -0.1057249132   -1.1404093353
 H    0.6396322957   -0.5019157153    0.5610868240
 H   -4.3853798681   -0.3194027281   -1.0950686665
 H   -3.7861317555   -2.8600030361   -0.3333044605
 H   -2.8449080250   -2.3527577375   -1.7638336918
 H   -1.0936707012   -2.7940274445    0.2791202234
 H   -1.6588098533   -0.9932936513    2.2116649332
 H   -3.7571443519    0.4995272026    1.3335522727
 H   -4.3235546380   -1.1878713732    1.4798272567