18

 C   -0.0762874930    1.5341147723    0.0420398647
 C    0.0015185022    0.0261591109   -0.0160643005
 C    0.7403173551   -0.6927449388   -1.1821379148
 C   -0.3412652960   -1.7753456101   -0.9737232418
 C    0.0787928232   -2.7018501994    0.1572069740
 O    0.5097456226   -1.9601878604    1.3163218863
 C    0.5030871289   -0.5966998430    1.2896085258
 O    0.8615153701    0.0163496247    2.2563057677
 N   -1.2343838491   -0.6988968715   -0.4643006872
 H    0.9109264286    1.9636629042    0.2315631045
 H   -0.4635580132    1.9172352207   -0.9052667046
 H   -0.7360276835    1.8598234742    0.8512214843
 H    0.6058128213   -0.1501675229   -2.1186199656
 H    1.7864354613   -0.9700666177   -1.0419433981
 H   -0.7159019483   -2.3404732470   -1.8322233852
 H   -0.7555060899   -3.3373675522    0.4784036237
 H    0.9089081112   -3.3517083230   -0.1434281712
 H   -1.8563663014   -0.9856640811    0.2913340281