15

 C    0.2179608674    1.3940352576   -0.0900450495
 C    0.0667906383   -0.0891191739   -0.0821689487
 N    0.2842452888   -0.9152138010   -1.0918411353
 C    0.0391595332   -2.1487361873   -0.5574218981
 C    0.1581178127   -3.3819479222   -1.4033569370
 O    1.2195724238   -3.2690257825   -2.3291197367
 N   -0.3172323417   -2.1398276341    0.7142757067
 N   -0.3009552512   -0.8105727692    0.9980386050
 H    1.2530407555    1.6845554143    0.1206561761
 H   -0.0430707465    1.7830937758   -1.0758124021
 H   -0.4251005035    1.8670564378    0.6572737822
 H    0.3475858470   -4.2500883851   -0.7656699599
 H   -0.8015418780   -3.5578671357   -1.9189165382
 H    1.2270790551   -2.3472761795   -2.6165637984
 H   -0.5296044609   -0.4950638450    1.9265690040