15

 C    0.0158298863   -1.1336567389   -0.3792467036
 C    0.0130765475    0.0189622483   -0.0400303045
 C    0.0377736405    1.4183806380    0.3725224505
 C    1.4130831194    2.0435411722    0.1893328472
 C    1.8208007103    2.6258955396   -1.1260597739
 C    1.5662865597    3.5547697361    0.0554577804
 C    0.4066210066    4.4010558664    0.0545792324
 N   -0.5321848328    5.0779785932    0.0586207533
 H    0.0040881328   -2.1519924629   -0.6799494145
 H   -0.7066254119    1.9887275218   -0.1960054334
 H   -0.2629484750    1.4987182502    1.4248854360
 H    2.1969498933    1.5678454421    0.7701515091
 H    2.8475617140    2.5234466890   -1.4565138038
 H    1.0856274961    2.6375721281   -1.9227365381
 H    2.4336959633    4.0004217370    0.5301371231