20

 C    0.1650628387    1.5331989205   -0.1479233256
 C   -0.1067183489    0.0378974160    0.0729070878
 C    0.6240514563   -0.5123525418    1.2677152842
 C    2.0656750687   -0.9490342153    1.2210962434
 C    1.0254680419   -1.9471510128    1.6451482838
 C    0.6658607629   -1.7021958782    3.1130963399
 C    0.2205379615   -0.2506751335    2.7173362507
 O    0.8782472214    0.8547821090    3.3038463862
 H    1.2262387444    1.7105308776   -0.3497539352
 H   -0.4120796052    1.9203352649   -0.9936635101
 H   -0.0991404546    2.1138618230    0.7412938064
 H   -1.1863913106   -0.1228356436    0.1986268956
 H    0.1836450860   -0.5275174243   -0.8217268078
 H    2.4612408485   -1.0814893914    0.2184063924
 H    2.7849926022   -0.5672135012    1.9404835873
 H    0.8400842340   -2.8609818949    1.0933994082
 H   -0.1616100090   -2.3111385786    3.4851858308
 H    1.5004431517   -1.7588049769    3.8201709468
 H   -0.8706269853   -0.1445127273    2.8025817620
 H    0.5813509954    0.9331261689    4.2162161734