18

 C    0.3597723337    1.4835104442    0.2084602364
 C    0.0055665657    0.0370750357   -0.0658553932
 C    0.5852431397   -0.6545583437   -1.3201487089
 C    1.1219395056   -1.6970301906   -0.3187971034
 C    2.6252338072   -1.9833066381   -0.3286742365
 C    3.0468638969   -2.8717147381    0.7466947468
 C    3.3744522406   -3.6143344826    1.6326883617
 O    0.7137861495   -0.8852090921    0.8016804361
 H    1.4350198088    1.6500780553    0.0909252952
 H   -0.1753837541    2.1457427674   -0.4811548650
 H    0.0804489225    1.7572979653    1.2307625292
 H   -1.0795661103   -0.1110119075    0.0327919024
 H   -0.1265896106   -1.0089016159   -2.0667452939
 H    1.3705965203   -0.0749819579   -1.8136790662
 H    0.5702014794   -2.6468177956   -0.3334326050
 H    2.8824920356   -2.4266737571   -1.3006489933
 H    3.1617633521   -1.0288546202   -0.2619002838
 H    3.6686118774   -4.2628855886    2.4199889214