17

 C   -0.5654261238    0.8940428723   -0.1868239775
 N    0.6406488225    0.0856579962    0.1248525249
 H    1.2438850113    0.5728981174    0.7831343185
 H    0.3158218184   -0.8857048119    0.5142111589
 C    1.4141391665   -0.3917431558   -1.0882053070
 C    0.9939367869   -1.8279186591   -1.2368249931
 N    0.2519501007   -2.2676124958   -0.2351129566
 O    0.0162513299   -3.6054270558   -0.5796160865
 C    0.6785259354   -3.8254740484   -1.8262687572
 N    0.6572153302   -4.9482494411   -2.4224517170
 N    1.2949840873   -2.6500966470   -2.2150875575
 H   -0.2791656672    1.8182814914   -0.6914589963
 H   -1.2041544430    0.2887530695   -0.8307019925
 H   -1.0925611077    1.1206729715    0.7413860071
 H    1.1611980538    0.2257105334   -1.9527630777
 H    2.4833273336   -0.2888886270   -0.8871630746
 H    0.1160637451   -5.6180177099   -1.8785544258