20

 C   -0.1103919502    1.5680831133   -0.0868168866
 C    0.0010804536    0.0644414629    0.0207544484
 O   -1.1675661251   -0.6171094218   -0.3714258573
 C    1.3158312156   -0.6368035525   -0.2401358637
 C    0.7146841314   -0.6115249434    1.1578007603
 C    1.3694181380    0.1263177389    2.2813643132
 C    0.7178598182    0.1739681735    3.6429652143
 C    1.9717495038   -0.6390483854    3.4353578405
 H    0.7990989633    2.0709262597    0.2512895432
 H   -0.2819367037    1.8661068271   -1.1288885616
 H   -0.9511849706    1.9339010694    0.5111275156
 H   -1.2754514050   -0.4899926169   -1.3210343558
 H    1.2847141011   -1.5727295235   -0.7870083283
 H    2.1967221009   -0.0284237828   -0.4230651401
 H    0.2365265255   -1.5409600765    1.4572177799
 H    1.9101856327    1.0212203604    1.9865714292
 H    0.7858031820    1.0914508445    4.2172320733
 H   -0.2173957181   -0.3609396981    3.7709868878
 H    1.8797260680   -1.7202256463    3.4248680742
 H    2.8991318786   -0.2781231323    3.8664776435