14

 O   -0.0495837834    1.4237852715    0.0350759022
 C   -0.0007546008    0.0034678571    0.0128319148
 C   -1.4449868716   -0.5372824381   -0.0681765151
 C   -1.5018986864   -1.3685971464   -1.3585737778
 O   -2.4571595093   -1.9827344785   -1.7602392674
 C   -0.1665150453   -1.2644035534   -2.0042527774
 C    0.6584584232   -0.5282254848   -1.2593602868
 C    0.7270463340   -0.4917192586    1.2011955704
 N    1.3320784201   -0.8541861122    2.1169312679
 H    0.8490466561    1.7664337307    0.1119325471
 H   -1.7319156589   -1.1455062642    0.7912203978
 H   -2.1357309788    0.3066957481   -0.1326448736
 H    0.0547870041   -1.7326717332   -2.9546611239
 H    1.6918912670   -0.2867398881   -1.4823261181