19

 C   -0.2676737075    1.4939971161   -0.0330912630
 C    0.1451150357    0.0158676725    0.0160330014
 C    0.8047411864   -0.4344587495   -1.2547485890
 C    0.0396338009   -0.9001857043   -2.5066576845
 C    0.9578622868   -0.7392861126   -3.7228341678
 C    2.0938755243   -1.2575979714   -2.7957586893
 C    0.9770772619   -1.8595173535   -1.8465431552
 C    2.2040930092   -0.1635679800   -1.7162230731
 O    3.1176127362    0.4617936866   -1.2500883864
 H    0.6053357598    2.1301985785   -0.2053048629
 H   -0.9840377108    1.6774327173   -0.8405077591
 H   -0.7320531591    1.8017438918    0.9084633041
 H    0.8395540581   -0.1412773414    0.8499616737
 H   -0.7314381963   -0.6129868628    0.2161223892
 H   -1.0436630763   -0.9051505271   -2.4820489404
 H    0.7088476571   -1.4627556658   -4.5038269913
 H    1.0848930539    0.2565171665   -4.1619920613
 H    2.9780102098   -1.7614484518   -3.1756906099
 H    0.8710322898   -2.8039331591   -1.3352572553