18

 O   -0.1818534031    1.4895356539   -0.1927495750
 C   -0.1698271447    0.0783840317   -0.1946038312
 C   -1.4259968654   -0.5385114052    0.3314154369
 C   -2.5746253293    0.1420340467    0.5743369345
 C   -3.1912463119    0.7059480153   -0.7346981828
 C   -3.9136590484   -0.6957324303   -0.7680813782
 C   -3.7281522284   -0.8854220336    0.6851106923
 N   -3.2539254136   -1.9445381398   -0.1814181866
 C   -1.7875212612   -1.9942139668    0.0559834778
 H   -0.6900721884    1.7604256470    0.5824194057
 H   -0.0036034844   -0.2377224561   -1.2361936182
 H    0.6916973814   -0.3189981258    0.3746624581
 H   -3.9598483550    1.4780756422   -0.6184322703
 H   -2.4926048571    0.9917629920   -1.5228120977
 H   -4.7914258407   -0.9190069655   -1.3655713343
 H   -4.4362284731   -1.0390922635    1.4910667590
 H   -1.2375932869   -2.3461809338   -0.8251364189
 H   -1.6148624598   -2.7194668784    0.8614670793