18

 C    0.1010622096    1.4893452164    0.1430017101
 N    0.0725183527    0.0305110132    0.0689755243
 C   -0.0947424138   -0.6782757023    1.2559036750
 O   -0.1841258740   -0.1528976457    2.3411690019
 C    0.2192383663   -0.6549587631   -1.1480222442
 N    0.5028570742   -1.8987412107   -1.1381487461
 C    0.0047868193    0.1980565588   -2.3662882365
 C    1.1905648063    0.7001597411   -3.1250718824
 N    0.2928987197   -0.3025985749   -3.7077999998
 H    0.9540475756    1.8891422702   -0.4090934423
 H   -0.8186599270    1.9363728699   -0.2483999801
 H    0.1909646176    1.7478763847    1.1975233786
 H   -0.1418070863   -1.7602272321    1.0818003498
 H    0.4754657653   -2.2937079276   -2.0759191204
 H   -0.8732196113    0.8371582940   -2.3222455559
 H    1.1579243298    1.6819159288   -3.5881806978
 H    2.1716575068    0.3808260274   -2.7833661811
 H    0.7308736990   -1.2208351083   -3.6674595031