21

 C   -0.1922931948    1.5399068246   -0.1545009367
 C    0.0383552827    0.0479514501   -0.0141230790
 C    1.3827947336   -0.6215311590   -0.1739721901
 C    2.6244120657    0.2245759949    0.0534902869
 O    2.4269167600    0.8976798624    1.2968672310
 C    1.5726583920    0.0966401984    2.1261229888
 C    0.9208113073    1.0319042451    3.1374759243
 O    1.8947314201    1.6995133511    3.9178091376
 C    0.6741179491   -0.6616568398    1.1659411171
 H    0.6445545551    2.1244611710    0.2291668178
 H   -0.3361300996    1.8008545150   -1.2092060667
 H   -1.0958416725    1.8468580047    0.3837025493
 H   -0.7702902088   -0.5401969600   -0.4437689820
 H    1.4790275865   -1.5027059421   -0.7982894678
 H    3.5155728753   -0.4210643584    0.0947765456
 H    2.7956187179    0.9946077733   -0.7067308706
 H    2.1851884411   -0.6315658801    2.6853669941
 H    0.2627794121    1.7423465055    2.6166432024
 H    0.3038060209    0.4478066055    3.8287662966
 H    2.5165897240    2.0854179744    3.2900160011
 H    0.2172938124   -1.5746455768    1.5313590003