19

 C   -0.0536105492    1.6462637406    0.1080883444
 C    1.4440680985    1.3254466536    0.0056031890
 C    1.7315079345    0.6993753973    1.4054220682
 C    0.5849427792   -0.3357879647    1.3514616253
 O   -0.4966311767   -0.3062772891    2.2629807907
 C   -1.6254806058   -0.8310068623    1.5240071792
 C   -1.3103856855   -0.7381642855   -0.0173942927
 C   -0.0655865018    0.1058774511    0.0407148702
 O    1.0881108446    0.1679641749   -0.8497732923
 H   -0.4361266693    2.1439075616    1.0014798593
 H   -0.4512349110    2.0820031463   -0.8094429199
 H    2.1816076682    1.9867471248   -0.4476631645
 H    2.7140654116    0.2295783688    1.4730395981
 H    1.6286105135    1.4309223518    2.2104505480
 H    0.9835695923   -1.3565571169    1.2555727836
 H   -1.8081977818   -1.8719593285    1.8182847834
 H   -2.5013265708   -0.2384773785    1.8028307123
 H   -1.0941773702   -1.7271219735   -0.4320828749
 H   -2.1341841902   -0.2980665320   -0.5829293475