25

 C   -0.0892762934    1.5338492585   -0.1563736554
 C   -0.0644727804    0.0815314524    0.3366192803
 C   -1.4149249040   -0.5918235173    0.2031868740
 C   -1.8767075641   -1.2014493988   -1.1105729101
 C   -1.6272904127   -2.0768737729    0.0977762642
 C   -0.4752899517   -3.0658268041    0.1154335410
 C   -0.0192285468   -3.4270921520    1.5339794872
 O   -2.7712840694   -2.5029427861    0.8010671193
 C   -3.4962488808   -3.5455297780    0.1794625242
 H    0.8926538642    2.0058929476   -0.0518937115
 H   -0.3794657088    1.5847218592   -1.2110019287
 H   -0.8096334843    2.1309992808    0.4133281387
 H    0.6937818553   -0.4757079070   -0.2255771957
 H    0.2550830369    0.0593506512    1.3865940589
 H   -2.2095903412   -0.1023317384    0.7615284814
 H   -2.9042786109   -1.0362438896   -1.4148926373
 H   -1.1641932958   -1.2479436947   -1.9293258034
 H   -0.7758236400   -3.9762881673   -0.4190609326
 H    0.3610978536   -2.6533324868   -0.4576806000
 H   -0.8571321662   -3.8097552391    2.1229489253
 H    0.7641781114   -4.1908391631    1.5134103541
 H    0.3772642951   -2.5507448405    2.0566107180
 H   -4.4102371038   -3.6853177093    0.7622724715
 H   -3.7677094538   -3.2917676574   -0.8551221796
 H   -2.9431719289   -4.4953316775    0.1686890363