11

 O    0.0001781576   -0.0676130854    0.0033899816
 C   -0.0128118324    1.1297532650    0.0070134996
 C    1.1467899767    1.9784510676    0.0013149874
 C    2.1708293398    2.6068145427   -0.0040713199
 N   -1.2582941968    1.8524034132    0.0181738765
 N   -2.4520936042    1.2545538835    0.0249175893
 C   -3.2589129289    2.2940627145    0.0339992615
 N   -2.5913640590    3.4881978962    0.0327489045
 N   -1.3308400798    3.1977264340    0.0227045366
 H    3.0698530939    3.1752686611   -0.0086428240
 H   -4.3337640370    2.2126082375    0.0415201069