16

 O    0.0130430010   -0.0597090560    0.2090893976
 C   -0.0116715136    1.1189505625   -0.0307677428
 N   -1.1998937312    1.8293796833   -0.1698777264
 C   -1.2714749369    3.2319331071   -0.1007437112
 C   -0.1848832393    3.8913409499   -0.4764999226
 C    0.5640428365    5.1793919392   -0.2203164443
 C    1.8517470018    4.2862433900   -0.0919520408
 C    1.0707546046    3.1275547006   -0.7742002604
 O    1.1352272303    1.8363572171   -0.1525367889
 H   -2.0128673652    1.2718510191    0.0348103525
 H   -2.1813383996    3.6535509380    0.3102966521
 H    0.6095001097    5.8413201109   -1.0916015043
 H    0.2748840498    5.7714663637    0.6505927587
 H    2.7595175547    4.6336111310   -0.5884640951
 H    2.0676208774    4.0351022649    0.9478422158
 H    1.3171316800    3.0094541585   -1.8371630699