23

 C   -0.0239947575    1.5316497143    0.4245720307
 C    0.0126339994    0.1360202098   -0.2096831358
 C   -1.3409239248   -0.5433359677   -0.1778408851
 C   -1.5335040339   -2.0298151504   -0.3007995734
 C   -0.3956160290   -3.0152680481   -0.4703618399
 C   -0.7978742076   -4.4398730805   -0.0702500266
 C   -1.8074474576   -1.3445639354    1.0415404927
 C   -0.9363728585   -1.5500352398    2.1605010247
 C   -0.2182798100   -1.7216330415    3.1120501635
 H    0.9549560032    2.0174566461    0.3666164751
 H   -0.7483269024    2.1792184393   -0.0822291814
 H   -0.3091684872    1.4702539677    1.4793444794
 H    0.3482646199    0.2115981951   -1.2522368318
 H    0.7543683679   -0.4753125914    0.3121607979
 H   -2.1311949967    0.0580539551   -0.6231860090
 H   -2.4407766692   -2.3314503271   -0.8208005693
 H   -0.0677992676   -3.0033244912   -1.5180592524
 H    0.4653434072   -2.7046152793    0.1283565797
 H   -1.0807967451   -4.4800790082    0.9861509837
 H   -1.6514665412   -4.7919850538   -0.6603745434
 H    0.0272656940   -5.1416529188   -0.2263284811
 H   -2.8533753107   -1.2314442228    1.3121538007
 H    0.4112630472   -1.8727503616    3.9533122712