14

 O   -0.0654167578    1.3272933626   -0.1698189070
 C    0.0739685186   -0.0078899601   -0.0625499145
 N    1.2012947542   -0.5482960534    0.1947268724
 N    1.1718197232   -1.9305257965    0.2714204211
 C    0.0931800546   -2.7779675937    0.1056123487
 N    0.1184402166   -4.0522887819    0.1859370624
 C   -1.2082928997   -2.0812897113   -0.1955811420
 N   -2.2781904484   -2.7410660476   -0.3701985027
 N   -1.0996477500   -0.6871714616   -0.2565001999
 H    0.8083583094    1.7113448793   -0.0185312531
 H    2.0716449762   -2.3329790748    0.4742875850
 H    1.0605914383   -4.3905066521    0.3942686966
 H   -3.0720115317   -2.1273089516   -0.5651932293
 H   -1.9278524634   -0.1446970473   -0.4533471479