13

 N    0.0044040278    1.2409298409    0.2216308432
 C   -0.0238232770    0.0131466207   -0.0352261136
 O   -1.0765960023   -0.7243526524    0.4543688909
 C   -1.0973030072   -2.0435819208    0.2106297667
 C   -2.1215308142   -2.8595637090   -0.0548697381
 N   -1.5616486451   -4.1478102967   -0.1096642219
 C   -0.2104562335   -4.1038913880    0.1054138076
 O    0.6144175588   -4.9717578821    0.1213305120
 O    0.0767584821   -2.7475708156    0.3190101223
 H    0.8279643678    1.6682044831   -0.1974071417
 H    0.6909776541   -0.5837609075   -0.6055484105
 H   -3.1666761563   -2.6563437921   -0.1968719259
 H   -2.0479831250   -5.0097447904   -0.2807304510