18

 C   -1.1810708295   -0.0745786657    0.8310534657
 N    0.0587013479   -0.0728722922    0.0667328480
 C    1.1215862825    0.6824022900    0.4764712177
 O    1.1582468361    1.3676430696    1.4763701888
 C    0.0915022904   -0.7611500607   -1.1846238162
 C    1.1768538492   -1.7567310123   -1.5503910325
 C    1.5189934058   -2.6099461061   -0.3317452629
 O    0.1168544251   -2.9256352997   -0.1058133838
 C   -0.2425353249   -2.2212283263   -1.2882475886
 H   -1.9970480105    0.3824611247    0.2582968775
 H   -1.4555620772   -1.1004618852    1.0908281574
 H   -1.0113779901    0.5074710005    1.7368208280
 H    1.9739377542    0.5908880541   -0.2242677516
 H   -0.2593729509   -0.1947111195   -2.0494341089
 H    1.7534980626   -1.6862917912   -2.4621218265
 H    2.0727461698   -3.5179657899   -0.5909312622
 H    1.9799094967   -2.1188039735    0.5307310514
 H   -1.0210277671   -2.6374895366   -1.9171058812