16

 C   -0.0813717517    1.6266434790   -0.0500696747
 C    0.1407362397    0.1175821847    0.0316523065
 C    1.3895361994   -0.6978253676   -0.2157591325
 C    2.6774681938   -0.1670960587    0.4744080049
 N    2.3763928850    1.1100692398    1.1728680110
 C    2.0169223136   -0.1930872078    1.7910799292
 C    0.7020867667   -0.7248356460    1.1545259326
 H    0.6982779778    2.1217856880   -0.6304007686
 H   -1.0456456051    1.8281115871   -0.5302881660
 H   -0.0888064284    2.0908037214    0.9370083794
 H   -0.6965630184   -0.4324545629   -0.3992243801
 H    1.4259883370   -1.4869795271   -0.9568970242
 H    3.6890667172   -0.4271671763    0.1916123314
 H    3.2449415222    1.4132062066    1.6145834172
 H    2.3993245415   -0.4779243545    2.7624595648
 H    0.1424005399   -1.5374026356    1.6015880992