19

 C   -0.0904340119    1.4293861055   -0.0035627837
 C   -0.0371794659   -0.0675117823   -0.0643074956
 C   -0.9902890699   -1.0048514384    0.7046283744
 C    0.5045545693   -1.0552027900    0.9442067506
 C    0.5703025366   -2.0963295141   -0.2143218017
 C   -1.0002799373   -2.2398559786   -0.2275828047
 C   -1.0210032350   -1.6928796244   -1.6760529113
 O   -2.1247797025   -0.9671283141   -2.1494439751
 C    0.2929003329   -0.9715865482   -1.2828408559
 H    0.8728407328    1.8749118514   -0.2770289594
 H   -0.8453151003    1.8363732467   -0.6874795371
 H   -0.3380931221    1.7730904974    1.0068865878
 H   -1.7670715694   -0.6321416979    1.3606964972
 H    1.0825891836   -0.9071012816    1.8472571134
 H    1.2701384152   -2.9167993841   -0.3428201002
 H   -1.5418911386   -3.1337784128    0.0785205499
 H   -0.8303641740   -2.4897793897   -2.4023790443
 H   -2.3364966824   -0.3053508935   -1.4815533328
 H    1.0208151491   -0.6210163812   -2.0139529416