19

 C   -0.1245049944    1.4745499672   -0.0031428597
 C   -0.0162200304   -0.0147895734   -0.0921966838
 C    0.9180363589   -0.8426692936   -0.9759171524
 C    0.1014918339   -2.0739306890   -0.5058094727
 C    0.4055001729   -2.1038974044    0.9976233861
 N   -0.3273956623   -0.8075999227    1.1649731614
 C   -1.0632124155   -1.0710132587   -0.1133459662
 C   -2.5456792489   -1.0789785742   -0.2667375678
 H    0.7837850153    1.9066631471    0.4324580594
 H   -0.2670257991    1.9186824519   -0.9944983717
 H   -0.9661313746    1.7644284657    0.6317180123
 H    0.7490199146   -0.6131601848   -2.0319178368
 H    1.9944353901   -0.8393682687   -0.7657563964
 H    0.0328905073   -2.9725566408   -1.1173638814
 H   -0.1376055562   -2.8801834035    1.5436808114
 H    1.4558483648   -2.0971890510    1.3145424886
 H   -2.9805702603   -0.2027244935    0.2241964060
 H   -2.8363105519   -1.0588209425   -1.3231348826
 H   -2.9912685942   -1.9717777408    0.1868625464