19

 C    0.1446180696    1.5427917474    0.0443835896
 C    0.0347812018    0.0215729662   -0.0010172562
 C   -1.4169928773   -0.4376268224    0.2166959963
 C    0.6916099244   -0.7690397575   -1.1890024715
 C    2.0309094540   -0.2423832842   -1.7204087822
 O    2.7691619508   -0.8890107461   -0.6529606182
 C    1.5811959026   -1.5743642760   -0.1861498230
 C    0.9579537910   -0.7621733334    0.9699180708
 O    1.1183190607   -0.7290628759    2.1544814165
 H    1.1760858391    1.8862797257   -0.0694189178
 H   -0.4614833319    2.0048649755   -0.7429020705
 H   -0.2166945723    1.9113766912    1.0094685849
 H   -2.0665596255   -0.0196400097   -0.5601142690
 H   -1.5096959354   -1.5285175946    0.1813780100
 H   -1.7809250242   -0.1022796324    1.1921699121
 H    0.0040874613   -1.2301477364   -1.8958139640
 H    2.3137125626   -0.6600360162   -2.6947751009
 H    2.1868331704    0.8410694586   -1.7384367451
 H    1.7019581981   -2.6586359896   -0.1195321017