17

 C    0.0722588006    1.5233828780   -0.1572694331
 C   -0.8796380424    0.7436054981    0.7521036781
 C   -1.2052936583   -0.6467527352    0.2017968028
 N   -2.1656163635   -1.3233148194    1.0680443542
 C   -2.0628647993   -2.5461051989    1.2716940955
 O   -2.9279001538   -3.2530459324    2.0935560452
 C   -2.4732776337   -4.5186580259    2.0647585988
 N   -1.4458828489   -4.7314806462    1.3382511189
 O   -1.1509645664   -3.4525392448    0.7896256625
 H    0.2906155293    2.5127764086    0.2551966974
 H    1.0259051135    0.9983105468   -0.2825287466
 H   -0.3583707560    1.6670955119   -1.1547119371
 H   -0.4420879516    0.6342499912    1.7516171640
 H   -1.8182836474    1.2931101061    0.8853082844
 H   -1.6565918772   -0.5430510014   -0.7948259666
 H   -0.2801347548   -1.2257182228    0.0719863649
 H   -2.9909991701   -5.2666430338    2.6446098967