23

 C    0.1070251131    1.5251085011   -0.0838031831
 C    0.0036204860   -0.0004216785    0.0134442676
 C   -1.4329179200   -0.5290992907   -0.0009577455
 C   -2.2298806468   -0.2409471819   -1.3052943517
 C   -3.2797061624   -1.3453118809   -1.3916162939
 C   -2.8340250966   -2.6890968326   -1.9455166175
 C   -2.8597379546   -2.4756280811   -0.4678284580
 O   -3.7758509910   -3.2548798519    0.2429768683
 C   -1.5478350186   -2.0604886133    0.2096095300
 H    1.1499906781    1.8547591077   -0.0465057052
 H   -0.3247912153    1.8986310330   -1.0179935656
 H   -0.4241895914    2.0103879079    0.7429866278
 H    0.5586259455   -0.4611814362   -0.8156735788
 H    0.4992458172   -0.3378533608    0.9331237229
 H   -1.9825082159   -0.0477650304    0.8211541092
 H   -2.6875606162    0.7521914444   -1.2871891741
 H   -1.5599852675   -0.2619300942   -2.1758390051
 H   -4.3270023017   -1.0873842749   -1.5035238127
 H   -3.6128815494   -3.3294507652   -2.3450991157
 H   -1.8771730472   -2.7564153096   -2.4562929274
 H   -4.0879876077   -2.7364727178    0.9930358581
 H   -0.6897534512   -2.5834164083   -0.2320639913
 H   -1.5661365765   -2.3292941261    1.2704123815