14

 O   -0.6849235022    2.9176117295   -0.6362179602
 C   -0.0153189870    1.9330309109   -0.4564231959
 C    1.4595452292    1.9697444751   -0.0823305007
 C    2.2945911645    1.7962659972   -1.3588072191
 O    2.4466494436    0.7213143833   -1.8877165060
 C    2.8935675867    3.0381144815   -1.9577189347
 C    2.1160899188    4.2962836766   -2.0333573730
 O    3.1636587548    4.1364213003   -1.0864006053
 H   -0.4371958741    0.9154674270   -0.5883984911
 H    1.6946190420    2.9170873887    0.4038628326
 H    1.6896331820    1.1237047842    0.5703313290
 H    3.6478438804    2.8341860807   -2.7149802792
 H    2.3265266155    4.9741368084   -2.8583127045
 H    1.1100936658    4.3355087666   -1.6203632720