16

 O   -0.0097977202    1.4353628969    0.0564973720
 C    1.2770348239    0.8078907672    0.0345751458
 C    0.0400963887    0.0044396834    0.0458976228
 C   -0.0317264739   -0.6253886350   -1.3390955282
 C   -0.2319815014    0.3237425993   -2.5179421490
 C    1.0629049580    1.1648387478   -2.5297938397
 C    1.0185569788   -0.1931313791   -3.1585362834
 N    1.4224761979   -0.7959259082   -1.8065726461
 C    1.8637880103    0.6058422250   -1.3564474956
 H    1.9004746311    0.9792822824    0.9070676613
 H   -0.3586602739   -0.4881330358    0.9277482597
 H   -0.5779907010   -1.5679758628   -1.3925020443
 H   -1.1430378669    0.6903933474   -2.9725136628
 H    1.0924066677    2.1424320073   -2.9929707342
 H    1.2670919678   -0.5894577616   -4.1315326056
 H    2.9462626330    0.7212031457   -1.4247710028