17

 O    0.0042547443    0.1746592456    0.1924216967
 C    0.9177937518    0.6716273645   -0.4142741023
 C    1.5855901797    1.9828971909   -0.0412747778
 C    1.6173862623    2.9549389253   -1.2137817664
 C    0.2363574130    3.4474096036   -1.6552262252
 C    0.2475391906    4.3946847401   -2.7605160146
 C    0.2466694171    5.1834340522   -3.6666550572
 C    2.8293682675    3.7408577690   -1.4783664350
 O    2.5127719996    2.5832147754   -2.2626958314
 H    1.3481338971    0.1846647081   -1.3168012820
 H    1.0681129602    2.4099361692    0.8229527197
 H    2.6197818275    1.7550583560    0.2444543021
 H   -0.3716649148    2.5741257811   -1.9282419131
 H   -0.2616324379    3.8966521556   -0.7857956867
 H    0.2416686931    5.8727448851   -4.4744683269
 H    2.7470819643    4.6869710985   -2.0072253507
 H    3.6879055745    3.6366183497   -0.8164912892