14

 N    0.2080823286    1.3013526754   -0.3792956297
 C    0.1055689290   -0.0479785708   -0.1260666185
 N   -1.0228160446   -0.6755264212    0.0875714232
 O   -0.6637555991   -1.9782811918    0.3790425200
 N    0.6842698104   -2.1435690846    0.3247613955
 C    1.1857721642   -0.9799578994    0.0245239722
 C    2.6641526302   -0.7410640087   -0.0948656586
 C    3.0230681389   -0.0231593339   -1.3172194427
 C    3.2922877167    0.5883316206   -2.3165511524
 H    0.9637231236    1.5435101150   -1.0070267668
 H   -0.6685276518    1.7340509027   -0.6355932011
 H    3.0115609683   -0.1656899044    0.7740708792
 H    3.1752920184   -1.7083001669   -0.0548655965
 H    3.5565612171    1.1040865181   -3.2070597139