15

 N   -0.0072027445    1.3334877515    0.0097959561
 C    1.2460631919    1.8781089876    0.0004529577
 C    2.1431309294    0.8165151240   -0.0141843127
 C    3.5523008913    0.6941814243   -0.0286925084
 C    4.0733849077   -0.5723470549   -0.0407967616
 C    3.2049222369   -1.7072976198   -0.0385320264
 N    1.8943806915   -1.6557769803   -0.0253790161
 C    1.3586683807   -0.4039851348   -0.0132142367
 C    0.0184396031   -0.0324698428    0.0020313870
 H   -0.8541250068    1.8772328880    0.0211349023
 H    1.3938711500    2.9453612636    0.0048678074
 H    4.1932735017    1.5706328460   -0.0301564329
 H    5.1453990747   -0.7354144444   -0.0522240596
 H    3.6495394039   -2.7014090409   -0.0483817567
 H   -0.8828123115   -0.6213862971    0.0076504805