17

 O   -0.0371044279    1.4376826367   -0.0289909928
 C    0.0374142242    0.0258538700    0.0092143057
 C    0.6247613790   -0.5680618180    1.3288705282
 C   -0.6028360663   -1.3000558219    1.9061811046
 C   -1.6479806018   -0.2965274695    2.4269088312
 C   -2.2022174731    0.2422884766    1.0922783073
 O   -3.0800838721    1.0390870324    0.9222401779
 C   -1.4036730756   -0.5516674975    0.0400500539
 O   -1.2364212152   -1.8048719490    0.7071613835
 H    0.8538870629    1.7894686021   -0.1147858541
 H    0.5702834338   -0.3650275925   -0.8662573782
 H    1.4305867961   -1.2767288008    1.1251568108
 H    1.0061439955    0.2224896123    1.9802594923
 H   -0.3856233356   -2.1343309094    2.5719373122
 H   -2.4449202201   -0.7996014102    2.9823115598
 H   -1.2556234379    0.5160178584    3.0429587412
 H   -1.8983599759   -0.6728122197   -0.9207227134