16

 C    0.8220838295   -0.4891041828    1.2879371652
 C    0.3183350481    0.1025371399   -0.0014948845
 N    0.1869117769    1.3708780196   -0.0884740797
 N    0.0201332282   -0.7734187712   -1.0394494014
 C    0.0958561764   -2.1531748566   -1.1350060395
 N   -0.2686205124   -2.7197577555   -2.2909265681
 N   -0.0840234456   -4.0186807423   -2.0611409357
 N    0.3646511945   -4.3499165997   -0.8688187504
 C    0.4928012386   -3.1772961476   -0.2441324011
 H    0.0892429707   -1.1747741870    1.7249936599
 H    1.7542729231   -1.0422368297    1.1352330659
 H    1.0026288236    0.3301788270    1.9816159228
 H   -0.1610736663    1.6552984809   -1.0073429012
 H   -0.3152944335   -0.3421301995   -1.8891642505
 H   -0.2795783493   -4.7083959140   -2.7676452604
 H    0.8482682374   -3.1351096916    0.7686249884