14

 C   -0.0301863484    1.4250231901   -0.0435132925
 N   -0.0259022082   -0.0203716715    0.0218714859
 N   -0.1560653068   -0.7512338917   -1.1162040502
 C   -0.1408289001   -1.9892288916   -0.6547555570
 N   -0.0127418038   -2.1048121593    0.6934892706
 C    0.0552253352   -0.8435516397    1.0953206597
 C    0.2001494265   -0.3882599660    2.5088437166
 H    0.3158438724    1.8310898134    0.9079347657
 H    0.6394698266    1.7519724470   -0.8411924057
 H   -1.0364251309    1.8025919922   -0.2499594641
 H   -0.2215854495   -2.8399037437   -1.3152102967
 H    1.1091777171    0.2051175596    2.6563365423
 H   -0.6510062305    0.2207341953    2.8320200830
 H    0.2566787404   -1.2693569941    3.1485724924