19

 C    0.0235998786    1.5046722488    0.0348782792
 C   -0.0621146360   -0.0020831809   -0.0151041364
 C   -1.2522860285   -0.6247495410    0.0486050104
 C   -1.4511986985   -2.1168807541   -0.0320688787
 C   -0.6271801686   -2.9519539574    0.9788691029
 C    0.3749918885   -3.0609873639   -0.1948843319
 O   -0.6868544805   -2.7085695708   -1.1237595284
 C    1.4621027840   -2.0148133628   -0.1801301449
 C    1.2351637904   -0.6948908058   -0.1215431486
 H    0.6484118453    1.8366959885    0.8735266758
 H    0.4868780782    1.9020389128   -0.8768615550
 H   -0.9622452898    1.9629504370    0.1416653303
 H   -2.1510179883   -0.0202515629    0.1426128814
 H   -2.5127207962   -2.3631127793   -0.1259669748
 H   -0.2952397159   -2.4705067201    1.8988706989
 H   -1.1037641480   -3.9095096848    1.1930245825
 H    0.7792891689   -4.0519774004   -0.4200059761
 H    2.4887002052   -2.3673772517   -0.2343539972
 H    2.1013666912   -0.0365676714   -0.1378810094