21

 C   -0.1587345912    1.4326145932    0.0432250671
 C   -0.1050372642   -0.0919036382    0.1668012115
 C    0.8622336170   -0.5546260894    1.2475408194
 O    0.8430538715   -1.9657062344    1.3026275818
 C    1.7176407216   -2.4999789289    2.2720758014
 C    1.6594539796   -4.0015214837    2.2099727553
 C    1.8494941035   -4.7905221456    3.4523702754
 N    0.5286936734   -4.7255718503    2.8070102612
 H    0.8226562547    1.8485442129   -0.2106480221
 H   -0.8597841161    1.7386866337   -0.7384537077
 H   -0.4830147788    1.8986536158    0.9803498041
 H   -1.0993424165   -0.4909742866    0.3975120141
 H    0.1976742102   -0.5413842339   -0.7857646106
 H    1.8831978520   -0.1933670248    1.0302578311
 H    0.5760458596   -0.1288833567    2.2259721182
 H    2.7504123646   -2.1527206361    2.0915612121
 H    1.4337393304   -2.1548362650    3.2834585400
 H    1.9933257824   -4.4237844516    1.2647400316
 H    2.3342133771   -5.7615453994    3.4108239480
 H    2.0087157384   -4.2476283031    4.3812743308
 H   -0.0715125891   -4.0700994979    3.3027824973