23

 C   -0.2709860926    1.6072425217    0.1606494769
 C    0.0779716385    0.1281577927   -0.0249157623
 C    0.6793130917   -0.5102767338    1.2316514332
 C    1.0303864172   -1.9933680593    1.0483753331
 C    1.6445500717   -2.5948262787    2.2979532249
 C    0.8131403202   -3.2164755598    3.3682606793
 C    1.7466333582   -4.1028899478    2.5469860361
 C    1.1550007473   -5.0841684327    1.6128394379
 O    1.6526710566   -6.1493494905    1.3380734992
 H    0.6174041558    2.1944074377    0.4186560475
 H   -0.6984955457    2.0345847690   -0.7516503101
 H   -1.0012242748    1.7437859513    0.9660585813
 H   -0.8229041021   -0.4276922992   -0.3170931230
 H    0.7838948344    0.0186730394   -0.8587111724
 H    1.5828451491    0.0429351565    1.5238483729
 H   -0.0232698245   -0.4053266574    2.0692495861
 H    0.1249408077   -2.5427395222    0.7653863541
 H    1.7289560340   -2.1015279807    0.2081056182
 H    2.5260188363   -2.0602610412    2.6451667103
 H    1.0660705739   -3.0652176915    4.4112797475
 H   -0.2506869566   -3.3270075755    3.1770982896
 H    2.6550465457   -4.4560569593    3.0229059750
 H    0.1771133478   -4.7825092885    1.1717386247