19

 O   -0.2596255711    1.4269626208   -0.1089675231
 C   -0.0158519949    0.0501874848   -0.0016203638
 C    0.2620775965   -0.6027286949    1.4173718963
 C   -0.6876656319   -1.7796880892    1.0050821526
 C   -1.9525148664   -2.2372385213    1.7589967707
 C   -3.1269765148   -1.9347860739    0.7651712588
 O   -4.3363994802   -1.5670704970    1.4093980892
 C   -2.5534971537   -0.8338018583   -0.1293637929
 C   -1.2296040881   -0.8337771740   -0.0346218895
 H    0.5836328586    1.8793189784   -0.2077036420
 H    0.7549491864   -0.2814185330   -0.7138696765
 H    1.3003952970   -0.8381127126    1.6659637710
 H   -0.1810102778    0.0227460530    2.1964583804
 H   -0.1147766424   -2.6212749353    0.6009142589
 H   -1.9329419220   -3.2816520962    2.0818734110
 H   -2.1097909562   -1.6199554631    2.6522689825
 H   -3.3964782040   -2.8317872786    0.1928285523
 H   -4.1738186168   -0.7356148963    1.8699663427
 H   -3.1899685184   -0.1362582033   -0.6600527887