18

 C   -0.1002831475    1.5833800405   -0.0031388307
 C    0.0088819800    0.0581076688    0.0042431436
 C    0.8466671213   -0.5313432793   -1.1602487155
 N    1.5928370158   -1.6974647439   -0.6229037173
 C    1.2149894109   -1.9362951568    0.7446744000
 C    2.6083845491   -1.4106877466    0.4178663624
 C    2.2589592670   -0.1694211253    1.1923965573
 O    2.9159882127    0.6617955940    1.7560866169
 C    0.7490447866   -0.5309901710    1.2191410398
 H    0.8862701920    2.0501118257    0.0816616660
 H   -0.5665463063    1.9377060274   -0.9282163124
 H   -0.7102480958    1.9399043446    0.8328034608
 H   -1.0006482617   -0.3722351015   -0.0237474040
 H    0.2187774374   -0.8847169585   -1.9828882823
 H    1.5555993188    0.1967083466   -1.5670457404
 H    0.9372335111   -2.9149325256    1.1142580456
 H    3.5665836848   -1.9128683038    0.3481705071
 H    0.2621945940   -0.4066856054    2.1862906231