16

 O    1.4014227987    1.5685659561   -0.5857116672
 C    0.4628803582    0.7596868882    0.0653227211
 C   -0.0195239941   -0.3431684888   -0.8665716016
 O    0.4102051279   -0.4440846362   -1.9897206611
 C    1.0636953266    0.1641243313    1.3296129200
 C    1.0665502553    0.9570191729    2.5984962664
 C    0.1802185293   -0.2741353086    2.4955646172
 C   -1.2469877536   -0.1275043793    2.4208252543
 N   -2.3972294678   -0.0204243377    2.3484639320
 H    1.4828785056    1.2019146863   -1.4814113766
 H   -0.4313282204    1.3437168903    0.3462188811
 H   -0.7798783601   -1.0375406593   -0.4606956128
 H    1.9244049982   -0.4722529429    1.1467441286
 H    1.9238343716    0.8887609617    3.2571822433
 H    0.5726963350    1.9218338959    2.5887682732
 H    0.4985165598   -1.1591421098    3.0355718221