20

 O    0.0040557829    1.4974674874   -0.0480963505
 C   -0.0352008755    0.0659343687    0.0082901785
 C    0.7443306611   -0.4428469307    1.1941840316
 C    0.1779885430   -1.0556367028    2.2356924211
 C   -1.2983520595   -1.3337037144    2.3427528320
 C   -2.1121767846   -0.4628595046    1.3745264437
 C   -1.4611453388   -0.4749262139    0.0071513923
 C   -2.2483860405   -0.3523486250   -1.2373908116
 N   -1.7600897849   -1.6763539930   -0.7985449510
 H   -0.1435142417    1.8214734128    0.8468880583
 H    0.4543753177   -0.2502274154   -0.9232625049
 H    1.8144210144   -0.2526102249    1.1784914406
 H    0.8036761926   -1.3929211842    3.0594392200
 H   -1.4820254786   -2.3938587208    2.1192443457
 H   -1.6327155909   -1.1813810903    3.3757287611
 H   -3.1423805148   -0.8214676608    1.3034152048
 H   -2.1497877424    0.5699260336    1.7465420403
 H   -3.3267434085   -0.2252833750   -1.1889533737
 H   -1.7750387054    0.1256191110   -2.0913134024
 H   -0.9469478655   -1.9421796777   -1.3503189160