17

 N   -0.1199306441    1.3615371881   -0.0015945021
 C   -0.1026251610   -0.0369138555   -0.0492591772
 C   -1.1682934061   -0.9243681676   -0.0309122225
 C   -2.6102997853   -0.5366765262   -0.0538047620
 O   -2.8949517332    0.4902179287   -1.0160799774
 C   -0.5884901819   -2.2375780529   -0.0100906607
 O   -1.2555479225   -3.4312261322   -0.0253077403
 C    0.7742635456   -2.1200019526   -0.0153784284
 N    1.0550244455   -0.7521140455   -0.0560255366
 H    0.5820129600    1.7860288628   -0.5976797444
 H   -1.0364455178    1.6938643175   -0.2843862740
 H   -3.2412765669   -1.4225390528   -0.2418032845
 H   -2.9499794531   -0.1101486966    0.8982113213
 H   -2.5182666030    0.1899574330   -1.8512935411
 H   -2.1749168100   -3.2718478198    0.2058770779
 H    1.5531842031   -2.8613098358   -0.0198830897
 H    1.9725101810   -0.3542334226    0.0369415419