17

 C   -0.0048066893    1.4923024686   -0.0352340662
 C    1.4399376782    1.9717332860    0.0661377656
 C    2.2342014969    1.4171363618    1.2111995313
 O    1.5882416462    0.4041451040    1.9551886278
 C    1.1082228342   -0.5178861061    1.0097533907
 C   -0.0000706801   -0.0367307172    0.0262713712
 O    0.7692735437   -0.5558221912   -1.0930510603
 C    1.9671884927   -0.4734166731   -0.2817757205
 C    2.5357236986    0.9325961861   -0.1926498790
 H   -0.6036776545    1.9040660261    0.7863876014
 H   -0.4627365728    1.8082083689   -0.9777943158
 H    1.6495610570    2.9908048111   -0.2412226481
 H    2.9055522752    2.0147275182    1.8153240328
 H    0.9313147001   -1.4795174720    1.4887000714
 H   -0.9981892951   -0.4795732533    0.0773209846
 H    2.6932914987   -1.2495685649   -0.5277622244
 H    3.4422519002    1.2042120971   -0.7172892824