17

 C    0.0086627541    1.5021457410   -0.0025693216
 C   -0.0113143610    0.0035170774   -0.0372079975
 C    0.5234496286   -0.9674773314   -1.1567483306
 C   -0.0017932607   -1.9560864454   -0.0624675873
 C    0.6647027553   -0.9985241033    1.0006612991
 C    2.1079551796   -0.9800931512    1.1107742752
 C    3.3030315250   -0.9476443841    1.2450600996
 C   -1.1891458366   -0.9855763346    0.0230786278
 O   -2.3797860579   -0.9854795268    0.0707213830
 H    1.0357614326    1.8805901248   -0.0004729352
 H   -0.5064945669    1.9153813428   -0.8754950931
 H   -0.4960688899    1.8779472244    0.8931405068
 H    0.0011195073   -0.9575660628   -2.1148981564
 H    1.6071767829   -0.9610816629   -1.2765677210
 H    0.0248415860   -3.0424882421   -0.0676193385
 H    0.2015073743   -1.0145051891    1.9912551111
 H    4.3583807674   -0.9278870366    1.3624615086