18

 N    0.9694364151    0.5669685533   -0.4242336664
 C    0.0040497069   -0.0559653474    0.3099088617
 O   -0.2956755171    0.3048157578    1.4323027250
 C   -0.6988463281   -1.2234562604   -0.3852463928
 C   -0.9197882044   -2.3838291820    0.5767577867
 C   -1.8752731103   -2.2987334602    1.7978842826
 C   -3.1119904565   -2.3736889420    0.8708530438
 C   -2.0681746426   -3.4221279136    0.4156686385
 O   -1.8709274896   -3.7864214142    1.8350100478
 H    1.4433498870    1.3574175957   -0.0184991936
 H    1.2329747920    0.2618067710   -1.3437164098
 H   -1.6483608093   -0.8335179889   -0.7674638369
 H   -0.1286630316   -1.5666808767   -1.2564510040
 H    0.0223016166   -2.8681036272    0.8468886946
 H   -1.7364521220   -1.7652157040    2.7347810537
 H   -4.0022014866   -2.7975097714    1.3361203839
 H   -3.3447040861   -1.5265230259    0.2227924371
 H   -2.1684632334   -4.2380279239   -0.3020539220