16

 O    0.3763595762    1.1873155868   -0.4647283812
 C    0.0500822423   -0.0687869085    0.0591117899
 C    0.1941223522   -0.2546621433    1.5828466291
 C   -0.6165512533   -1.5291229569    1.8209418724
 O   -1.6379442653   -1.5693217451    0.7989703808
 C   -1.4143390631   -0.5299428329   -0.1443056686
 C   -2.4632506282    0.5479316257    0.1213848431
 O   -2.2811503757    1.7427850325    0.0774036374
 H   -0.3577010383    1.7845664602   -0.2564737410
 H    0.7003964444   -0.7931626522   -0.4457088331
 H    1.2341611781   -0.3443838022    1.9014377881
 H   -0.2496063508    0.6050203714    2.0970703254
 H    0.0064822627   -2.4269633671    1.7191754496
 H   -1.1046138349   -1.5630867668    2.7997976284
 H   -1.5883186593   -0.9221211028   -1.1563841589
 H   -3.4514755670    0.1270973913    0.4052820385