17

 C   -0.0512068741    1.4049731774    0.0635051260
 N   -0.0525489932   -0.0491808705    0.0271146027
 C    0.5624896658   -0.6283511003   -0.9158300412
 N    1.2668287950   -0.0630733373   -1.9888421708
 C    1.6437108530   -0.9737613673   -2.9775825054
 O    2.1194491935   -0.6796446855   -4.0457941750
 C    1.3240195549   -2.3383958951   -2.4333956758
 C    2.0355847968   -2.6871037147   -1.1437277096
 C    0.6419995957   -2.1105751780   -1.0982982550
 H    0.9393716678    1.8051183388    0.3249414325
 H   -0.3532837367    1.8580299392   -0.8937238338
 H   -0.7536068193    1.7473445057    0.8269520067
 H    1.4173058038    0.9253262058   -2.1134330410
 H    1.0509013272   -3.1148220335   -3.1343958027
 H    2.1320668180   -3.7431522331   -0.9192745768
 H    2.8715383666   -2.0753504573   -0.8226775207
 H   -0.1816547446   -2.7097210342   -0.7363923301