18

 C   -0.0255543302    1.5701607461    0.1116353015
 N    0.0771487134    0.1314671539    0.1745915069
 C   -1.1496651798   -0.6918853146    0.2746754911
 C   -0.4250754155   -1.5990192415    1.2921156060
 N    0.5388145360   -2.5366477268    0.6612912695
 C    1.6892615482   -1.6482805908    0.9796497366
 C    2.6269206747   -1.4066094121   -0.1162364388
 N    3.3940481829   -1.2020243815   -0.9558144644
 C    0.6817345982   -0.5106961077    1.3433386110
 H    0.9749381398    2.0136752470    0.1076787836
 H   -0.5192439656    1.8599290940   -0.8214325290
 H   -0.5984102857    2.0104170257    0.9502376830
 H   -1.9959256720   -0.1546983321    0.7332024373
 H   -1.4698268105   -1.1558181833   -0.6634291415
 H   -0.9776882246   -1.9711763548    2.1549537725
 H    0.5962366682   -3.4520445835    1.0901903658
 H    2.2602802915   -1.9618031879    1.8640316902
 H    0.9213193008    0.1265787700    2.1981764688