20

 C    0.2530577021    1.6425525201   -0.1095888562
 N    0.1303960656    0.2035989512    0.0361322149
 C    1.1226805854   -0.7605252487   -0.3932378654
 C    2.5800977253   -0.3455100375   -0.5506293352
 C    3.0079025412    0.2775579270    0.8033928325
 C    1.9803555976   -0.2158888971    1.8564966392
 C    1.6863940706    0.8075967010    2.9318646145
 O    1.7335049024    0.5926173600    4.1157689066
 C    0.7372459484   -0.6327387596    1.0543130058
 H    1.2690334232    2.0538252697   -0.0375005319
 H   -0.1475720532    1.9222024571   -1.0898745671
 H   -0.3661786992    2.1286616053    0.6507261537
 H    0.7525448135   -1.5638976637   -1.0270757854
 H    3.1718566945   -1.2407243334   -0.7702309703
 H    2.7346443967    0.3459216642   -1.3863772580
 H    4.0239915302   -0.0098642588    1.0846821359
 H    3.0035457984    1.3709998859    0.7508217998
 H    2.3444405919   -1.1122919237    2.3706071559
 H    1.4079552917    1.8159227354    2.5462077221
 H    0.0543327437   -1.3182617145    1.5510299386