20

 C   -0.4556644461    1.5123514847   -0.4791320953
 C    0.0081610920    0.1470836496   -0.0045058185
 C    1.1123550814   -0.6042425080   -0.8518899535
 C    1.9376804876   -0.5598414098    0.4216622251
 C    2.9269937079   -0.9411647714    1.2966598190
 C    2.5311096006   -0.4120594147    2.5745772870
 C    3.3204537366   -0.5078843167    3.8478404890
 C    1.3093296171    0.2319456372    2.4303747780
 N    0.9959776055    0.1529149499    1.0986766583
 H    0.3998015701    2.1517369488   -0.7167349096
 H   -1.0745523628    1.4091528093   -1.3765886280
 H   -1.0560940812    2.0122174801    0.2878488898
 H   -0.8481262265   -0.4977445234    0.2234211000
 H    0.8160500700   -1.5968504373   -1.2019085141
 H    1.4932173734   -0.0281412166   -1.7010260054
 H    3.8214754169   -1.5099027538    1.0931905651
 H    4.2563164478    0.0620194382    3.7956108578
 H    2.7483337388   -0.1208886471    4.6964955869
 H    3.5917542196   -1.5448702552    4.0780644635
 H    0.7094239913    0.7617500459    3.1530900449