16

 O    0.0593193497   -0.0038742047    0.0709026047
 C   -0.0259581910    1.1909752478   -0.0397025991
 C   -1.3100302802    1.9936062454   -0.2816944819
 C   -0.8596868043    3.3482564116   -0.8716520405
 C    0.6368471850    3.4695999455   -0.5703586957
 C    1.0726185732    3.3664553590    0.8718804436
 C    0.1441878809    3.4743442756    1.9638701662
 N   -0.6049946878    3.5851958666    2.8385880240
 C    1.1420779805    2.1430559210   -0.0537989589
 H   -1.9738269930    1.4299392612   -0.9401011102
 H   -1.8282805631    2.1088874041    0.6757659746
 H   -0.9939931016    3.3543820473   -1.9572317579
 H   -1.4244867573    4.1934288216   -0.4686119364
 H    1.2495625718    4.0867227566   -1.2169339295
 H    2.0458283058    3.7887839601    1.1011839891
 H    2.1254994516    1.7391999914   -0.2571808322