18

 C   -0.2667825550    1.2960544951    0.0977784200
 O    0.2281070869   -0.0297867861   -0.0569227606
 C    0.8102342589   -0.5361941586    1.0594714204
 C    2.1567840895   -0.2557567402    1.8045488456
 C    1.5470246575   -0.7064717111    3.0834430336
 C    0.1869983816   -0.9815685781    2.4058939701
 C    0.9141873536   -1.9656114338    1.4935763761
 C    0.5273212153   -3.2608966962    0.8744543170
 N    2.2505852885   -1.7066988563    2.2056565329
 H    0.5445760468    2.0007211510    0.3228981868
 H   -0.7291228289    1.5734623409   -0.8513326846
 H   -1.0126648211    1.3467726868    0.9012408066
 H    3.0399085680    0.3348145220    1.5878541865
 H    1.8397760872   -0.5321062743    4.1127370655
 H   -0.8414565955   -0.9596432725    2.7373845847
 H   -0.4560099388   -3.1748382655    0.4013980768
 H    1.2504391676   -3.5549340995    0.1058903637
 H    0.4816583379   -4.0575094736    1.6246599590