21

 C   -1.7787226999   -0.7068184615   -0.6484422515
 C   -0.3770443054   -0.3301796279   -0.1510127739
 C    0.7418863960   -0.6109053708   -1.1433693830
 C    0.6665643606    0.1342425389   -2.4670381725
 O    0.7697527185    1.5437622659   -2.3208035505
 C    2.1144707095   -0.8892333647   -0.6043718022
 C    1.3161477648   -2.0269534966   -1.2304714207
 C    0.8068020436   -3.0960768751   -0.4231434488
 C    0.3811340398   -4.0050459149    0.2414888221
 H   -2.0681676906   -0.1414476430   -1.5408346666
 H   -1.8296157376   -1.7714941016   -0.8941924245
 H   -2.5278378796   -0.5029201272    0.1226885429
 H   -0.3451454218    0.7352564026    0.1148582375
 H   -0.1704424169   -0.8758975967    0.7747787988
 H    1.5110811398   -0.1586101231   -3.0998605830
 H   -0.2510501461   -0.1406055206   -3.0081522098
 H   -0.0455217014    1.8626359723   -1.9224099969
 H    2.9741275877   -0.5229059830   -1.1550891671
 H    2.2444914536   -0.9187001371    0.4715826618
 H    1.6404299309   -2.3361539980   -2.2211589251
 H    0.0090290245   -4.8063634379    0.8300135032