17

 O   -0.5154861758    1.0378347318   -1.2521827370
 C   -0.0956208106    1.3433036254   -0.1698152518
 O   -0.8868685185    1.2226102618    0.9677404977
 C   -1.6917353275    2.3543944002    1.2609109607
 O   -0.9390262944    3.5153676276    1.4247636536
 C   -0.0721932711    3.5337388279    2.5479076551
 C    1.0321662881    2.4485675820    2.5463397529
 C    1.7562902686    2.3126908019    1.2312892043
 C    1.2749615657    1.8246330097    0.0792868471
 H   -2.3815132489    2.5564596078    0.4347432087
 H   -2.2417303858    2.0810494583    2.1712023881
 H    0.3817409799    4.5284112854    2.5296558579
 H   -0.6539015993    3.4418909633    3.4782372440
 H    1.7459444790    2.7181498353    3.3320937826
 H    0.5909458646    1.4887794255    2.8223688639
 H    2.7852166965    2.6665111521    1.2154876614
 H    1.9058415895    1.7961611641   -0.8032643691