17

 N   -0.0210841492   -1.1271249735   -0.1953866986
 C   -0.0095306013    0.0264356725   -0.1265817167
 C    0.0293455469    1.4829111460   -0.0332673463
 C    1.4538229560    2.0251767683    0.1992860595
 C    1.4532210280    3.5440716455    0.2409901746
 C    2.8064715334    4.2738292955    0.0906875276
 C    2.1645326007    4.9035722898   -1.1621674508
 O    0.9625045166    4.1188474144   -0.9943496056
 H   -0.3695230092    1.9130487875   -0.9579115408
 H   -0.6368982139    1.7983412555    0.7784797185
 H    1.8589685700    1.6330063069    1.1391751856
 H    2.1077215565    1.6825350005   -0.6096201859
 H    0.8508114081    3.8961908028    1.0918599310
 H    3.0691114903    4.9630502533    0.8937853345
 H    3.6527195918    3.6131717216   -0.1082286841
 H    1.9589761041    5.9784447325   -1.0910675748
 H    2.6560201714    4.6989608509   -2.1198057174