19

 C   -0.1361472902    1.5266006221   -0.0356366396
 C    1.4035791240    1.4088845008    0.0479014075
 O    1.2061744589    0.2037986086    0.8763270119
 C    0.0422815478   -0.0252661375    0.0085692035
 C    0.6715416370   -0.2354623423   -1.3430617365
 C    0.3913130059   -0.5965321458   -2.5900158816
 C    1.3642199839    0.0881534718   -3.5468975338
 C    1.9030409426    1.2831618822   -2.6950179111
 C    1.8568904102    0.7175793159   -1.2661531559
 H   -0.5598033245    1.9061977807    0.8951779210
 H   -0.6028650049    1.9805984377   -0.9126402257
 H    2.0367226250    2.1618321405    0.5159287471
 H   -0.7019557636   -0.7068204933    0.4156461082
 H   -0.4325112172   -1.2165703534   -2.9237877454
 H    2.1821225300   -0.5808492115   -3.8522123036
 H    0.8759454973    0.4194130828   -4.4699763429
 H    2.8965553273    1.6179946752   -3.0068132420
 H    1.2149842224    2.1309451927   -2.7958799343
 H    2.7843253280    0.1774990028   -1.0349994470