17

 C   -0.6817305912    1.2769354128    0.5783505375
 C   -0.0020251481    0.0143406855    0.1225029511
 O    1.3430508779    0.1209961495   -0.3382444462
 C    1.1063146109   -0.6243491388    0.8708688006
 C    1.6219146206   -0.0851526920    2.1000079984
 C    2.0593196292    0.3334339012    3.1404070950
 C    2.6005106576    0.8507455605    4.3981458180
 C    1.6316051526    1.6164735951    5.1849742059
 C    0.8460363062    2.2463940958    5.8384006096
 H   -0.0320542986    1.8520462070    1.2410375842
 H   -0.9428481104    1.8976805389   -0.2848657836
 H   -1.6062824527    1.0373529134    1.1141533892
 H   -0.6169318575   -0.6579446515   -0.4799894844
 H    1.2374132482   -1.7000895555    0.7522804781
 H    2.9808385068    0.0154006440    5.0021610980
 H    3.4747043035    1.4813136923    4.1842522109
 H    0.1486430251    2.8032891018    6.4137531676