14

 N   -0.0483053950    1.2588012332    0.5056447384
 C    0.0126231480    0.0669239803    0.1131142743
 O   -1.1452111671   -0.6762969487    0.1467007091
 C   -1.0933474991   -1.9678748238   -0.2989635869
 O   -0.1000652799   -2.5067795625   -0.7185702962
 C   -2.4271398061   -2.6103446914   -0.1875956315
 C   -2.8673225136   -3.4173887439   -1.3722387878
 N   -2.4557670203   -4.0800274469   -0.1440900902
 H    0.8701810868    1.6941658803    0.4330456268
 H    0.8667712342   -0.4956666610   -0.2632461608
 H   -3.1574845524   -2.0924983211    0.4224538926
 H   -3.9287473802   -3.4616862479   -1.5960054816
 H   -2.2003399177   -3.4393784099   -2.2290333043
 H   -1.4967042277   -4.4100518966   -0.2501111522