14

 O   -0.0293960409    1.4428940746    0.0110192714
 C   -0.0356585809    0.0221598181    0.0022732023
 C   -1.4091652659   -0.4627947179    0.0125053116
 C   -2.5320998665   -0.8968912523    0.0206457991
 C   -3.8489541897   -1.4230640791    0.0301801664
 N   -4.9315381781   -0.6454728240    0.0399287324
 N   -5.9289748762   -1.5545651639    0.0463486660
 C   -5.4299022978   -2.8079801331    0.0404027456
 N   -4.1154593653   -2.7709851363    0.0301192124
 H    0.8908772265    1.7252238659    0.0034289982
 H    0.4742943291   -0.3773157057   -0.8900119687
 H    0.4913308095   -0.3883017079    0.8795433495
 H   -6.8865214171   -1.2430075556    0.0544285137
 H   -6.0485255567   -3.6928153129    0.0438422500