17

 C   -0.0467007905    1.4171638846    0.0682807676
 N    0.0167429626   -0.0369712573    0.0430731887
 C    0.5661169812   -0.5901447465   -0.9505852617
 N    1.1564151240   -0.0493659599   -2.0822942718
 C    1.6752534597   -1.0197868931   -2.9355623059
 O    2.2457615709   -0.8421279326   -3.9710255783
 O    1.4218874526   -2.2328435103   -2.3850598762
 C    0.7144050156   -2.0938187361   -1.1319346495
 C    1.4745370449   -2.7752185837   -0.0058704072
 H    0.9505778454    1.8798911054    0.0156076446
 H   -0.6462942942    1.8179274336   -0.7626111112
 H   -0.5136361146    1.7436713607    0.9998683701
 H    1.2511156278    0.9287728310   -2.2964279036
 H   -0.2727841493   -2.5505129889   -1.2612529641
 H    2.4775555748   -2.3508548933    0.0929290127
 H    0.9345218936   -2.6183593482    0.9309038113
 H    1.5623309255   -3.8470970652   -0.1984169855