21

 C    0.1898165344    1.6058912719   -0.0100580879
 C    0.1268994396    0.0786310229    0.0121238640
 C    0.6498872723   -0.5915716365   -1.2879132345
 C    1.2244060747   -1.9919534911   -1.0279031519
 C    0.4138071011   -2.7206206984    0.0812909755
 C    1.2827918237   -1.9348925565    1.1080634620
 C    2.3853178282   -1.8947402228   -0.0031870233
 C    0.7849667952   -0.5127532620    1.2697550009
 O    0.8970926949    0.1084815947    2.3012934119
 H    1.2223132979    1.9509755765   -0.1302700644
 H   -0.3993828918    2.0074868859   -0.8403672258
 H   -0.1902975660    2.0190549054    0.9262349840
 H   -0.9288351640   -0.2127313790    0.1250282403
 H   -0.1619590883   -0.6428102274   -2.0220548575
 H    1.4320203096    0.0362052539   -1.7332737480
 H    1.4137431545   -2.5245868269   -1.9628597671
 H   -0.6720448029   -2.5947507060    0.1093998028
 H    0.6498892887   -3.7871614642    0.1173035979
 H    1.5201328018   -2.3715550633    2.0784012585
 H    2.9930731892   -2.8026597325    0.0244901984
 H    3.0429942871   -1.0212761647   -0.0459541558