16

 C    0.0121079406    1.3705968805   -0.2272789664
 C    1.5034617804    1.5125339219    0.1295023814
 C    1.3378542734    0.0885442534    0.7349234373
 O   -0.0056254194   -0.0055719872    0.2208642845
 C    2.2025381053   -1.0098640376    0.2267444792
 C    2.1133373425   -1.8207803009   -0.8819955305
 N    3.1839356476   -2.6634200455   -0.9031445666
 N    3.9389144643   -2.4237329936    0.1282329635
 N    3.3488400992   -1.4267574058    0.8212778353
 H   -0.6670710394    1.9962704788    0.3642055697
 H   -0.2530024361    1.4554632252   -1.2859706297
 H    2.1740481777    1.5446094465   -0.7296983712
 H    1.7672763286    2.3031820730    0.8327717555
 H    1.3417040391    0.0930883106    1.8356875334
 H    1.3426531254   -1.8512386683   -1.6334336267
 H    3.7803472508   -1.0982429411    1.6707147215