15

 O    0.0232473467    0.0234583648   -0.3379780659
 C    0.0131202956    1.1791906854   -0.0580410099
 C   -1.1118848204    2.1850236822    0.3937840793
 C    0.0198552543    3.1391577238    0.8074192335
 O    0.6530161858    2.8866341819    2.1055895667
 C    1.7573041347    3.0708497185    1.1869040898
 C    1.0546585760    4.2170611029    0.3414238721
 C    1.3003317918    3.4828113897   -0.9954165961
 C    1.0746237916    2.3187684146    0.0036610606
 H   -1.6913073305    2.5348786421   -0.4665119446
 H   -1.7935048494    1.8572300706    1.1810611483
 H    2.7767243978    3.0225313783    1.5768194910
 H    1.0604115770    5.2872030582    0.5598498910
 H    0.5336878324    3.6216409825   -1.7626580878
 H    2.2961072666    3.5625409046   -1.4373931480