18

 C   -0.1159041791    1.5424696997   -0.0264796868
 C    0.0329978067    0.0153805960    0.0350934350
 C    0.7780188388   -0.4914891217   -1.2007086496
 O    0.9989058821   -1.8956048978   -1.1871868669
 C    1.5673114633   -2.4340467754   -0.0560459551
 O    2.0323499080   -3.5448815151   -0.1174398367
 C    1.5205469572   -1.6190683080    1.1525125719
 C    0.7660976954   -0.4997031593    1.2583905334
 N    0.5449128274    0.1465981212    2.4453284684
 H    0.8551359802    2.0446737400    0.0423665221
 H   -0.5759006374    1.8360996812   -0.9748158169
 H   -0.7633653642    1.9254444991    0.7682839981
 H   -0.9715791148   -0.4311253467    0.0432169105
 H    0.2018126737   -0.2886782680   -2.1073168165
 H    1.7418314594    0.0324910955   -1.2831355183
 H    2.0334627765   -2.0400067767    2.0100609197
 H    1.1102070428   -0.1279503790    3.2340129936
 H    0.3083487239    1.1243526750    2.4221352341