16

 O   -0.0082983628    0.0290531519    0.2161410563
 C   -0.0000878781    1.2007826466   -0.0050212385
 O   -1.1591012517    1.9389251270   -0.1656724831
 C   -0.7599336976    3.2512346984   -0.5418839222
 C    0.0221745977    4.1400010936    0.4983989611
 C    0.9275192993    3.1085043468    1.1820498627
 C    1.1487282216    2.1968355498   -0.0833425348
 C    0.6492591701    3.2048735563   -1.1579611113
 N    0.9471113830    4.5698506924   -0.6144502882
 H   -1.5567178727    3.7456483084   -1.0951416049
 H   -0.4475868406    4.9134255608    1.1035047359
 H    1.8573300981    3.5716993973    1.5136077600
 H    0.4627329436    2.5775015167    2.0148157506
 H    2.1273330156    1.7396890340   -0.1934706511
 H    0.8561980395    2.9918127823   -2.2056810219
 H    0.4481228353    5.2386924777   -1.2036958808