19

 C   -0.0825453584    1.5359239492   -0.1293376094
 C    0.0346752440    0.0187694008   -0.0398085686
 C    0.9529973239   -0.5884882606   -1.1280895709
 C    1.1864513392   -2.0438302469   -0.6748360172
 C    1.9677155495   -1.2513855446    0.3934609024
 O    2.2878317518   -0.2617078045   -0.6249471146
 C    0.8416099026   -0.5445599768    1.2083433011
 C    1.3404734315    0.4390939569    2.1518685743
 C    1.7600219745    1.2335612138    2.9511065997
 H    0.9086336557    1.9933773243   -0.1773454107
 H   -0.6427668660    1.8217112057   -1.0263691022
 H   -0.6014977952    1.9482188023    0.7401953799
 H   -0.9606727086   -0.4361737485   -0.0730636669
 H    0.7847597451   -0.2954408435   -2.1648127712
 H    0.3326498834   -2.6568525585   -0.3738811453
 H    1.8531913213   -2.5831645759   -1.3477417533
 H    2.8292277139   -1.6339402132    0.9390820583
 H    0.2438252623   -1.2847621127    1.7515363123
 H    2.1339634094    1.9384519828    3.6513597122