16

 C    0.2428501830   -1.2896715948    0.0031033792
 C    0.0966436721   -0.0971543650   -0.0073069098
 C   -0.0609385459    1.3541673241   -0.0572670520
 C    1.3390261617    2.0320503156    0.0054889196
 C    1.2862912953    3.4832577440    0.1696299525
 N    1.2742575110    4.6281191481    0.3222743974
 C   -0.8309286435    1.7543443807   -1.3102905521
 C   -2.2915177786    1.8681301375   -1.3027089267
 O   -1.4557586365    3.0300431398   -1.2880361605
 H    0.3594227267   -2.3453885017    0.0263358457
 H   -0.6414002935    1.6911321752    0.8098835754
 H    1.9020846505    1.6100508207    0.8436569760
 H    1.9009379070    1.7927906234   -0.9039658874
 H   -0.3314281712    1.5029382196   -2.2473848703
 H   -2.8498079576    1.7046449624   -2.2223272616
 H   -2.8400680306    1.6755928504   -0.3819187652