11

 N    0.0058485186    1.3240170856    0.0452384894
 N    1.2882114023    1.7749842770    0.0256023854
 N    2.0923852179    0.7748695998   -0.0075132375
 N    1.3221191095   -0.3474440390   -0.0093574284
 C    1.4122852237   -1.7273946428   -0.0334196324
 C    0.0935606822   -2.1293730067   -0.0114327420
 N   -0.8076428405   -1.0746151620    0.0249606322
 C   -0.0096420955   -0.0366996463    0.0242545986
 H   -0.7535258286    1.9818639091    0.0724745959
 H    2.3483868953   -2.2543689636   -0.0623136183
 H   -0.2648315049   -3.1481861711   -0.0198825429