20

 C   -0.1165827589    1.5442829463    0.0402978990
 C    0.0415890493    0.0520714880    0.0013855166
 C   -0.7883920160   -0.8924762047    0.8164618810
 C    0.7104323508   -0.8989223124    1.0198196312
 C    1.3384165696   -1.6677599844   -0.1133051804
 C    2.5926028730   -2.4330552761   -0.1920411743
 N    1.2855746207   -3.1133305728   -0.3548606478
 C    0.7196087836   -0.7185346195   -1.1555053698
 O   -0.0878144547   -1.3331139956   -2.1237862080
 H    0.8093958700    2.0523365118   -0.2524202315
 H   -0.9062330055    1.8719368631   -0.6460357263
 H   -0.3863503660    1.8906383865    1.0435649661
 H   -1.3608168613   -0.4312176034    1.6154840322
 H   -1.2804157513   -1.7386516820    0.3448616036
 H    1.1750221415   -0.6634008208    1.9704771472
 H    3.2036754664   -2.3931265946   -1.0903024502
 H    3.1496685749   -2.6066486757    0.7257023368
 H    1.0333661151   -3.6120508253    0.4951328879
 H    1.4761237458   -0.0860156200   -1.6413204045
 H    0.0373340029   -2.2851349584   -1.9922266889