21

 C   -0.2831115102    1.4858650257    0.0059781805
 C    0.0449245223   -0.0005961441   -0.0437003747
 C   -1.0882033799   -0.9375822864    0.4422600969
 O   -0.2928019757   -1.4281820893    1.5389857521
 C    0.8367530364   -0.5958938422    1.1614053537
 C    2.0473657624   -1.3344674718    0.6226704974
 C    1.7611258577   -2.5662889671   -0.1995197860
 C    2.0033038896   -1.2575747590   -0.8970842485
 C    0.8049847290   -0.4148579116   -1.3301063710
 H    0.6261529605    2.0909820182   -0.0835213842
 H   -0.9518152837    1.7694240119   -0.8152425374
 H   -0.7764034359    1.7544345402    0.9460193465
 H   -1.9930896329   -0.4255687597    0.7946912685
 H   -1.3817318910   -1.7389990936   -0.2489264591
 H    1.0997258043    0.0918801050    1.9731030797
 H    2.9823022620   -1.2710037236    1.1672000433
 H    2.5439651174   -3.3144875914   -0.2581152870
 H    0.7580321510   -2.9751008186   -0.1528234119
 H    2.9218532265   -1.1537988469   -1.4647258080
 H    0.1507077900   -0.9493195604   -2.0293713915
 H    1.1600784302    0.4782604449   -1.8558665993