17

 O    0.0031109364    1.3015329833    0.2586353664
 C    0.0011453721   -0.0575273505   -0.0023831849
 C   -0.5142227039   -0.9820799834    1.0785656637
 C   -1.3487523916   -0.7758318579   -0.1564279814
 C   -2.6117130220    0.0606930615   -0.1281001457
 C   -3.7688210745   -0.6852441610    0.5061956388
 O   -4.8583941161   -0.8090055645    0.0113713582
 C    1.0964329171   -0.4964583455   -0.8889795960
 O    1.8734815806    0.2956709494   -1.3741133115
 H    0.6877799410    1.6663955300   -0.3255354823
 H   -0.0259390504   -1.9384448361    1.2325401901
 H   -0.8112598058   -0.4679304389    1.9863647111
 H   -1.3639672104   -1.6041144853   -0.8603453627
 H   -2.4226249421    0.9667357856    0.4620519092
 H   -2.9078061593    0.3739010682   -1.1330742682
 H   -3.5348021698   -1.1294665589    1.5014111402
 H    1.1534200086   -1.5841787761   -1.0971744050