18

 C   -0.0357981436    1.4570796231    0.0489349287
 C    0.0047220593    0.0034468968    0.0090612713
 C    0.0262528566   -1.2019151659   -0.0318144045
 C    0.1019462684   -2.6230818809   -0.0441679701
 C   -0.2634545413   -3.4768758596   -1.2025493023
 N   -1.1229430179   -3.5729530821   -0.0180698499
 C   -0.3648525634   -4.4534650728    0.9398432088
 C    0.8272792316   -3.4805728590    1.0113485259
 O    2.0633491796   -4.0577612175    0.6669242184
 H    0.9722639867    1.8790652865    0.1303385214
 H   -0.4920081332    1.8658125339   -0.8594177731
 H   -0.6164792310    1.8184466964    0.9050078327
 H   -0.7427927361   -2.9759945799   -2.0371507541
 H    0.3805551933   -4.3136170843   -1.4660607271
 H   -0.9133807648   -4.5573559976    1.8769317441
 H   -0.1289260623   -5.4430031400    0.5367057894
 H    0.8794879094   -2.9532189700    1.9713875333
 H    2.7352483187   -3.3675124870    0.6809250171