15

 O   -0.0431454325   -0.0627972604   -0.0691012611
 C   -0.0224440459    1.1512938196   -0.0214578178
 N   -1.1328829927    1.9421917568   -0.1132042734
 C   -1.2165681190    3.3814902807    0.1150402083
 C    0.1563912247    4.0180590641    0.0330012637
 C    1.2512305522    3.2351696570    0.0424620208
 N    1.1724836278    1.8596634323    0.1025754129
 C    0.2320711884    5.4282017574   -0.0150437306
 C    0.2351553853    6.6337751198   -0.0533667020
 H   -1.9905801940    1.4154918901   -0.1582230115
 H   -1.8754935261    3.8269936522   -0.6405910466
 H   -1.6712301960    3.6014767688    1.0946238170
 H    2.2504677426    3.6507824872    0.0090189201
 H    2.0015369224    1.2903458037    0.0751789400
 H    0.2567900728    7.6946132307   -0.0869043398