18

 O   -0.0843692730    1.2967366632    0.0234831295
 C    0.0164860449   -0.0753637743   -0.0104878776
 C    0.6492396323   -1.0374697665    1.0518740950
 C    0.0359188922   -1.9210216594   -0.0516380416
 C   -1.2243740847   -1.0008659238   -0.0335080881
 C    0.6585938093   -0.9739335714   -1.1200002366
 O    0.0951307701   -3.3098675005    0.0037848766
 C   -0.5159661174   -3.9919836855   -0.9912940467
 N   -0.4769239649   -5.2522417892   -0.9974330941
 H    0.8032605329    1.6707072045    0.0380474339
 H    1.7397121296   -1.0458471019    1.1272013548
 H    0.1652364936   -1.0735560700    2.0302353933
 H   -1.8318458136   -1.0251642825    0.8737799773
 H   -1.8342802124   -0.9682691105   -0.9396838786
 H    0.1812946666   -0.9458679143   -2.1027954379
 H    1.7495597118   -0.9738693268   -1.1895330150
 H   -1.0100759884   -3.3468356807   -1.7273914525
 H   -0.9838563289   -5.6101151304   -1.8044605317