18

 O    0.0950104590    0.0514872654    0.3026413231
 C    0.0199356287    1.2135572747    0.0347027686
 C   -1.1498806789    2.1963607902   -0.1342958602
 C   -0.1453068934    3.2021066262   -0.7826685698
 C   -0.1629913178    4.6289774182   -0.2492769576
 C    0.9419814492    5.5008619205   -0.8806337391
 C    0.9404861025    6.8683871422   -0.3663901608
 N    0.9228224866    7.9449064916    0.0531037873
 C    1.0510399933    2.2833677196   -0.3648905143
 H   -1.9908651324    1.8459893315   -0.7376358945
 H   -1.5358897393    2.5348255569    0.8343884876
 H   -0.2599723273    3.2101902806   -1.8714376208
 H   -1.1373923601    5.0896108338   -0.4465253762
 H   -0.0357502980    4.6210506708    0.8399104517
 H    1.9278786250    5.0599148102   -0.6924845979
 H    0.8182126969    5.5383729510   -1.9694056533
 H    1.5993513020    2.6541092099    0.5098457557
 H    1.7758237139    1.9900095267   -1.1283092296