21

 C    0.0405295496    1.6157535495    0.1385787602
 C    0.0026083356    0.0860904603   -0.0224087575
 C    0.8690880083   -0.3467538163   -1.2428441118
 C    2.1911018696   -0.7300002947   -0.6256577509
 C    2.1063183900   -0.8622890661    0.6962116454
 C    0.7119565889   -0.5873133609    1.1996124993
 C   -1.4483291259   -0.3507486314   -0.1103716000
 C   -2.1943311560   -0.5059792410   -1.3644538286
 O   -1.7355392163   -1.6488698590   -0.6335451591
 H    1.0724288057    1.9593982242    0.2603310270
 H   -0.3849372647    2.1166413762   -0.7375294728
 H   -0.5264864677    1.9369654708    1.0196716687
 H    0.4232293434   -1.2126222180   -1.7494228531
 H    0.9582964810    0.4533953537   -1.9874954398
 H    3.0801395906   -0.9101360229   -1.2199841722
 H    2.9145237807   -1.1682072075    1.3513739355
 H    0.6907176241    0.0563628039    2.0877308776
 H    0.2122005124   -1.5245948370    1.4809522856
 H   -2.0333532171   -0.1064599187    0.7801850441
 H   -3.2738761883   -0.3628884512   -1.3749678024
 H   -1.6956549140   -0.3339146738   -2.3166954650