16

 N   -0.0146304233    0.9555439822    0.1521905366
 H   -0.2177748983    0.0579755023    0.7010357228
 H    0.9308742413    1.3046644496    0.3000227287
 H   -0.1543268790    0.7813708185   -0.8425925094
 C   -1.0916949904    1.8407236661    0.7589928514
 C   -2.2261840393    0.9176940882    1.2544883953
 O   -1.5519103548   -0.4133938294    1.4805243256
 C   -2.9061638103    1.4813997123    2.4272607649
 C   -4.2932253009    1.3022674626    2.5758538768
 N   -5.4438641654    1.1424571525    2.6585616716
 C   -2.1289889340    2.1378119092    3.3968767303
 N   -1.3950525441    2.6693482543    4.1337778408
 H   -0.6300574437    2.3519476032    1.6055695578
 H   -1.4309868419    2.5683608603    0.0231988146
 H   -2.9370709304    0.7170478334    0.4498248334
 H   -1.6180527655   -0.5670079552    2.4319950087