15

 O    0.1618565969    1.3401809893   -0.3598590876
 C    0.0025722399    0.0084885401    0.1144864670
 C   -1.4067052003   -0.4764001168    0.0888978010
 C   -1.9455811246   -1.9114376159   -0.0626376861
 C   -3.1986963958   -1.5056233785    0.7496925504
 C   -2.6877295928   -0.1191814557    0.9014438134
 N   -3.5769730264   -0.4597058018   -0.2655645131
 C   -2.3224246946   -0.8398449977   -1.0535680766
 H   -0.3673172163    1.9182709746    0.1988557526
 H    0.6098432983   -0.6168330127   -0.5499600641
 H    0.4200955639   -0.1019837054    1.1286826023
 H   -1.3927546249   -2.8327741765   -0.1798387484
 H   -3.9396680866   -2.0673193692    1.3056484121
 H   -2.9368798628    0.6668542222    1.6058441749
 H   -2.2148210739   -0.7569083159   -2.1275703877