17

 O   -0.0525913275    1.4526240536   -0.0193248882
 C    0.0458517785    0.0407532862    0.0198726216
 C   -1.3752488923   -0.5124974517    0.0328009876
 C   -1.3990992213   -2.0411962070    0.0382750535
 C   -2.8455811942   -2.6139183525    0.0556640580
 C   -2.8355432770   -4.0756166673   -0.0964424805
 N   -2.7938206552   -5.2197405782   -0.2438931651
 C   -3.5704986724   -2.2282335554    1.2755667929
 N   -4.1231028433   -1.8960866048    2.2331925316
 H    0.8355225263    1.8205927810    0.0036508056
 H    0.5905196274   -0.3495725324   -0.8558850669
 H    0.5847960623   -0.3020748714    0.9180106673
 H   -1.8952572080   -0.1183295521    0.9125815265
 H   -1.9037933275   -0.1284942508   -0.8483539149
 H   -0.9080639592   -2.4392200465   -0.8557152478
 H   -0.8612360075   -2.4390648461    0.9047729118
 H   -3.3965797789   -2.1974938246   -0.7981992229