21

 O   -0.1461007668    1.4508739499    0.0860054331
 C    0.0207050326    0.0399804290    0.0222248338
 C    0.8012531718   -0.5089326551    1.2215096604
 C    1.0403928046   -2.0167083162    1.0621640802
 C   -0.2292633427   -2.7911462376    0.7512116746
 O   -0.0021399669   -4.0627067633    0.1951797600
 C   -1.4669572888   -2.6293209369    1.5928491819
 C   -1.4182433792   -2.0693076117    0.1777518940
 C   -1.3863541950   -0.5600306554   -0.0503524298
 H    0.7283387333    1.8526366393    0.1050613776
 H    0.5699000111   -0.2363511703   -0.8945477678
 H    1.7661597524    0.0072083864    1.3042678223
 H    0.2481615233   -0.2855056945    2.1421889295
 H    1.7300915924   -2.1877429840    0.2259764840
 H    1.5262582422   -2.4258073281    1.9582529530
 H    0.3593823182   -4.6253440465    0.8894349084
 H   -2.0649594424   -3.5187253383    1.7577565646
 H   -1.4588143957   -1.9232977046    2.4180241764
 H   -1.9720603051   -2.6471825825   -0.5542206830
 H   -1.9998584598   -0.0441196818    0.6981122254
 H   -1.8220771994   -0.3181898981   -1.0240848386