21

 O   -0.0464124767    1.4862667492   -0.1756989760
 C    0.0335842924    0.0715273205   -0.0879121470
 C   -1.3876143879   -0.4694437909    0.0089893969
 C   -1.4424873802   -1.9987368843    0.1137145142
 C   -1.0115372933   -2.5996031126    1.4397246216
 C   -1.7582958267   -3.6527640658    1.7743832853
 C   -2.8136575087   -3.9353296157    0.7292413901
 C   -2.8689020090   -2.6054976418   -0.0627846174
 O   -3.8868205904   -1.7506730036    0.4378226090
 H    0.8475183532    1.8351407930   -0.2363376069
 H    0.5322229524   -0.3553793569   -0.9743405068
 H    0.6225422775   -0.2361471678    0.7917201271
 H   -1.8814993805   -0.0064690569    0.8693582787
 H   -1.9430444790   -0.1403716994   -0.8760673293
 H   -0.8032522498   -2.4157301759   -0.6822734889
 H   -0.1738666888   -2.2209909844    2.0154458852
 H   -1.6212516964   -4.2647835464    2.6590495753
 H   -2.5122455536   -4.7741274842    0.0857934314
 H   -3.7992448793   -4.1848168551    1.1362881755
 H   -3.1196852970   -2.7511285073   -1.1166723337
 H   -3.7208491883   -1.6270632637    1.3797837056