26

 C   -0.1792786532    0.7656343228    2.1941375904
 C    0.0504789130   -0.6378770937    1.6226195574
 C    0.2709443130   -0.6957901811    0.0939732415
 C    1.5498294736    0.0609009508   -0.3212461634
 C    1.8193358400    0.1096662613   -1.8283148432
 C    0.3367734899   -2.1529919871   -0.3517569546
 C   -0.8467171038   -3.0592441517   -0.3025684764
 N   -0.2455028427   -2.7074335098   -1.5833481892
 C   -1.0479509237   -1.8787015271   -2.4694127258
 H    0.7007642837    1.4068428964    2.0899174443
 H   -1.0156796320    1.2650673162    1.6914736556
 H   -0.4190581709    0.7135746625    3.2609330773
 H    0.9106055818   -1.1023312204    2.1244819366
 H   -0.8141516025   -1.2646871832    1.8685760029
 H   -0.5911053529   -0.2106547685   -0.3831834988
 H    1.4986531633    1.0863975308    0.0597466199
 H    2.4054288838   -0.4077469709    0.1855252234
 H    1.0069817309    0.6167898186   -2.3604218181
 H    2.7427804540    0.6584676712   -2.0390105868
 H    1.9233166796   -0.8928732888   -2.2539902049
 H    1.3025486733   -2.6103710077   -0.1292114594
 H   -0.7507351671   -4.0954075329    0.0133292112
 H   -1.8070474218   -2.6028048038   -0.0591564193
 H   -1.7002618123   -1.1523611482   -1.9582151488
 H   -0.3960388521   -1.3310909034   -3.1559279985
 H   -1.6898787950   -2.5367852924   -3.0644471831