20

 C    0.4925358736    1.1434788395   -0.0168546233
 O    0.7436904444   -0.2157401635   -0.2859972066
 C   -0.0568693806   -0.7238242045   -1.3310328759
 C    0.2089388333   -2.2016551615   -1.4522145945
 N    0.0632003045   -2.8038336447   -2.7703599626
 C    1.4136215417   -2.7433228972   -2.1832155768
 C    2.4537929346   -1.8637634865   -2.8385783416
 C    1.9119547626   -4.0298645961   -1.6073947384
 O    1.2014182292   -4.9825584147   -1.3836247206
 H    0.6954344065    1.7785817729   -0.8937302451
 H   -0.5508184894    1.3124909173    0.2931104830
 H    1.1561441963    1.4433822262    0.7976002573
 H   -1.1277104758   -0.5661301574   -1.1137227951
 H    0.1532512155   -0.2145716058   -2.2834298166
 H   -0.1090225163   -2.7904532626   -0.5941667734
 H   -0.2746230753   -3.7609820818   -2.6611806615
 H    2.0045448076   -0.9559879345   -3.2417782117
 H    3.2250350087   -1.5743502669   -2.1175027919
 H    2.9381100186   -2.3885725055   -3.6690906910
 H    3.0018416603   -4.0626951928   -1.3934185339