20

 C    0.0021334379    1.5853932063    0.2981312033
 O    0.4760381121    0.3099967378   -0.0702214528
 C    0.8192386339   -0.4827873731    1.0320676815
 C   -0.3494086698   -1.1796189951    1.7948774113
 N    0.1051810275   -2.5332711564    1.3490647333
 C   -0.4279102291   -2.8852400805   -0.0127147783
 C    0.9627430788   -2.6003805365   -0.6418888006
 O    1.0730406769   -1.8591246250   -1.8262046806
 C    1.3280464340   -1.9066111533    0.6832260758
 H    0.7567098570    2.1473220538    0.8714206912
 H   -0.2189422135    2.1270431110   -0.6243009755
 H   -0.9156659521    1.5290343898    0.9034948433
 H    1.5101202984    0.0657445906    1.6918423226
 H   -0.3002855810   -1.0827861494    2.8842976307
 H   -1.3555120817   -0.9087174202    1.4580361876
 H   -0.8122826296   -3.9075754419   -0.0792643373
 H   -1.1868123753   -2.1849531041   -0.3797311724
 H    1.5444606277   -3.5309248831   -0.7053238534
 H    1.0102074200   -2.4687482067   -2.5677949223
 H    2.3091719478   -2.1437050639    1.1038333827