17

 C   -0.0495550349    1.4528617302    0.1044470180
 C    1.2801211558    0.7491543168    0.0254137629
 C    2.0581668289    0.4394118177    1.3255331679
 C    1.1121315707   -0.4792970238    2.0563538318
 C    0.0305496546   -0.7585286847    1.2863081697
 O   -0.8512387882   -1.5616106999    1.9228628019
 C   -0.2938438854   -1.8084109442    3.1526414547
 C    0.8996994752   -1.1629880527    3.2959246026
 C   -0.0232801428   -0.0617774141   -0.0094149631
 H   -0.3671103712    1.8799191352    1.0502388458
 H   -0.3594027991    2.0134156047   -0.7720327538
 H    1.8516902622    0.8749830223   -0.8864990141
 H    3.0177468312   -0.0423015727    1.0987569944
 H    2.2909127650    1.3551701611    1.8821263294
 H   -0.8569011050   -2.4710298148    3.7887462631
 H    1.5330396228   -1.1983771879    4.1690383729
 H   -0.3837449897   -0.5476258831   -0.9084386940