16

 O   -0.0798903628   -0.0406573976    0.0006324085
 C   -0.0195534354    1.1673644592    0.0098886006
 N    1.1521450249    1.8862799849    0.0023442715
 C    1.2483865794    3.3648648734    0.0135084617
 C    2.7780623633    3.6433359600   -0.0019031765
 C    3.3876235782    2.2555614108   -0.0203223621
 C    4.8109354357    1.9858768312   -0.0389092261
 O    5.6653649072    2.8504157024   -0.0416430777
 C    2.4135801561    1.3244172878   -0.0167924967
 H   -0.9065856459    1.8273409452    0.0255888967
 H    0.7406304655    3.7777932921   -0.8624047075
 H    0.7611586671    3.7630819014    0.9077042420
 H    3.0811254070    4.2250533967   -0.8772139445
 H    3.1013983827    4.2107154783    0.8755599142
 H    5.0813273242    0.9066842867   -0.0509235015
 H    2.4906780628    0.2461951773   -0.0265708425