19

 O   -0.0715657791    1.5186269058    0.2648590362
 C    0.0363008185    0.1063541494    0.3777292017
 C   -1.2950426033   -0.5286397324    0.0143272607
 C   -2.5457882263    0.1999984627    0.3430126953
 N   -2.0803911643    0.0956156616   -1.0583716607
 C   -1.2514642704   -2.0308484685    0.0162249838
 C   -2.2416478728   -2.8335621760   -0.7828910874
 C   -0.8005081489   -2.7741104932   -1.2205382960
 H    0.7993114224    1.9019950841    0.3972637260
 H    0.8105395550   -0.2852208145   -0.3005157352
 H    0.3134321267   -0.1912277173    1.4018636206
 H   -3.4466550701   -0.3650580334    0.5650333302
 H   -2.4630202265    1.1653653822    0.8314541062
 H   -1.6314962122    0.9750519295   -1.3062831927
 H   -0.9443875898   -2.4568629765    0.9689250145
 H   -2.6148929885   -3.7558877138   -0.3518108651
 H   -2.9557694637   -2.2758001100   -1.3772880698
 H   -0.5822115493   -2.1788704506   -2.1007088825
 H   -0.1784331473   -3.6541855092   -1.1001811657