14

 N   -0.2078087370    0.8164768909    1.0675959517
 C   -0.0952252542   -0.0880115359    0.2018502454
 C   -1.1191025138   -0.9814993999   -0.4943314269
 C    0.1112564899   -1.7360883968   -1.0926121690
 N    0.9644965273   -0.6802194169   -0.5086825682
 C    0.3893912972   -3.1043523925   -0.4347530668
 O   -0.2890384899   -3.5711610731    0.4359165720
 C    0.2090179349   -1.8558469828   -2.5475973256
 N    0.2942411315   -2.0037477850   -3.6906504330
 H    0.6929704355    1.2059992296    1.3486405340
 H   -1.7187136541   -1.6009246550    0.1714532193
 H   -1.7439616833   -0.4781868818   -1.2314165704
 H    1.9273125202   -0.7895253889   -0.2163478393
 H    1.3088705359   -3.6053220118   -0.8048998432