21

 C    0.0964440132    1.4919695116   -0.0609361953
 C   -0.0225102522   -0.0055625986    0.0455830854
 C   -0.9404272796   -0.6326204439    1.0648165816
 C    0.5714104967   -0.7567520126    1.2190174824
 C    1.3263365301   -2.0224149061    0.9200253593
 C    0.6996981068   -3.3874226259    0.8191200512
 C    1.1146774215   -2.6589555999   -0.4391986467
 C    0.0747559812   -1.9882601086   -1.3191178305
 O    0.1055768880   -0.5657867275   -1.2364157304
 H    1.0570924217    1.7672274703   -0.5080488163
 H   -0.7002350118    1.8991495969   -0.6923005955
 H    0.0267313348    1.9565774289    0.9264691570
 H   -1.4599859328    0.0267158216    1.7516760219
 H   -1.5122483359   -1.5134750757    0.7985224939
 H    1.0108553395   -0.1532311761    2.0070325050
 H    2.3525926822   -2.0006006809    1.2725913354
 H    1.2908241717   -4.2400868131    1.1344806300
 H   -0.3625022028   -3.4869785813    1.0194427357
 H    1.9981942089   -3.0197583761   -0.9542832819
 H    0.2652023583   -2.2076699168   -2.3725076123
 H   -0.9369745995   -2.3558854563   -1.0928708497