22

 C   -2.6113071980   -1.9298200727   -0.6241463894
 C   -1.1282021692   -1.6003568476   -0.8434707555
 C   -0.3083513211   -1.9752236423    0.3764958175
 C    0.4243956933   -3.2377630294    0.5850748929
 C    1.1210666528   -3.7259718044   -0.6877426739
 C    1.9151749698   -2.3966877334   -0.6431452738
 C    2.0365044337   -1.4218517634   -1.8026425708
 O    2.6389992042   -0.2160961318   -1.3611884353
 N    1.1632288796   -1.8948239098    0.5749583854
 H   -3.0125458360   -1.3955310019    0.2437115331
 H   -3.2085093860   -1.6466369876   -1.4957328909
 H   -2.7555221958   -3.0012466231   -0.4501550582
 H   -0.7762989028   -2.1184768734   -1.7384790519
 H   -1.0156023530   -0.5266224426   -1.0395491542
 H   -0.7697143867   -1.6013443546    1.2913438082
 H    0.3372836065   -3.8229380825    1.4956098787
 H    1.7487926733   -4.6060532345   -0.5427098553
 H    0.4701042489   -3.9047679175   -1.5490271146
 H    2.9304368432   -2.5876341966   -0.2813776316
 H    2.6965328442   -1.8458205192   -2.5692784993
 H    1.0674827964   -1.2280138632   -2.2809436719
 H    2.2286571927    0.0025246614   -0.5155727790