21

 C    0.0051548515    1.6191007045   -0.0547818148
 C    0.0986559298    0.0977723281   -0.0019623795
 C    1.1110934791   -0.6796846120   -0.8912885425
 C    1.2637992708   -1.7277222254    0.2900671895
 C    2.2584152908   -0.7339490795    0.8763965725
 C    2.5145310409   -0.1323024216   -0.5037800858
 O    3.5840460587   -0.7377480923   -1.2009334010
 C    0.7567259033   -0.6241588847    1.1856347601
 C    0.2265623971   -0.7242494473    2.5862737586
 H    0.9613700659    2.1030524698    0.1628055380
 H   -0.3253231502    1.9575046747   -1.0433596765
 H   -0.7222617779    1.9867482320    0.6775037881
 H   -0.8995154101   -0.3354194310   -0.1475935741
 H    0.8981299186   -0.9033396702   -1.9356235902
 H    1.1735529929   -2.8020935852    0.3641514385
 H    2.9800603358   -0.8993243619    1.6679374724
 H    2.6887671028    0.9434885710   -0.5961569135
 H    3.5093985716   -1.6906490394   -1.0670862992
 H    0.2740181829    0.2416210314    3.1026183695
 H   -0.8192265819   -1.0528739961    2.5885885789
 H    0.8022094680   -1.4431119150    3.1792675810