16

 O   -0.7977720060    0.8755628871    0.5527310445
 C    0.1825520399    0.9090987060   -0.1438832001
 C    1.3351127585    1.8753864392    0.0302150103
 C    1.5293596333    2.5495509604    1.4151441483
 C    2.2115175692    1.1922293244    1.7686701790
 N    2.6444799468    1.1431789368    0.3092872161
 C    3.5899617119    2.2970259383    0.2849315012
 C    2.7893618956    3.3521275012    1.0960160874
 O    3.0856799707    4.4778169763    1.3820952866
 H    0.3167856926    0.2181139615   -1.0053180380
 H    1.3754453196    2.5077378679   -0.8677940428
 H    0.7406011831    3.0281233705    1.9888368626
 H    3.0326281490    1.1850815661    2.4895250873
 H    1.5036207545    0.3943883419    1.9922377040
 H    4.5388976838    2.0364810616    0.7612586793
 H    3.7908048675    2.6274050908   -0.7378169257