18

 O   -0.6970774910    1.2637244165   -0.8000018134
 C   -0.1067193367    0.1489835208   -0.1424263311
 C   -1.1223674447   -0.9218016763    0.3261038842
 C   -1.0986794839   -2.0083333897   -0.7615206946
 O   -2.1648616767   -1.7461473595   -1.7030367751
 C   -2.6792968953   -2.7925707065   -2.3748073160
 N   -3.5036465037   -2.6022826198   -3.3114754310
 C    0.2427903276   -1.8019257012   -1.4301488453
 C    0.7859158499   -0.6360539107   -1.0834781826
 H   -1.1829205244    0.9213207193   -1.5606228627
 H    0.4402520031    0.5822151755    0.7000753275
 H   -0.7933632401   -1.3574184634    1.2741923614
 H   -2.1205029206   -0.5037802913    0.4661829471
 H   -1.2370522570   -3.0173644887   -0.3553631050
 H   -2.3210246789   -3.7657728572   -2.0085734539
 H   -3.8153176309   -3.4957530092   -3.6863403370
 H    0.6448306534   -2.5076019566   -2.1486336606
 H    1.7102063999   -0.2244840420   -1.4727871218