15

 C    0.0261659701    1.5503378646    0.0256553193
 C    0.0094287844    0.0462398156    0.0099844757
 C   -1.1659236548   -0.6707057043    0.0490619777
 N   -2.4181180719   -0.1407628322    0.1419566937
 O   -1.1712731045   -2.0065290941    0.0399971331
 C    0.0352709396   -2.7634143533    0.0022698117
 O   -0.0639718240   -3.9578868700    0.0032352805
 C    1.2149206304   -1.9279374972   -0.0382975472
 N    1.1880300026   -0.6262134010   -0.0359915287
 H    1.0634314481    1.8877979905   -0.0018503107
 H   -0.4896609643    1.9861502792   -0.8412653283
 H   -0.4426459708    1.9625972081    0.9282059684
 H   -2.5383728894    0.8219208881   -0.1263086888
 H   -3.1841137680   -0.7609989205   -0.0709343853
 H    2.1702761424   -2.4411833636   -0.0751645212