19

 O    0.0383107689    1.4801824419   -0.1738901001
 C    0.0931965446    0.0879882868    0.0311532644
 C   -1.3223203603   -0.5021910843    0.0803658066
 O   -2.0489751328   -0.0339244159   -1.0566748567
 C   -1.3431511034   -2.0431986670    0.1782701284
 C   -0.6549700802   -2.5725346228    1.4647726537
 O   -0.7004013830   -3.9770092053    1.5536873145
 C   -2.7086961226   -2.5623748306    0.1211323742
 C   -3.8168291147   -3.0301949491    0.1384280073
 H   -0.6693871647    1.6151443016   -0.8184272772
 H    0.6659749592   -0.4203560967   -0.7679228399
 H    0.6245650529   -0.0804800601    0.9731819835
 H   -1.8534735800   -0.0763435753    0.9387031864
 H   -1.7603007403   -0.5373615130   -1.8273446016
 H   -0.7804090531   -2.4497793058   -0.6760212202
 H    0.4043850875   -2.3038364981    1.4537138347
 H   -1.1194143824   -2.0888834980    2.3387717399
 H   -1.6286998285   -4.2355538975    1.4947622006
 H   -4.8058594969   -3.4176260208    0.1228461015