13

 N    0.0101068959    1.4036410155    0.1491221571
 C   -0.0042177441    0.0290516270    0.0460249425
 C   -1.1460332085   -0.7123640134    0.0305161036
 O   -2.3754077525   -0.1590596042    0.0544283005
 C   -1.0912631651   -2.1525148075   -0.0199334935
 O   -2.0903956194   -2.8425637665   -0.0436247612
 O    0.1474242441   -2.7404219796   -0.0515567231
 N    1.3284560235   -2.0113884018   -0.0370062956
 C    1.2171848429   -0.7260264034    0.0115878204
 H    0.8116226888    1.8782710199   -0.2374171876
 H   -0.8671382765    1.8567680300   -0.0612013294
 H   -2.9913742680   -0.9129120268    0.0243081102
 H    2.1733083789   -0.2083638892    0.0284669659