23

 C    0.0216445344    1.5545523772   -0.0686420365
 C    0.0504686896    0.0170570102    0.0142780417
 C    0.6912145721   -0.5828351042   -1.2528278911
 C    0.7313541706   -0.4652358334    1.2694578241
 C    0.2079643328   -1.2845089273    2.1900295145
 C    1.1799928143   -1.6451473907    3.2601800835
 C    2.4018166636   -2.4096900010    2.7856324060
 C    2.4570980659   -0.9076474209    2.8900419253
 C    2.1596904546   -0.0790779236    1.6418065706
 H    1.0333967805    1.9677245894   -0.1457262029
 H   -0.5363707389    1.8833388370   -0.9515926351
 H   -0.4530732177    1.9903696006    0.8158152704
 H   -0.9883546303   -0.3356588614    0.0563099129
 H    1.7294319159   -0.2531101522   -1.3685410594
 H    0.6877096899   -1.6763546816   -1.2162962624
 H    0.1437286246   -0.2688983487   -2.1480278888
 H   -0.7994520596   -1.6866147122    2.1528347278
 H    0.8496427113   -1.7652939742    4.2863052018
 H    2.9635845716   -2.9714962511    3.5252978946
 H    2.3574744983   -2.8708008206    1.8035722360
 H    3.0931267874   -0.4808023689    3.6564912957
 H    2.8709558259   -0.2796404250    0.8300624999
 H    2.2347902432    0.9961578128    1.8533185014