17

 C   -0.1311908539    1.5317723482   -0.2359010040
 C    0.0079436091    0.0385323611   -0.0238642427
 C    0.8781941658   -0.7379394297   -0.9430249125
 N    1.2793086292   -0.5110119699    0.4577634170
 C   -1.2254748235   -0.6540911263    0.6039473194
 N   -1.0961062341   -2.0785515622    0.8846419941
 C   -1.5781453282    0.0437550711    1.8590113821
 N   -1.8341317401    0.6179813995    2.8283050773
 H    0.7589411068    1.9395320566   -0.7244863653
 H   -0.9942470978    1.7597439721   -0.8717830849
 H   -0.2730116698    2.0533188697    0.7155625799
 H    0.6568501622   -1.7727703018   -1.1867627407
 H    1.3858397116   -0.1882429452   -1.7311425335
 H    1.9864556426    0.2158672184    0.5239229410
 H   -2.0740231613   -0.5168140686   -0.0785025919
 H   -1.1501403243   -2.6074356684    0.0214460042
 H   -0.1785732243   -2.2441633147    1.2924158906