21

 C    0.8815743337    1.5134116345   -0.1893872059
 C    0.1429976797    0.1743238823   -0.0118330724
 C    0.4178868191   -0.7736643951   -1.1571393073
 C    1.1607379993   -1.8199158547   -0.7981905214
 C    1.5365998489   -1.7793657072    0.6682827533
 C    3.0093811056   -1.4304476035    0.8306822925
 O    3.8021888846   -2.0849762451    1.4572554393
 C    0.5581765979   -0.6872948930    1.2258425134
 C    1.0416129338    0.0685776958    2.4644622858
 H    1.9659201283    1.3736741935   -0.2478802897
 H    0.5645203368    2.0013621063   -1.1170038883
 H    0.6694441520    2.2002237949    0.6357277567
 H   -0.9285449937    0.4054924851    0.0525914316
 H    0.0647788937   -0.5798192182   -2.1650806316
 H    1.5079653414   -2.6048911327   -1.4607548589
 H    1.3949475765   -2.7369465638    1.1799805189
 H    3.3256541171   -0.5026674337    0.2995762934
 H   -0.3386984922   -1.2485514905    1.5116793498
 H    1.9370775476    0.6664261874    2.2704244177
 H    0.2653716969    0.7475618315    2.8325056748
 H    1.2818332929   -0.6291739936    3.2730416380