15

 N    0.1659038437   -1.1588766896    0.3655545732
 C    0.0862608531   -0.0259385781    0.1573949663
 C   -0.0751392866    1.4235027165   -0.0629628016
 C   -0.8869688283    2.0031164121    1.1148653808
 O   -1.2306683591    3.3516507549    0.8720834894
 C   -0.1973666908    4.2432637535    1.1055785358
 O    0.7768105434    4.3296455284    0.0666617166
 C    1.4910198846    3.2404677304   -0.3138787997
 N    1.2205583235    2.0080576270   -0.3509350054
 H   -0.6986387828    1.5472090803   -0.9609098040
 H   -1.8225644249    1.4483438467    1.2182811779
 H   -0.3125847585    1.9063961768    2.0471538190
 H   -0.6302723089    5.2424333346    1.1565325037
 H    0.3275671186    3.9931177512    2.0405547937
 H    2.4608377829    3.5664334553   -0.6889101957