15

 O   -0.0222322546   -0.0367341286    0.0025472731
 C    0.0047416633    1.1690184203    0.0089622011
 C   -1.1955049403    2.1362295300    0.0317924222
 O   -0.6415989706    3.4702105425    0.0312534375
 C    0.6935293453    3.3557084819    0.0113004504
 N    1.5948336434    4.2404693600    0.0032104052
 C    2.8709633009    3.4935894628   -0.0193214349
 C    2.5291471830    1.9518708228   -0.0232658451
 N    1.0757534374    2.0156806817   -0.0017161182
 H   -1.8264226830    2.0033457554   -0.8512733007
 H   -1.8005968688    1.9933451871    0.9312192982
 H    3.4470013235    3.7735605628   -0.9065362905
 H    3.4721356416    3.7634713739    0.8542470604
 H    2.8851967274    1.4347977485   -0.9180519551
 H    2.9110731414    1.4244798789    0.8546612465