21

 C    0.6009627478    1.3670867152   -0.2280578119
 C   -0.0109877961   -0.0076320125   -0.0570337961
 C   -1.4738085417   -0.1781065605   -0.4415522857
 C   -2.5216591918    0.4833402942    0.4494004664
 C   -3.9390395962    0.3509796775   -0.0675374666
 C   -2.2994389185    0.6700492117    1.8909597866
 O   -2.2094585637    1.7795042561    0.9821623951
 C    0.8664905098   -1.1892865908   -0.1173507690
 O    0.3831770235   -0.7084283401    1.1381898657
 H    1.6420868736    1.3598525960    0.1041081150
 H    0.5746246809    1.6657105009   -1.2821527833
 H    0.0421492945    2.1081603793    0.3458800081
 H   -1.6059200305    0.1989550612   -1.4650731510
 H   -1.7093871939   -1.2482503964   -0.4757923159
 H   -4.2313942976   -0.7018848783   -0.1446962470
 H   -4.6385750042    0.8593644313    0.6001537284
 H   -4.0308093986    0.7982929911   -1.0634987449
 H   -3.1581075208    0.6975293069    2.5611084497
 H   -1.3619821309    0.3563915791    2.3406043349
 H    0.4670941427   -2.1521871002   -0.4348892734
 H    1.9344357115   -1.0558030916   -0.2871969351