17

 O   -0.0541020529    1.3320396452   -0.2816462288
 N    0.0105224341   -0.0676543210   -0.2557466846
 C   -1.1152802182   -0.5991687511    0.0686358840
 C   -2.3485185538    0.1143404367    0.3832277402
 C   -3.3483334429   -0.5077139249    1.0185847986
 C   -3.2627071106   -1.9368544701    1.4806484659
 N   -2.2230631821   -2.7648400900    0.8630079422
 C   -2.2063107186   -2.8312391343   -0.5915538867
 C   -1.1356707896   -2.0840060640    0.1408958670
 H    0.8369091142    1.5686525749   -0.5588236466
 H   -2.4111461963    1.1587110671    0.1059506287
 H   -4.2621808053    0.0303873133    1.2593438275
 H   -3.0935372027   -1.9475958870    2.5673801919
 H   -4.2252907499   -2.4414673228    1.3263182828
 H   -1.9872128410   -3.8092768942   -1.0111797712
 H   -2.9282597825   -2.2384381050   -1.1490239772
 H   -0.1566020319   -2.5419962728    0.2446770264