23

 C    0.0654954657    1.5976538922    0.1003168079
 C    0.0093452075    0.0593512135    0.1359531930
 C   -1.3892569031   -0.4933332748   -0.0275971973
 C   -1.9574508940   -0.8461811650   -1.1881997862
 C   -1.3081785469   -0.7161779419   -2.5405428423
 C   -3.3612709651   -1.4148683611   -1.2070224704
 C   -3.7998310750   -1.8646191303    0.1836153859
 O   -3.5343515971   -0.8555660502    1.1399977052
 C   -2.1507698788   -0.6200085998    1.2761146057
 H    1.0829200512    1.9571233120    0.2855256703
 H   -0.2577828879    1.9778291036   -0.8736000694
 H   -0.5880873018    2.0396348999    0.8593527936
 H    0.6788552443   -0.3454285085   -0.6288253974
 H    0.4124321607   -0.2864820498    1.0977973422
 H   -1.1984814989   -1.6983654768   -3.0194013841
 H   -1.9380251417   -0.1170968046   -3.2115395813
 H   -0.3242814495   -0.2457566117   -2.5050479976
 H   -4.0634510126   -0.6646293426   -1.5980781001
 H   -3.4093378438   -2.2657622184   -1.9007220319
 H   -4.8759960867   -2.0560733895    0.2247449325
 H   -3.2783726752   -2.7973071524    0.4583484028
 H   -1.6827281402   -1.4164348634    1.8878232103
 H   -2.0585181710    0.3074692995    1.8551484886