19

 C    0.0290285672    1.5618658214    0.0503558416
 C    0.0298242318    0.0324906626    0.0203937230
 C    0.5927684513   -0.5651250813    1.3190911676
 N   -1.3284629456   -0.4277261457   -0.2823154220
 C   -1.5769698359   -1.7453828883   -0.5972053722
 N   -2.7288741477   -2.3043569211   -0.2755425208
 O   -2.6832234484   -3.5953247433   -0.8226420225
 C   -1.5043598459   -3.7638308634   -1.4262541062
 C   -0.7414912815   -2.6481366436   -1.3322621651
 H    1.0389026684    1.9457489488    0.2196103407
 H   -0.3495791743    1.9690991166   -0.8905845259
 H   -0.6063593050    1.9331465129    0.8636366651
 H    0.6625475098   -0.2900442391   -0.8154311102
 H    0.5779311701   -1.6583090371    1.2863421062
 H    1.6261009303   -0.2419821152    1.4831084241
 H   -0.0032426726   -0.2441454093    2.1809921962
 H   -2.0357354979   -0.0495373778    0.3363367039
 H   -1.3430368569   -4.7271762642   -1.8863501260
 H    0.2449904228   -2.4844626828   -1.7303161877