17

 O    0.0472688818    1.3708629533    0.3270823503
 C    0.0640930804    0.0198392620   -0.0962340369
 C   -1.3483100432   -0.5677587297   -0.0656383482
 C   -1.5909278399   -2.1174561423   -0.0883393232
 O   -0.4862480526   -2.8177610732    0.4222317025
 C   -2.6822199141   -1.9456931489    1.0356222814
 O   -2.6747480479   -2.9003363626    2.0614269849
 C   -2.0051649025   -0.6028524222    1.3125572316
 O   -1.7983900193   -0.0216917317    2.3463569074
 H   -0.2641578252    1.3721059522    1.2408086184
 H    0.4607893752    0.0119781909   -1.1159918807
 H    0.7225227071   -0.6012735475    0.5232943601
 H   -1.9932918247   -0.0639756364   -0.7936521142
 H   -1.9391468800   -2.5363033292   -1.0383530671
 H   -0.8385646342   -3.4168673952    1.0968260936
 H   -3.6840279334   -1.8303003766    0.6041503811
 H   -2.3960267177   -2.4495109330    2.8693897890