19

 C   -0.2704989863    1.5198405053    0.0524889966
 C    0.1841455596    0.1008545592   -0.0173520876
 O   -0.6372211530   -0.9188148509    0.6146755086
 C    0.7410873175   -0.8483470531    0.9858129506
 C    1.6067003618   -1.5466093989   -0.1004155777
 C    1.4972335225   -2.9502401389   -0.7102822706
 C    1.4689062962   -2.6290512111   -2.2462482597
 C    0.7874116747   -1.2585580418   -2.3110671502
 C    0.8751905769   -0.6900497463   -1.1148397250
 H    0.5508126039    2.2014308835   -0.1896877390
 H   -1.0814149320    1.7023797753   -0.6613673907
 H   -0.6398145047    1.7506579743    1.0549242866
 H    0.9621418522   -0.6993877648    2.0375280348
 H    2.6491966398   -1.2209994085    0.0239287977
 H    2.3026955592   -3.6361417501   -0.4333844805
 H    0.5415202664   -3.4020062951   -0.4256401658
 H    2.4843411380   -2.6069021778   -2.6680270103
 H    0.9150934256   -3.3827959567   -2.8167908442
 H    0.2633996117   -0.8993482935   -3.1889838738