23

 C    0.5545656881   -0.9131526506   -1.2003135127
 C   -0.2229784919   -0.5217271099    0.0575418828
 C    0.5287417419   -0.6895292688    1.3765023579
 C   -0.2065930824    0.0110668185    2.5269233825
 O   -0.1670805395    1.4130491695    2.3583955455
 C    1.1038416929   -2.0727449440    1.7548049802
 C    2.4563500441   -1.3377979109    1.8715396751
 C    3.6341017873   -1.8380709268    1.0619454809
 O    1.8796225327   -0.1211643653    1.3217685068
 H    0.8064696017   -1.9791815733   -1.2179317124
 H   -0.0391125562   -0.7058660111   -2.0956770407
 H    1.4857953634   -0.3455325081   -1.2681913555
 H   -0.5276731654    0.5287703952   -0.0090119408
 H   -1.1484235691   -1.1086884745    0.1310496150
 H   -1.2611721476   -0.2863842033    2.5517491807
 H    0.2480396704   -0.2872806840    3.4859538532
 H    0.7619579569    1.6170266528    2.1840711967
 H    0.7071203439   -2.5224461598    2.6674031230
 H    1.0761277879   -2.8088863293    0.9491124869
 H    2.7620676610   -1.1707742490    2.9135905200
 H    3.3399641331   -2.0397958103    0.0278985432
 H    4.4357388072   -1.0926960122    1.0529942425
 H    4.0310744695   -2.7607422546    1.4995303893