19

 C    0.0745889935    1.5470944754   -0.0203710087
 C    0.0509728770    0.0206558688   -0.1562685890
 C   -1.3406239146   -0.5742267375    0.0309196772
 C   -1.5387254538   -2.0867411550   -0.0550087799
 C   -0.9610673850   -2.8034967706    1.0960358483
 N   -2.2795350710   -2.1611253546    1.2766681085
 C   -2.0070422348   -0.6822795620    1.4532031400
 C   -1.2054894649   -0.3305560087    2.6192634718
 N   -0.5486394801   -0.0543200117    3.5303924809
 H    1.0826953943    1.9384240999   -0.1834549327
 H   -0.5903694313    2.0199748491   -0.7517210884
 H   -0.2433471612    1.8624124787    0.9783013048
 H    0.4091201454   -0.2695948157   -1.1524770021
 H    0.7488318801   -0.4233955059    0.5621099221
 H   -2.0459948933   -0.0634831249   -0.6313473437
 H   -1.9151786916   -2.6082927760   -0.9288334969
 H   -1.0361034401   -3.8860153531    1.0928599618
 H   -0.1007945896   -2.4130806820    1.6326688383
 H   -2.9601964591   -0.1533062542    1.5107528378