16

 C    0.1128075872    1.3422017740    0.6018801272
 C   -0.0265881508   -0.0659977287    0.0754693412
 C   -1.3253237799   -0.5830752808   -0.3692234242
 O   -0.3351974911   -0.1764711336   -1.3160124130
 N    1.3862928975    1.9362799373    0.2277919685
 C    1.8801839358    2.2031518565   -1.0008432485
 N    3.0837066230    2.7387033030   -0.9075672619
 C    3.2850944803    2.7763115816    0.4378438644
 N    2.2910052658    2.3027363730    1.1718069277
 H   -0.7063392646    1.9592663459    0.2185293694
 H    0.0809367037    1.3556797034    1.6932399853
 H    0.7289866117   -0.7698650919    0.4244610795
 H   -1.5201698271   -1.6527560493   -0.3252390077
 H   -2.2073506961    0.0533864021   -0.3122123227
 H    1.3349994440    1.9829510253   -1.9058777795
 H    4.1860279608    3.1636114223    0.8898079245