16

 O    0.1191702935    1.3139949798   -0.1755940539
 C    0.0600449163   -0.0590080831   -0.0767614005
 C   -0.3832817384   -0.8337142355   -1.3343696601
 C   -0.1226665051   -2.3125047571   -1.1569543478
 N   -0.7417165097   -2.2404449353    0.2273304450
 C    0.3255219977   -2.0726079886    1.2315591089
 C    0.9445241781   -0.7041117799    0.9341229104
 O    1.8713923207   -0.1403232659    1.4704397956
 C   -1.2299471753   -0.8567417737   -0.0911630703
 H    0.8660877929    1.5728931764    0.3860271332
 H   -0.5327661317   -0.2621662699   -2.2426167193
 H   -0.7381297780   -2.9426191430   -1.8060539857
 H    0.9129408091   -2.6708205561   -1.1804858894
 H   -0.1095131528   -2.0529833325    2.2381943361
 H    1.0527767407   -2.8875906084    1.1971512882
 H   -2.2213940280   -0.4939129872    0.1468120394