19

 O    0.0691825277    0.9065608251   -1.0409297952
 C   -0.0133506820   -0.1603259626   -0.1467108345
 C    0.1114152238    0.0731917233    1.3916320158
 N   -1.0816189276   -0.8088286823    1.6570987696
 C   -2.3144689103   -0.0022193441    1.9286477006
 C   -2.5343221217    0.1992524765    0.4263681862
 C   -3.7441403553    0.5203499628   -0.3520429958
 N   -2.6319440798    1.4935585083   -0.2723789330
 C   -1.3923342278   -0.7873652618    0.1613718868
 H   -0.7696118797    1.3940320506   -0.9833429039
 H    0.6971019821   -0.9228567997   -0.4814356732
 H    1.0231224808   -0.2915407882    1.8717629692
 H   -0.0429454281    1.1216916298    1.6750397683
 H   -3.0842452960   -0.6122080007    2.4138673247
 H   -2.1474252200    0.8994329938    2.5300999089
 H   -3.8938134628    0.0786890216   -1.3332694784
 H   -4.6586624951    0.7476844219    0.1896275786
 H   -2.8584477214    2.2308526003    0.3910584786
 H   -1.6698634368   -1.7288765044   -0.3204192133