19

 C   -0.0153808504    1.6555188801   -0.0110981732
 C    1.5055584252    1.3589318557    0.0107279461
 C    1.1457088905    0.1150466474    0.9184727260
 C   -0.0776243887    0.1036188257   -0.0251716220
 O   -1.2808560899   -0.6042699903   -0.0145241089
 C   -1.5936379411   -0.8170270170   -1.4080666778
 O   -0.5665045256   -0.2473251481   -2.2087390653
 C    0.5660358098   -0.2785736615   -1.3480037761
 C    1.6901085234    0.7736760875   -1.4232692611
 H   -0.3900683889    2.0666540406    0.9284552634
 H   -0.4244663499    2.1975209660   -0.8668476468
 H    2.2274550110    2.0981395525    0.3538561474
 H    1.8086618024   -0.7548034451    0.9125220976
 H    0.9219881084    0.4215796470    1.9417342017
 H   -1.6696000565   -1.9030145723   -1.5692300479
 H   -2.5379780957   -0.3267686162   -1.6673423898
 H    0.9681543549   -1.3024325880   -1.3139209264
 H    1.5158141718    1.5310467351   -2.1918650580
 H    2.6688226293    0.3202944309   -1.5980865789