23

 C   -0.0053113805    1.5367832387   -0.1872106776
 C   -0.1166055833    0.0250452409   -0.1962004158
 C   -0.2390764233   -0.7454036894    1.0952684442
 C   -1.4174344464   -0.6488862244    0.1565265090
 C    1.4116428031    2.0412045424   -0.0432670849
 C    2.6239358721    1.7629108194   -0.9927518576
 C    3.1756486935    2.6903678406    0.1249011169
 C    1.8782299094    3.5311847749   -0.0285590493
 C    2.4025146428    1.8088916526    1.1438728563
 H   -0.4320867300    1.9434701928   -1.1151077323
 H   -0.6158673620    1.9408179796    0.6322842555
 H    0.4652709377   -0.4575286406   -0.9776951401
 H    0.2729248684   -1.6972000079    1.1849398317
 H   -0.2826263518   -0.1785291850    2.0197493634
 H   -2.2495592863   -0.0178566263    0.4521922453
 H   -1.7093626750   -1.5342240815   -0.3976055723
 H    3.0074438330    0.7384921568   -1.0137050875
 H    2.5631845560    2.1874406073   -1.9996893917
 H    4.1948124325    3.0659164518    0.2216007188
 H    1.7600836706    4.0900280969   -0.9621610192
 H    1.5735762445    4.1297799831    0.8355742861
 H    2.1389087647    2.2763795391    2.0978271819
 H    2.7669104004    0.7879493482    1.2870110390