15

 O   -0.1355823546   -0.0305419090    0.2601947806
 C   -0.0824423323    1.1454940008    0.0181729006
 C    1.2218145084    1.9436571466   -0.0465982528
 N    2.3646520291    1.0575280571    0.0634876643
 C    3.4239143640    0.9522925660   -0.8030944320
 O    4.2899873727    0.1074957451   -0.7058435492
 N    3.4445706042    1.9140457649   -1.8097796334
 C    2.3637291399    2.7363510060   -2.0820811380
 C    1.2912518197    2.7876581710   -1.2907906216
 H   -0.9981477556    1.7567467099   -0.1424795753
 H    1.1665529645    2.6121279358    0.8384970201
 H    2.2378483314    0.2393237324    0.6414977059
 H    4.2014662622    1.8154280602   -2.4650340226
 H    2.4568096995    3.3438691964   -2.9745163795
 H    0.4659225671    3.4502071469   -1.5137843872