18

 C   -0.0027772083    1.4130432727    0.0661396980
 O    0.0168979510   -0.0062765037    0.0055706360
 C    0.6296511241   -0.6320306908    1.0325600151
 C    0.7785226583   -1.9866420312    1.1612866397
 N    1.4510877253   -2.1515112482    2.3756794811
 C    1.7984930561   -3.4066836424    3.0033003615
 C    1.6774820019   -0.9078143242    2.8681576218
 N    2.2815615083   -0.7021382785    4.1131091341
 N    1.1932027894    0.0398409311    2.0853569438
 H    1.0111514762    1.8275613949    0.0777722989
 H   -0.5288393585    1.7423090000   -0.8320126701
 H   -0.5292957346    1.7686943702    0.9582611792
 H    0.4965901494   -2.8183448013    0.5411596684
 H    2.7249736651   -3.8287530295    2.5952293491
 H    1.9246166612   -3.2404232078    4.0753173401
 H    0.9929186393   -4.1303024088    2.8531240706
 H    3.2444895093   -1.0201160233    4.1482751193
 H    2.2578239164    0.2878825106    4.3260148332