20

 C    0.1075612412    1.5381401681    0.5013960912
 C    0.0351127724    0.1262755180   -0.0911628013
 C    0.9078141248   -0.8607272765    0.6883040762
 C   -1.4227825469   -0.3611006718   -0.1193060201
 O   -1.9046593652   -0.4026569056    1.2136038669
 O    0.3527659314    0.1467822938   -1.5039529863
 C    1.6656796719    0.4568888305   -1.8855710040
 C    2.5401893990   -0.7295045486   -1.9975117699
 N    3.2256404782   -1.6532376537   -2.1056644051
 H    1.1380400462    1.8900344496    0.6102705978
 H   -0.4383622394    2.2432990921   -0.1324378025
 H   -0.3506598081    1.5376063471    1.4927951576
 H    0.5089939245   -0.9654156128    1.6997871383
 H    0.9028217842   -1.8437312444    0.2097443188
 H    1.9444222478   -0.5205246714    0.7647945413
 H   -2.0090579460    0.3289682068   -0.7434533684
 H   -1.4475901954   -1.3519219445   -0.5944309238
 H   -2.8047480288   -0.7387332771    1.1989041531
 H    1.6105830879    0.9205936010   -2.8769663974
 H    2.1482368004    1.1813209194   -1.2176608926