17

 C   -0.0033721636    1.4556282170    0.0328469060
 O   -0.0411311657    0.0418540966    0.0187115037
 C    0.5771598610   -0.5463247372   -1.0302319769
 C    1.2424946383    0.0052288591   -2.1086790819
 N    1.6595476990   -1.0595852051   -2.8529703709
 N    1.3035405542   -2.2427280977   -2.3371483260
 C    0.6395988787   -1.9506470545   -1.2173544935
 C    0.1327060308   -3.0318387463   -0.3156501935
 O    1.0758367814   -3.4047220797    0.6871376738
 H    1.0307788206    1.8249762059    0.0695901292
 H   -0.4997573707    1.8764400265   -0.8527538741
 H   -0.5334362708    1.7763010910    0.9308128049
 H    1.4444606554    1.0217656588   -2.3998369092
 H    2.1619299645   -1.0360800941   -3.7231415425
 H   -0.7497422831   -2.6815147078    0.2263223944
 H   -0.1594600607   -3.8964442331   -0.9280559141
 H    1.8832586308   -3.6556578895    0.2258688406