22

 C   -0.0579283441    1.5820385387    0.3038813605
 C    0.0487649527    0.0793904125    0.0975081421
 C    1.0114862460   -0.4693153299   -0.9941283867
 C    1.4044929786   -1.6149573378   -0.0339749828
 C    0.8030568191   -3.0389030147   -0.2083345290
 C    2.1201025718   -3.6252788773    0.3674065545
 C    2.8053849849   -2.2629942859    0.0732415886
 C    0.8304750958   -0.7715050619    1.1380815989
 H    0.9325162323    2.0286163004    0.4505814347
 H   -0.5186783472    2.0724213510   -0.5613068036
 H   -0.6647943720    1.8229311667    1.1842766796
 H   -0.9505604457   -0.3461877668   -0.0482368722
 H    0.5876840625   -0.7476014501   -1.9641267971
 H    1.8501939770    0.2164848435   -1.1646826312
 H   -0.1299881656   -3.2623944601    0.3175040600
 H    0.6750037282   -3.2931226904   -1.2659174942
 H    2.0453782175   -3.8203247994    1.4407956621
 H    2.5303500414   -4.5144860898   -0.1168071016
 H    3.3219047286   -2.2672605894   -0.8927689937
 H    3.4860653921   -1.8574730883    0.8278818996
 H    1.6140637730   -0.1783193397    1.6242568882
 H    0.2584011532   -1.2930893312    1.9115903736