17

 C   -0.6488687720    1.3148054618   -0.5129863772
 N   -0.2144702571   -0.0341576567   -0.1880708697
 C    0.8327566932   -0.5033136034   -0.7005983119
 C    1.3420815383   -1.8907602034   -0.3849611566
 C    1.8827438897   -2.5803402416   -1.6145332167
 N    1.6772302034   -3.7982459154   -1.8662018616
 O    2.6025061985   -1.7615372208   -2.4514586372
 C    2.8092716266   -0.4460774736   -1.9774634913
 O    1.6030250902    0.1849669408   -1.6164078210
 H    0.1250327592    1.9418290763   -0.9688945807
 H   -1.5001682717    1.2622868531   -1.2022039745
 H   -1.0086928569    1.7961866498    0.4015580127
 H    2.1542199105   -1.8101912880    0.3527956519
 H    0.5510128073   -2.4868192011    0.0628146051
 H    2.1393326773   -4.0670233529   -2.7372709919
 H    3.5074445132   -0.4545798535   -1.1286123153
 H    3.2304687104    0.1231413788   -2.8057167442