18

 O   -0.3125334226    1.4268477805   -0.2453803506
 C   -0.1297597936    0.0450816269   -0.1363994558
 C   -0.2727861122   -0.6251105110    1.2041888003
 C   -1.3629049229   -0.7795613065    0.1569659168
 C   -2.7422479852   -0.1219147634    0.3182375117
 C   -3.6950737325   -0.9486927339   -0.5922173660
 C   -2.8767797548   -2.1638160440   -0.9624979413
 C   -1.6115061731   -2.0598251075   -0.5569131718
 H    0.4263562131    1.8611898947    0.1934190112
 H    0.5930903571   -0.3731584658   -0.8380889737
 H    0.3598876376   -1.4768436343    1.4347426918
 H   -0.5008500792    0.0175254913    2.0495513255
 H   -3.0677639953   -0.1875765757    1.3613467095
 H   -2.7126060677    0.9360461039    0.0521869674
 H   -4.6290890208   -1.2121469717   -0.0822120395
 H   -3.9884515563   -0.3904109718   -1.4916697674
 H   -3.2861976204   -2.9971068774   -1.5227400017
 H   -0.8288564911   -2.7913273044   -0.7284961065