18

 O   -0.0440795891    1.4213800842   -0.0161189567
 C   -0.0062255119    0.0041844547   -0.0162698290
 C    0.7013545875   -0.4982303128    1.2465157323
 O    0.6399966755   -1.9257085902    1.4148769848
 C   -0.5441701063   -2.5508360094    1.1865915828
 N   -0.9133900331   -3.5827572984    1.8186278568
 C   -1.4002564719   -2.0512796375    0.0307497829
 O   -2.6953487611   -2.5807250691    0.0996253288
 C   -1.4345130602   -0.5223913690   -0.0242143575
 H    0.8449013166    1.7522641834   -0.1803358883
 H    0.5256306006   -0.3751935123   -0.9032854779
 H    1.7680544169   -0.2573827105    1.2337084579
 H    0.2456008951   -0.0097466136    2.1174673312
 H   -0.2509938042   -3.8357746096    2.5515825864
 H   -0.8869648190   -2.4086076812   -0.8829792819
 H   -2.6309140555   -3.3372200464    0.7045755821
 H   -1.9759198724   -0.1333058837    0.8457942632
 H   -1.9656969974   -0.1918498085   -0.9204385181