16

 C   -0.2757810135    1.3395545999   -0.4630384806
 C   -0.0532518451   -0.1130137935   -0.1738070525
 C    0.3476618249   -1.1061375611   -1.0449907149
 N    0.4476506538   -2.2615098560   -0.3431445240
 N    0.1446138408   -2.0952415256    0.9599020261
 C   -0.1652573791   -0.8067459714    1.0578053245
 O    0.6853960909   -1.0922492966   -2.3640173669
 C   -0.2909240758   -0.7414265587   -3.2569616569
 N    0.0101297882   -0.6215002924   -4.4704570428
 H    0.1997265806    1.9680540065    0.2965550484
 H    0.1491513301    1.6184321391   -1.4316589098
 H   -1.3399598419    1.6022945323   -0.4790567208
 H    0.7531934363   -3.1563770231   -0.6876655149
 H   -0.4532311209   -0.4002477918    2.0172492405
 H   -1.2678069710   -0.6075073709   -2.7795677334
 H   -0.8139305083   -0.3735470868   -5.0140138420