19

 C   -0.0105473084    1.6305626097   -0.1444383260
 C   -0.0406925388    0.1377003131    0.0536717419
 O    1.1909791021   -0.6011256933   -0.0933564464
 C    0.5980980001   -0.5667903934    1.1994502912
 C    1.3204206005    0.1249197457    2.3030797967
 C    0.7664335171    0.0335109225    3.7065606363
 C    2.0244092584   -0.7090129839    3.3504183470
 C   -1.2009881800   -0.5886838810   -0.5606112367
 O   -2.1953582597   -0.0532064946   -0.9788911757
 H    0.8545397490    2.0844011603    0.3392519504
 H    0.0260647688    1.8654164117   -1.2121808826
 H   -0.9240784343    2.0760394622    0.2581705253
 H    0.1516150113   -1.5198473121    1.4997286973
 H    1.8035271874    1.0541080735    2.0255011107
 H    0.8390556433    0.9129796333    4.3357191179
 H   -0.1399313967   -0.5440191674    3.8566266427
 H    1.9690351561   -1.7884348401    3.2561314720
 H    2.9704868253   -0.3435474418    3.7326133072
 H   -1.0560945015   -1.6918626042   -0.5998589894