21

 C   -0.5327727850    1.5412088086    0.0840279515
 C   -0.0710710816    0.1195087708   -0.0574022190
 C   -0.1744484809   -0.5851510570   -1.1886887536
 C    0.3389272375   -2.0028122715   -1.2696287213
 C   -0.0466053948   -2.7800041636   -0.0024308074
 O    0.9707973700   -3.7022531025    0.4606739219
 C    0.9970413879   -3.0860782076    1.7650367762
 C    0.0213032654   -1.9773368134    1.3161229628
 C    0.5672335090   -0.5508001649    1.1447636267
 H   -1.2859940581    1.6380595667    0.8770424119
 H    0.2980140289    2.2013616485    0.3661932668
 H   -0.9651988569    1.9208969707   -0.8458297815
 H   -0.6182656600   -0.1408447348   -2.0755312976
 H   -0.0272246442   -2.5080386747   -2.1678788018
 H    1.4361825515   -2.0126858684   -1.3303745118
 H   -1.0009522775   -3.3013360125   -0.1512625768
 H    0.6140332422   -3.7590828776    2.5433182093
 H    2.0069773712   -2.7590605396    2.0451205910
 H   -0.9215779013   -1.9514323003    1.8663457127
 H    1.6563072460   -0.5966741566    0.9967713729
 H    0.4076057106    0.0366667396    2.0550101272