14

 N    0.0248063305    1.3395149866    0.1424090226
 C   -0.0048096558   -0.0349222529    0.0582440295
 N   -1.1645416164   -0.6468733673    0.0483197127
 C   -1.1612347250   -2.0154284976    0.0394289687
 O   -2.1655738662   -2.7104786441    0.0139657350
 C    0.1875951070   -2.6858442512    0.0350970776
 N    0.1422230865   -4.0379655089    0.0658233127
 N    1.3159141349   -2.0439686601    0.0167414898
 N    1.1795353388   -0.6751557259    0.0299849005
 H    0.7833637246    1.8192457261   -0.3186887167
 H   -0.8830592188    1.7467084324   -0.0299569639
 H   -0.7736620932   -4.4284761263   -0.0973309802
 H    0.9667390181   -4.5724318284   -0.1466199469
 H    2.0528573050   -0.1825930723    0.1178755787