15

 C   -0.0841216551    1.5252791020    0.1298169029
 C   -0.0035004344    0.0412381607   -0.0201399836
 C    0.0491081126   -0.7354582819   -1.1594748389
 C    0.0678928092   -0.4349443480   -2.6207776551
 O   -0.3184904654   -1.6178281894   -3.3084195558
 N    0.1275889721   -2.0001836631   -0.6850196383
 N    0.1096968347   -2.0316569972    0.6573588099
 N    0.0387385054   -0.7944735098    1.0604314000
 H    0.8827183688    2.0108585639   -0.0477156193
 H   -0.8044727128    1.9650581007   -0.5685360421
 H   -0.3972847478    1.7696821468    1.1471597810
 H   -0.6140476886    0.4031447393   -2.8319440442
 H    1.0761366012   -0.1139072388   -2.9289193012
 H   -0.1627788844   -1.4879704807   -4.2482644211
 H    0.1296975446   -2.8506801544   -1.2258678642