21

 C    0.0598448862    1.4786015309   -0.0715357993
 C    0.0406513078   -0.0374222400    0.0145204785
 O    0.5971655430   -0.5586408238   -1.1868656513
 C    0.6370955215   -1.9308673295   -1.2480035857
 C   -0.5261141220   -2.9495282277   -1.2641670539
 C    0.7587085098   -3.7867514218   -1.4361956146
 C    1.4563836153   -2.7001661235   -2.3270770010
 C    2.7354091609   -2.7091188806   -1.4644974303
 C    1.5928518022   -2.9061136376   -0.4467755950
 H    1.0838024404    1.8433179662   -0.1925128478
 H   -0.5287188160    1.8212631618   -0.9272460163
 H   -0.3608109521    1.9171386949    0.8383386427
 H    0.6249722619   -0.3874761681    0.8790693891
 H   -0.9882505953   -0.4057643706    0.1430319226
 H   -1.0836585252   -3.0952765236   -0.3332538118
 H   -1.2042503869   -2.9056124075   -2.1226501160
 H    0.8579893995   -4.8632196268   -1.5574399997
 H    1.3421751630   -2.5897373108   -3.4065117849
 H    3.4172726046   -3.5534300472   -1.6065027168
 H    3.2907744699   -1.7690909483   -1.4048380243
 H    1.6389179218   -3.0352302166    0.6357956060