20

 C   -0.1427953055    1.4573284897   -0.5103181545
 C   -0.0235173941    0.1842958366    0.3367483761
 C   -1.3355205317   -0.5634109112    0.4071342373
 O   -1.7470553295   -1.2895879954   -0.7575781713
 C   -1.4838307243   -2.0261305879    0.4410756435
 C   -0.3296109076   -2.9939050541    0.4360436754
 O   -0.8274349871   -4.2607330107    0.0643375083
 C    0.1710060865   -5.2514734858    0.0328962383
 H    0.8091405725    1.9945590720   -0.5514781066
 H   -0.4412882065    1.2100774603   -1.5333012124
 H   -0.8946301720    2.1386755931   -0.0972108824
 H    0.7554892622   -0.4628906998   -0.0768476010
 H    0.2839337430    0.4420066488    1.3587979603
 H   -2.1455267187    0.0138167836    0.8619196714
 H   -2.3765114848   -2.4369625033    0.9158645454
 H    0.4473881375   -2.6583813710   -0.2664128688
 H    0.1237196779   -3.0403392539    1.4430581491
 H    0.9584368535   -5.0167917716   -0.7008746108
 H    0.6493255089   -5.3817325990    1.0172875389
 H   -0.3091135302   -6.1901855903   -0.2534157862