18

 O    0.1130110580    0.2377146224   -1.0738202696
 C    0.0537593141    1.2041009422   -0.3733544734
 C   -1.0816740609    1.8811536421    0.4180149919
 C   -0.1009710832    3.0497548582    0.7540123181
 C    0.3629156913    3.2654087566    2.2087792132
 C    1.6509970824    2.4597138251    2.3503335063
 C    1.6070561032    0.9988460410    2.1084937599
 N    2.0828075427    1.9053918186    1.0436983671
 C    1.0744906085    2.2944565440    0.0398778758
 H   -1.9489661716    2.1415803959   -0.1957951493
 H   -1.4383673887    1.2982377000    1.2744043854
 H   -0.3978145449    3.9852126505    0.2786045455
 H    0.5747222561    4.3242992566    2.3847640922
 H   -0.3964478587    2.9659643832    2.9391407070
 H    2.4412765183    2.8731049382    2.9714114082
 H    2.3805581310    0.3531061159    2.5140211154
 H    0.6378505824    0.5166135916    2.0165260079
 H    1.5773557598    2.7968988280   -0.7908086517