16

 C   -0.0139300677    1.4622872497    0.0319003551
 N   -0.0071935922    0.0187895462    0.0391003575
 C   -0.0355108396   -0.8302586203   -1.0672232658
 N   -0.0207724216   -2.1056574397   -0.7691869447
 C    0.0199866729   -2.1309591230    0.6139154368
 C    0.0284220562   -0.8378797551    1.1066361147
 N    0.0667997960   -0.8474558666    2.4694883384
 C    0.0846362181   -2.1933137171    2.8547207436
 C    0.0564183980   -3.0049853343    1.7446058919
 H    0.8890062924    1.8677146695    0.5030272334
 H   -0.0459177863    1.8093972065   -1.0027080172
 H   -0.8912713589    1.8596251032    0.5553687809
 H   -0.0663960349   -0.4118681401   -2.0634489781
 H    0.0847949915   -0.0651307638    3.0973838225
 H    0.1161902592   -2.4446724716    3.9025454313
 H    0.0615015569   -4.0834408834    1.7579390897