17

 C   -0.1659484774    1.5050303698    0.0785219495
 C    1.3683476910    1.5508962585   -0.1624369297
 N    1.4402136212    0.1478074811    0.2750446366
 C   -0.0232334450   -0.0300245803    0.2695424798
 C    2.3513974521   -0.7410016325   -0.1988809911
 N    3.5030016024   -0.4872621004   -0.7498683758
 C    4.0327059876   -1.7543662857   -0.9882018166
 C    3.1666825687   -2.7018232537   -0.5759394032
 O    2.0576923554   -2.0558934474   -0.0555357720
 H   -0.4830731596    2.0287653548    0.9812091719
 H   -0.7883470440    1.8227666085   -0.7576278118
 H    1.6624006610    1.6829701014   -1.2101217406
 H    1.9499529299    2.2396232092    0.4562464222
 H   -0.4244113066   -0.4555423799    1.1937150839
 H   -0.3827911910   -0.6248162918   -0.5790654091
 H    5.0017100141   -1.8821048212   -1.4447019860
 H    3.1407562603   -3.7766289206   -0.5642205080