15

 C   -0.0475280467    1.5428256337    0.0329164196
 C   -0.0500035650    0.0470684721    0.0339707165
 C   -1.1649967025   -0.7079046843   -0.0128502624
 O   -2.4266711857   -0.2067529999   -0.0026419491
 N   -1.0595490276   -2.0848283402   -0.0440054897
 N    0.1200903727   -2.7598475549    0.0306516173
 N    1.1919154013   -2.1070980869    0.0725128756
 C    1.2184117937   -0.6729823541    0.0770613936
 N    2.3389516216   -0.0548057775    0.1125376256
 H    0.5879862202    1.9125950954   -0.7781422084
 H   -1.0556097190    1.9455633766   -0.0730987396
 H    0.3963538071    1.9213708681    0.9599784212
 H   -2.9729021889   -0.6666864983   -0.6519453428
 H   -1.8641129978   -2.6731495968    0.1071568198
 H    3.0943977266   -0.7430356729    0.1265892326