15

 O   -0.0313486875   -0.0330114611    0.0096722307
 C    0.0325717748    1.1643329891   -0.1086833411
 C    1.2776101967    1.9460202918   -0.0505271351
 C    1.3616634185    3.3971139349    0.3373154894
 C    1.8162675134    3.0242534016   -1.0514162202
 C    3.1086684397    2.2045809511   -0.9415231657
 O    2.5398088009    1.3216931754    0.0583440912
 C    1.2632860400    3.5524176734   -2.2453450863
 C    0.8211819868    4.0053335510   -3.2690730398
 H   -0.8674218567    1.7972583734   -0.2775968442
 H    0.4213267760    3.9373330857    0.3682305423
 H    2.0902677629    3.6708129495    1.0950862979
 H    3.3357110248    1.6526740479   -1.8577442322
 H    3.9973858459    2.7315644150   -0.5785071206
 H    0.4264993539    4.4018173113   -4.1719312762