13

 O   -0.0501792621   -0.0888516724    0.0040499251
 C    0.0218061752    1.1237155720    0.0091400189
 N   -1.1685452346    1.8982667546    0.0284158981
 C   -1.2341705962    3.2452288496    0.0357166621
 C   -0.0860644255    3.9954143411    0.0242198220
 C    1.1688396131    3.2981087128    0.0043300711
 C    1.2218080841    1.9420930234   -0.0028662819
 C   -0.1515005786    5.4161422549    0.0318698001
 N   -0.1933872588    6.5738998295    0.0379518369
 H   -2.0173579165    1.3477338451    0.0369213250
 H   -2.2213528219    3.6903264764    0.0508140520
 H    2.0821784395    3.8831432376   -0.0049367571
 H    2.1630483923    1.4073633454   -0.0178910822