22

 C   -0.8758888316    1.0349589026   -0.0422473540
 C    0.0441369284   -0.1837748542   -0.1114630848
 C    1.0835571532   -0.1362895330   -1.2162443790
 N    2.2660221426    0.6981551892   -0.8954146841
 C    2.3323826762   -0.7758754824   -0.7458310869
 C    2.1315633208   -1.2488934877    0.6788764026
 C    0.8463591821   -0.5197103036    1.1899631866
 C    1.2044718657    0.6960664280    2.0480745906
 O    0.0070317606   -1.4019748424    1.9433261873
 H   -0.3047997289    1.9616740822    0.0630702654
 H   -1.4740715101    1.1144878572   -0.9564290069
 H   -1.5699452870    0.9551733447    0.8000140903
 H   -0.5732053896   -1.0726958996   -0.2955177410
 H    0.7596491063   -0.1977195495   -2.2510283142
 H    2.7287706796    0.9630101931   -1.7613326648
 H    2.9780112757   -1.3353021671   -1.4154774577
 H    1.9373721978   -2.3268648469    0.6794594084
 H    2.9985633739   -1.0588688781    1.3209803214
 H    1.8185126503    1.3998836705    1.4836377859
 H    0.3045446773    1.2036746816    2.4050806572
 H    1.7810071805    0.3708972765    2.9242828733
 H    0.3726025962   -1.4683616811    2.8316737843