17

 O   -0.3383518222    1.2715063953    0.1447008036
 C    0.0130295694   -0.0745767851   -0.0341257389
 C    0.8751377722   -0.2356773344   -1.2915407031
 O    1.2072240847    0.7185621608   -1.9465148042
 C    0.7554170531   -0.6559232842    1.0877754382
 C    1.3904421878   -1.1426848657    1.9906019434
 C    2.1341070925   -1.7118258865    3.0741113195
 C    1.6224389217   -1.5737188892    4.5013309823
 C    1.5842787263   -2.9126253692    3.8312517116
 H    0.1691505776    1.7592620374   -0.5241203151
 H   -0.8997041016   -0.6739993986   -0.2009653528
 H    1.1815890321   -1.2693324093   -1.5404192862
 H    3.2132398113   -1.6808940326    2.9560072679
 H    2.3632309106   -1.3986457573    5.2729633227
 H    0.6882828443   -1.0428198325    4.6381617755
 H    0.6229377145   -3.2964312232    3.5117716290
 H    2.2971339657   -3.6694931558    4.1382268864