23

 C   -0.1888697002    1.6030684603   -0.0593525311
 C    0.1151287678    0.1059036779    0.0386056787
 C    1.3506177177   -0.6906585386   -0.3274383722
 C    1.3523253694   -1.7712188837   -1.3724439900
 C    2.7032185139   -0.1182113453    0.1899658546
 C    2.6400040769    1.1535891587    0.9908234556
 C    2.1720859542   -0.1328725886    1.6144561462
 C    0.8147633615   -0.7054174554    1.1096830605
 C    0.1391808336   -1.8046222074    1.8810372173
 H    0.4832049575    2.1217546319   -0.7487592127
 H   -1.2061641721    1.7461659905   -0.4371522260
 H   -0.1355773432    2.1047036107    0.9109682357
 H   -0.7478697544   -0.4759527087   -0.2891720615
 H    1.5954683114   -1.3667288419   -2.3637406021
 H    2.0949247924   -2.5464267551   -1.1463525718
 H    0.3744115537   -2.2577962315   -1.4460279717
 H    3.6451644138   -0.5163623894   -0.1674272498
 H    3.6128425382    1.4738512292    1.3568649168
 H    1.9843098402    1.9775848151    0.7548196064
 H    2.6528390191   -0.5437510798    2.4939856469
 H   -0.3288442908   -1.4196920963    2.7965593749
 H   -0.6448149403   -2.2859495086    1.2876045062
 H    0.8537477197   -2.5805375941    2.1824790892