21

 O   -0.2093061287    1.3454622051   -0.9321705962
 C    0.0019571714    0.1975230578   -0.1197268701
 C   -1.3328454224   -0.4717941524    0.0782935611
 C   -1.8728290867   -1.4389558889   -0.9462690777
 C   -1.4809613953   -1.9369108809    0.4245427250
 C   -0.3083979750   -2.8795345888    0.6128483062
 C   -0.7152839154   -4.3530405587    0.4091757808
 C    0.4265349235   -5.2957434107    0.7069399185
 O    0.8836112054   -6.0990439838   -0.0646160100
 H    0.6247303560    1.8198326036   -1.0001558894
 H    0.7140919574   -0.4938877199   -0.5953544439
 H    0.4266127160    0.4806849046    0.8573848607
 H   -2.0621855456    0.1896903664    0.5380864955
 H   -2.9223798333   -1.3896411813   -1.2133020410
 H   -1.2165970403   -1.6943677270   -1.7733231110
 H   -2.3098121602   -2.1555579173    1.0948672946
 H    0.4953884927   -2.6356216380   -0.0901119558
 H    0.1123962631   -2.7570657808    1.6203631709
 H   -1.5347327656   -4.5948592269    1.1020441256
 H   -1.0677576324   -4.5317895775   -0.6102439047
 H    0.8483838953   -5.1894567948    1.7355429410