16

 C    0.0628119948    1.5654732053   -0.0581041550
 C    0.0541329958    0.1107599499   -0.0071808027
 C    0.0490731052   -1.0938211902    0.0332121091
 C    0.0536039742   -2.5394121209    0.0729432296
 C   -0.1302516735   -3.3284082809    1.4132678889
 C   -1.6147589557   -2.9009468571    1.4739306709
 C   -1.2739102837   -3.3697604696    0.0406854024
 O   -0.5268382581   -4.5079748931    0.6158839453
 H    0.8935931082    1.9361681449   -0.6685454381
 H   -0.8655849037    1.9543369651   -0.4909711683
 H    0.1682126546    1.9984245765    0.9428673201
 H    0.8265769573   -2.9848068361   -0.5576615825
 H    0.5918638991   -3.4773440767    2.2161783429
 H   -2.2626459645   -3.5754009416    2.0340949965
 H   -1.8401774105   -1.8451043248    1.6299051044
 H   -1.9281790395   -3.5684708705   -0.8082809435