24

 C    0.1544758555    0.8537305693    1.5004529721
 C   -0.4611853311   -0.5287627563    1.7593327583
 C   -1.0878836835   -0.6170963092    3.1577850284
 C   -1.4909665535   -0.8458001881    0.6909648675
 N   -1.0021712976   -1.2542347059   -0.6358271493
 C   -1.8043742757   -2.2050137948    0.1570265387
 C   -1.0720532444   -3.4518734128    0.6116993890
 C   -3.2379698421   -2.4431213613   -0.2890735325
 O   -3.3378974292   -3.1680381788   -1.5080889087
 H    0.9316174915    1.0837283950    2.2366183004
 H    0.6021910531    0.8946232551    0.5033873122
 H   -0.6061138908    1.6417063130    1.5641354292
 H    0.3430956865   -1.2691674316    1.6881767736
 H   -1.4924995729   -1.6152900171    3.3543854493
 H   -0.3493665388   -0.3932094426    3.9343193437
 H   -1.9087649526    0.1020391868    3.2665734015
 H   -2.3374119778   -0.1546735303    0.7077160993
 H   -1.5672726670   -0.8538791028   -1.3811523563
 H   -1.0609981500   -4.2033537840   -0.1871432182
 H   -0.0309774057   -3.2369469733    0.8549167700
 H   -1.5535103778   -3.8977392419    1.4896324124
 H   -3.8012482376   -2.9418494580    0.5163085614
 H   -3.7280001969   -1.4830380099   -0.4838795706
 H   -3.0205749513   -4.0627455108   -1.3524630314