18

 C   -0.0515925788    1.5270683842   -0.1264845766
 C    0.0095275448    0.0306744655    0.0170678665
 O    1.3165713841   -0.5820548563   -0.0778251760
 C    0.6458452127   -0.6378981209    1.1548902325
 C    1.1490271735   -0.0716709069    2.4842255385
 C    0.3550974162   -1.1975272307    3.2087791600
 C    0.2197081370   -1.9567222977    1.8446008498
 C   -1.0643280503   -2.5361794427    1.4950858086
 N   -2.0996160031   -2.9674565429    1.2122526680
 H    0.7413116510    2.0116551805    0.4487896555
 H    0.0634751349    1.8140821290   -1.1764706161
 H   -1.0203012174    1.9030942093    0.2196379963
 H   -0.7648430324   -0.5279898557   -0.5102837490
 H    2.2315915090   -0.1908391647    2.5834282508
 H    0.8829751619    0.9599393675    2.7220394230
 H    0.8686256166   -1.7415706354    4.0011689012
 H   -0.6144497830   -0.8575651255    3.5750320362
 H    1.0070745934   -2.7078364266    1.7280373909