17

 N   -0.1099962908    1.2867854499   -0.1037042365
 C   -0.0610414665    0.0295404457   -0.1770178456
 O   -0.9122980752   -0.7205994423    0.5548145023
 C   -0.9052700661   -2.1254224744    0.3374131422
 C   -1.2710456756   -2.8368562498    1.6571861214
 N   -1.9231361379   -4.0420821271    1.1823894441
 C   -2.4054024606   -3.9751084105   -0.1007406237
 O   -3.0544858893   -4.8257465903   -0.6627384497
 C   -1.9663196067   -2.6143656776   -0.6568018232
 H    0.6087594622    1.6990206844   -0.6946455128
 H    0.6338618515   -0.5662585601   -0.7855092191
 H    0.0932765405   -2.4436055449    0.0132885686
 H   -0.3900172343   -3.0606870115    2.2655172350
 H   -1.9397239496   -2.1920208001    2.2428949540
 H   -2.2030743494   -4.7968710433    1.7886655540
 H   -2.8284874715   -1.9383284012   -0.6422894121
 H   -1.6208044206   -2.7024154768   -1.6877929888