23

 C    0.0109729001   -0.7062206488    1.3039009465
 C    0.1481484370    0.2646270624    0.1264589471
 C    0.8629223148   -0.2579941028   -1.1212205008
 C    2.1810227426   -0.9869979335   -0.9866117995
 C    0.9431284197   -1.7396316416   -1.4062466988
 C    0.7427883229    0.6255095777   -2.3576384116
 O   -0.5909464934    0.6787866580   -2.8862098063
 C    1.2567890483    2.0588586185   -2.1850429453
 O    1.1391242043    2.7737546614   -3.3978045823
 H   -0.6148162729   -1.5668079505    1.0511822291
 H    0.9813849246   -1.0814310529    1.6437457525
 H   -0.4563271642   -0.1989408448    2.1531889255
 H   -0.8646582427    0.5913827542   -0.1526010404
 H    0.6637883268    1.1676832015    0.4761260159
 H    2.9479659820   -0.7956683731   -1.7301751100
 H    2.5729278999   -1.1662000469    0.0085110275
 H    0.5115273298   -2.4342060618   -0.6957683538
 H    0.8540378735   -2.0558721093   -2.4397830063
 H    1.3240098279    0.1691224480   -3.1669354133
 H   -1.1767834898    0.9848069195   -2.1845378601
 H    0.7016105353    2.5614332059   -1.3741375522
 H    2.3152544501    2.0519023691   -1.9031258658
 H    0.2816534036    2.5136460796   -3.7597525574