19

 C    0.0055499741    1.5124355236    0.0513208544
 C   -0.0064196094   -0.0038578837   -0.0120247482
 C    0.8239976177   -0.5986670776   -1.1963906573
 O    1.6096345773   -1.6361955895   -0.6083555134
 C    1.0422831216   -1.8228823652    0.6845594633
 O    0.7138975644   -0.5235332385    1.1194093167
 C   -0.2103986327   -2.6756329297    0.5955342394
 C   -1.3635883793   -2.0886746167    0.2824932286
 C   -1.4273296506   -0.6015301226    0.0261560138
 H    1.0337692827    1.8831848452    0.0759541984
 H   -0.4989962902    1.9376413232   -0.8224137332
 H   -0.5109693262    1.8643568650    0.9489168787
 H    0.1774343351   -0.9970213118   -1.9875686731
 H    1.5038461296    0.1402247883   -1.6322824508
 H    1.8085058224   -2.2393928920    1.3418218046
 H   -0.1225366538   -3.7450844417    0.7548839776
 H   -2.2858976994   -2.6584317712    0.2068364223
 H   -2.0208385075   -0.1066162380    0.8076348040
 H   -1.9421707960   -0.3999368471   -0.9224705458