19

 C   -0.1366800220    1.5343135810   -0.0315529721
 C   -0.0480499374    0.0317365346    0.1166636108
 C    1.2322285049   -0.7251577823   -0.2137637561
 C    0.7364084194   -0.6104153535    1.2083899046
 C    1.5160329728    0.0905987376    2.3023588961
 C    1.8946600705   -1.0762069074    3.2216756895
 O    2.6886801782   -1.0718211838    4.1223513881
 C    1.0613080749   -2.2731093036    2.7495960626
 O    0.1481834261   -1.7607176147    1.7978875051
 H    0.8072625258    2.0212714879    0.2331268341
 H   -0.3701896179    1.8100826055   -1.0653440679
 H   -0.9190970727    1.9538290855    0.6104108956
 H   -0.9597371423   -0.5070030353   -0.1288476829
 H    1.1356691333   -1.6897144017   -0.6992279784
 H    2.1056190249   -0.1480688506   -0.5039207987
 H    2.4056760286    0.6292601269    1.9730675287
 H    0.8868566230    0.7865748258    2.8722995823
 H    1.7391579353   -3.0269773964    2.3165126220
 H    0.5122751146   -2.7365172555    3.5741108266