20

 C   -0.0896637543    1.5468666489    0.0022073944
 N    0.0250268679    0.1054419065    0.0330559560
 C   -1.1912950911   -0.6935295773    0.4572289540
 C   -0.1839649603   -1.6698833146    1.1087732646
 C    0.6046337693   -2.3052964796    2.3066923663
 C    1.7033552387   -1.7752076245    1.2700854546
 C    0.8235968483   -2.3840173115    0.1563338240
 O    0.6715063304   -3.7830895086    0.0800602961
 C    0.7779613175   -0.5023969998    1.1714818492
 H    0.8817016171    1.9875255413   -0.2458248471
 H   -0.8025642907    1.8476557434   -0.7728779119
 H   -0.4285402319    1.9804180377    0.9630113456
 H   -1.8130963396   -0.1506582943    1.1850200399
 H   -1.8104028271   -1.0578884751   -0.3684857399
 H    0.5435843495   -1.7730860897    3.2585397411
 H    0.5599172362   -3.3859966577    2.4302980223
 H    2.7883173219   -1.8538431473    1.3928989374
 H    0.9317186092   -1.9327516453   -0.8321071609
 H    1.3947961658   -4.1302061865   -0.4503452709
 H    0.7469697634    0.1200403441    2.0765867753