21

 C    0.7143662249   -0.9587062444    1.2981702353
 C   -0.0515023671   -0.3457058588    0.1211649491
 C    0.6569904009   -0.5271522150   -1.2166435837
 O    1.9825024406   -0.0207911810   -1.1986095918
 C    0.7252997134   -1.9569937343   -1.7879577506
 O   -0.6221852414   -2.3817966094   -2.0131708821
 C    0.0137170383   -1.5627413871   -3.0085602720
 C   -0.1172838347   -0.1030675784   -2.5486622427
 C   -1.5161957203    0.4943393696   -2.4984519571
 H    0.8104187421   -2.0433309954    1.1811033594
 H    1.7227987294   -0.5429403699    1.3697425055
 H    0.1953406473   -0.7718714902    2.2427882429
 H   -1.0473952945   -0.7921023668    0.0462875045
 H   -0.2062716106    0.7296561737    0.2936692201
 H    1.9394892620    0.9160931518   -0.9775359419
 H    1.4822540442   -2.7126886487   -1.6135492607
 H    0.0655645498   -1.9658719474   -4.0137496813
 H    0.5688542590    0.5322129861   -3.1182360848
 H   -2.2163083782   -0.1892214648   -2.0113870346
 H   -1.5300523570    1.4445947304   -1.9539755902
 H   -1.8878061182    0.6910020698   -3.5102822335