15

 O    0.2701908748    0.0031426384   -0.0024424263
 C    0.0773682275    1.1875762576    0.0166516741
 C   -1.1585054592    2.1212670109    0.0997148590
 C   -0.1359441185    3.2929268537    0.0171839439
 C   -0.0597372454    4.2306123722    1.2307311053
 C    1.1236188560    5.0813042564    1.1903818439
 C    2.1150797936    5.7573060671    1.1199737209
 N    0.9163580237    2.2756021866   -0.0416519748
 H   -1.8450687064    2.0325056880   -0.7434663028
 H   -1.7144100476    2.0510254132    1.0369507192
 H   -0.2095234750    3.8849698939   -0.9013659674
 H   -0.9659775285    4.8489793696    1.2590289770
 H   -0.0548671361    3.6281329854    2.1477972831
 H    2.9830530107    6.3676742878    1.0761057755
 H    1.9187147302    2.3568599192   -0.1287923205