19

 C    0.1245382792    1.3613629496   -0.4989973900
 C   -0.1265616325    0.1082719953    0.3560748351
 C   -1.4915951404   -0.4795456615    0.1580240677
 N   -2.3937620537   -0.4254641527    1.1326508943
 N   -3.5036849326   -1.0339636301    0.6254009064
 C   -4.7165312386   -1.1230104022    1.4049322097
 C   -3.3004317251   -1.4496067051   -0.6441172668
 O   -4.3128506332   -2.0703270904   -1.2940868690
 C   -2.0087891830   -1.1181273055   -0.9981094575
 H    1.1302432410    1.7573675645   -0.3255280587
 H    0.0303228129    1.1396557023   -1.5670043078
 H   -0.5981914171    2.1466989799   -0.2575397628
 H    0.6360944218   -0.6458262075    0.1235270523
 H   -0.0189749099    0.3539688886    1.4169384540
 H   -5.2713412343   -0.1783843287    1.3889737848
 H   -5.3465199706   -1.9130048741    0.9938530808
 H   -4.4535148254   -1.3603592614    2.4372250337
 H   -3.9949731630   -2.3492185892   -2.1580024198
 H   -1.5159545055   -1.3148916119   -1.9368184663