16

 O    0.1232301859    1.3288594067    0.4092895888
 C   -0.0234646566    0.1366826397   -0.3703646009
 C   -1.3529218649   -0.5061219672   -0.1852034897
 C   -1.7070388772   -1.8023048066    0.1218534953
 O   -0.8506440757   -2.8495820127    0.3012544199
 C   -3.1248952426   -1.8621893778    0.1920922331
 O   -3.7616294504   -3.0447989238    0.4650270195
 C   -3.6139239613   -0.6016060298   -0.0646519242
 N   -2.5290538052    0.2058195925   -0.3240276266
 H   -0.0085435885    1.0768458482    1.3300175433
 H    0.1257429855    0.4701547245   -1.4046628403
 H    0.7592623998   -0.6009422054   -0.1487062144
 H   -1.3869438577   -3.6273811550    0.4910701740
 H   -4.7131147615   -2.9139254245    0.4298875365
 H   -4.6237091560   -0.2259230551   -0.0929700308
 H   -2.5499117337    1.2102624263   -0.3509535635