20

 O    0.3200949937    0.7465592102   -0.8760958246
 C   -0.0040659173    0.1120940117    0.3543353935
 C   -1.3398214793   -0.4811383240    0.3756175044
 C   -2.4568912290   -0.9324291201    0.3788435098
 C   -3.8049784084   -1.4937948587    0.3617141868
 N   -3.8195297064   -2.8801598473   -0.0703464535
 C   -3.4666033177   -3.1916587969   -1.4718710663
 C   -4.5650283690   -4.2822977416   -1.4627264271
 C   -5.1318910444   -3.5385064332   -0.2296895523
 H   -0.4022662844    1.3470485847   -1.0872505894
 H    0.7549051862   -0.6653764446    0.4961111733
 H    0.0963860089    0.8091563630    1.2020442830
 H   -4.2365180121   -1.4460553246    1.3706926896
 H   -4.4478015451   -0.8545591381   -0.2797870601
 H   -3.7077837942   -2.3711732638   -2.1683209807
 H   -2.4271613386   -3.4924200232   -1.6294401046
 H   -5.2063344315   -4.3533497165   -2.3412592957
 H   -4.1746332597   -5.2703265066   -1.2134537209
 H   -5.4617864039   -4.1259580608    0.6335596351
 H   -5.9363591278   -2.8363931697   -0.5092906406