14

 C   -0.0008220535   -1.2127209775   -0.1106654730
 C    0.0397608122   -0.0152994386   -0.0133580833
 C    0.0461471057    1.4096764183    0.1319562305
 O    0.3837388778    2.1910771764   -1.0514910323
 C    1.2538212369    2.2733454896    0.0716179302
 C    1.0169781115    3.4788453461    0.9723087302
 C   -0.4019666852    3.2683894430    1.4617211449
 C   -0.9256040201    2.1215807993    1.0250134061
 H   -0.0257554415   -2.2703309614   -0.2037712788
 H    2.2511240881    1.8689125479   -0.0775237700
 H    1.7371517908    3.5036587379    1.7997416721
 H    1.1302952507    4.4195701908    0.4200568293
 H   -0.9213451975    4.0017760119    2.0677010402
 H   -1.9144990958    1.7363462863    1.2349519438