18

 C   -0.0606859176    1.5987779314    0.0239271858
 C    0.0243331915    0.0705090755   -0.0686697316
 C   -1.0839375479   -0.5704445650    0.6127600299
 C   -2.0286317808   -1.0771398509    1.1568055282
 C    0.5562109430   -0.7945117899   -1.1764085174
 C    1.8167674167   -0.3654962776   -1.9437205575
 C    2.4037348400    0.9431098192   -1.4993783678
 C    2.4853932329   -0.2552469731   -0.5892605433
 N    1.2602585628   -0.7666963140    0.1465215259
 H   -0.1924236844    2.0661823256   -0.9545261598
 H   -0.9227298150    1.8650370563    0.6375467147
 H    0.8262614778    2.0184105014    0.5025998250
 H   -2.8531496375   -1.5309302008    1.6483233911
 H   -0.0018371193   -1.6773580723   -1.4753095422
 H    2.1444749127   -0.8895418227   -2.8315724544
 H    3.3647170729    1.1423578465   -1.9678454742
 H    1.8294081620    1.8365045673   -1.3176948065
 H    3.4308645000   -0.6443790567   -0.2342065759