21

 C   -0.7966951659   -0.8424838572   -0.6329346106
 C    0.5797173590   -0.3612544374   -0.1578712653
 C    0.8559412679   -0.6277804858    1.3117920776
 C   -0.1108299507   -0.0284995176    2.3329317307
 C   -0.1575916173    1.4948621281    2.2084180679
 C    0.9074498836    2.2573267607    2.9678901565
 O   -0.9835729536    2.0401928736    1.5114127427
 C    1.6409926235   -1.8090726166    1.7037564563
 O    2.2409597310   -0.5100549106    1.6826594460
 H   -1.5963897165   -0.2583811656   -0.1699682865
 H   -0.8869903434   -0.7248763826   -1.7165822468
 H   -0.9573467161   -1.9003134460   -0.3973735659
 H    1.3755464639   -0.8431973458   -0.7351120691
 H    0.6671958804    0.7154553710   -0.3429831196
 H   -1.1182279749   -0.4160489927    2.1604213343
 H    0.2182851497   -0.3205005359    3.3344953300
 H    1.8903733571    1.8150813102    2.7738457522
 H    0.8915417789    3.3116440409    2.6894786111
 H    0.7271650695    2.1626091797    4.0457967608
 H    1.5081410100   -2.2477802786    2.6920295628
 H    1.9970035240   -2.4967632717    0.9376215847