21

 C   -0.1155116843    1.5311183488    0.0305623465
 C    0.0374681046    0.0143919538   -0.0157474573
 C    1.0837805414   -0.5907516479   -1.0069218532
 C    2.3884053005   -0.0298157375   -0.3660007176
 O    2.1189494617   -0.0651277025    1.0413556323
 C    0.7779676366   -0.6288097223    1.1729060329
 C    0.8591909627   -2.0882555728    0.7389120150
 C    0.8785502046   -3.2489708776    1.6755663759
 C    1.0373001064   -2.0487484831   -0.5895750592
 H    0.8029651545    2.0218610279    0.3602104115
 H   -0.3880770596    1.9296799413   -0.9528422568
 H   -0.9102017668    1.8128905089    0.7297607946
 H   -0.9325892142   -0.4629911482   -0.1751261539
 H    0.9630883900   -0.3675153328   -2.0672850483
 H    3.2633437399   -0.6466044205   -0.6004892220
 H    2.5917782975    1.0031924206   -0.6740546612
 H    0.4323381482   -0.4186067960    2.1854552038
 H   -0.0411578172   -3.3022897096    2.2719309792
 H    0.9907097980   -4.1960841607    1.1397760838
 H    1.7088075965   -3.1615920276    2.3878521312
 H    1.2409942990   -2.8864972223   -1.2464361472