13

 N   -0.1424284041   -1.1885166382   -0.0652861332
 C   -0.0704863258   -0.0367001091   -0.0459606364
 C    0.0091414826    1.4304046254    0.0423015811
 C   -0.6054793041    1.9559167097    1.3995672101
 N    0.4056466365    2.9428264913    1.7766684977
 C    1.5272350181    2.6874224329    1.0319771802
 N    1.4293335674    1.8780523616    0.0419261451
 C   -0.6875332893    2.0335834772   -1.1125995173
 N   -1.2427317799    2.5367566418   -1.9908412370
 H   -1.5895012914    2.4039373542    1.2570785213
 H   -0.6780412147    1.1398078453    2.1259424979
 H    0.4878643903    3.2356324764    2.7381196207
 H    2.4548644844    3.1982867417    1.2704518198