19

 O    0.7193074862    0.0942139284    0.8243965219
 C   -0.1314869338    0.3367879486   -0.2748314035
 C   -1.5040441520   -0.3961945585   -0.1784770778
 C   -1.2585045521   -1.9285984052    0.0073090939
 O   -2.3667861988   -2.6149634606    0.5567492993
 C   -2.3360497455    0.1555718719    0.9984885648
 O   -1.6872497350   -0.2135420364    2.2255266729
 C   -2.2565746255   -0.1247471324   -1.4013427895
 C   -2.8578972068    0.1248088598   -2.4121215462
 H    0.1851275537    0.1848570340    1.6249064386
 H   -0.3278838064    1.4120987506   -0.4121610694
 H    0.3970796326   -0.0121397278   -1.1679801925
 H   -1.0626125957   -2.3728861497   -0.9720289951
 H   -0.3631899442   -2.0491207229    0.6252533522
 H   -2.3597556763   -2.4264745963    1.5014846544
 H   -2.4144021136    1.2469831141    0.9109888357
 H   -3.3421598993   -0.2742692555    0.9556432624
 H   -2.1617638381    0.1959832480    2.9555225262
 H   -3.3913657795    0.3269286600   -3.3079196786