13

 C   -0.0022660086    1.5321668526    0.0967430800
 C    0.0257585721    0.0471142496   -0.0407267581
 C   -0.0181103384   -0.8131104204   -1.1298991107
 C   -0.1112605571   -0.4631744670   -2.5493367097
 O   -0.1465238067   -1.2500338467   -3.4637555035
 N    0.0409217652   -2.1073252415   -0.6694547754
 N    0.1173150894   -2.0996017688    0.6158390094
 N    0.1089222724   -0.7961757875    1.0092907616
 H    0.9043680308    1.9029401020    0.5868754309
 H   -0.0719467540    2.0082760689   -0.8821172613
 H   -0.8615136403    1.8599552363    0.6916735118
 H   -0.1492956361    0.6343604886   -2.7371325157
 H    0.1621681314   -0.5799274962    1.9930264009