19

 C   -0.1210100074    1.5861652864   -0.0038343653
 C    0.0119009617    0.0712080081    0.0206914003
 C   -1.2038169551   -0.6407326031   -0.5468280974
 C    1.3517976886   -0.5908859726   -0.2399030806
 C    2.5948907215    0.1663052958   -0.5291583313
 O    3.4445866988   -0.2377920568   -1.2851921296
 C    0.7115756202   -0.6241252402    1.1734418830
 C    1.3003870836    0.0994967904    2.3275177144
 O    1.2987154706   -0.3479554123    3.4485263695
 H    0.7440337945    2.1137575684    0.3998634980
 H   -0.2679289524    1.9320360998   -1.0325079296
 H   -0.9963549216    1.8942191845    0.5777564035
 H   -1.3712826707   -0.3447830567   -1.5882372374
 H   -1.0863397271   -1.7275891419   -0.5189419381
 H   -2.1021475924   -0.3824072250    0.0245133237
 H    1.3292115090   -1.5430916956   -0.7610020331
 H    2.7121797937    1.1461402678   -0.0205170028
 H    0.3218921307   -1.5953200498    1.4626979461
 H    1.7435808939    1.0957062828    2.1184719368