22

 C   -0.0471726182    1.5742752031   -0.1147638866
 C   -0.1647388678    0.0610247464   -0.0017977012
 N    0.6497977444   -0.4856957399    1.1328931237
 H    1.6310565359   -0.2191597168    1.0210324034
 H    0.3516550949   -0.0669070311    2.0180030545
 C    0.6219611371   -2.0147749926    1.3043945870
 C    1.4716779148   -2.4596372572    2.4641546844
 C    0.9109765885   -2.1198045540    3.8412604819
 C    1.7141017217   -4.0582819404    2.2558649326
 O    1.8756373357   -4.6806323361    3.3069404880
 O    1.7174153430   -4.3933900089    1.0557858382
 H    0.9851937044    1.8860926511   -0.3029195158
 H   -0.6570744263    1.9250964272   -0.9510039947
 H   -0.4032256590    2.0765838387    0.7904218734
 H   -1.1942953820   -0.2560789755    0.1793707223
 H    0.1891429106   -0.4472705824   -0.9015499227
 H   -0.4343676560   -2.2699128757    1.4297039805
 H    1.0063686011   -2.4670789904    0.3877783555
 H    2.4776385082   -2.0238203209    2.3472157500
 H   -0.1332579335   -2.4431222455    3.9301758919
 H    1.4806800534   -2.6850254510    4.5813384440
 H    0.9595708094   -1.0493189878    4.1018548798