23

 C   -0.6926843778    1.4968773362    0.1185418645
 C   -0.3488380605    0.0248698302    0.2729412998
 O   -1.4738429355   -0.7388869958   -0.1175972144
 C   -1.2831803121   -2.1433102701   -0.0739935371
 C   -1.4170250220   -2.7243019199    1.3400625025
 O   -2.8069398721   -2.8345599703    1.5894504667
 C   -3.5334906203   -2.9247955136    0.3514255390
 C   -4.5975917436   -1.8325934945    0.3284091883
 C   -2.4767655653   -2.8038091510   -0.7704824311
 H    0.1619239896    2.1196317840    0.3994215610
 H   -0.9621035706    1.7211176439   -0.9174201553
 H   -1.5398531945    1.7614771484    0.7576416934
 H    0.5183993668   -0.2396333316   -0.3560369497
 H   -0.0668191665   -0.1917961196    1.3154040284
 H   -0.3202390337   -2.4051756219   -0.5370528455
 H   -0.9221437515   -3.7093755759    1.3860577852
 H   -0.9751293528   -2.0884776599    2.1137785325
 H   -4.0190622091   -3.9097962748    0.3143840323
 H   -4.1207989124   -0.8491863106    0.3096461651
 H   -5.2377090930   -1.9341832098   -0.5547081423
 H   -5.2277593594   -1.9018238592    1.2197608023
 H   -2.8190014480   -2.2063796677   -1.6173963873
 H   -2.1847097358   -3.7914079665   -1.1387378785