19

 C   -0.0464109952    1.5507343382    0.0679701099
 C    1.4915400043    1.5261462740   -0.0280971553
 C    2.0991149311    0.7857573431    1.2248239855
 O    1.0561410762    0.4028946908    2.1172991688
 C    0.3755273906   -0.6147198364    1.3627844938
 C    1.5242540303   -1.5892704589    1.0476798578
 C    2.3723921934   -0.5126812198    0.3662246199
 C    1.4420888957    0.1192077438   -0.6965217939
 C    0.0129931344    0.0003981109   -0.0228525464
 H   -0.5069988722    1.9893860564    0.9563858460
 H   -0.4863506727    1.9870541359   -0.8330124083
 H    2.0532316679    2.3775614055   -0.4149323993
 H    2.8969550052    1.2707726256    1.7871751698
 H   -0.4638553391   -0.9797506717    1.9547931509
 H    1.9619841991   -2.0145347735    1.9543204404
 H    1.2383024864   -2.3913705474    0.3596220520
 H    3.4025606617   -0.7402885640    0.0972780617
 H    1.5410623872   -0.0744392611   -1.7642477231
 H   -0.7840080744   -0.5389481314   -0.5370444203