19

 O   -0.6601510278    0.6267768141    0.5618351959
 C    0.0817071488    1.0160923230   -0.3065615449
 C    1.2292659842    1.9686865889   -0.1354737368
 C    1.2165862525    3.3746974797   -0.8028852898
 C   -0.1601591374    4.0426532225   -0.6895165736
 C   -0.4706529582    4.3354095681    0.8022070113
 C    0.2276163369    3.3513058414    1.7788195676
 C    1.5044690485    2.8126648141    1.1280748456
 O    2.0733298067    3.8539589711    0.2686144864
 H   -0.0402863627    0.6536938808   -1.3552423954
 H    2.1408064632    1.4473606250   -0.4520758387
 H    1.6818182570    3.4847549432   -1.7856584556
 H   -0.1690500897    4.9779907843   -1.2579266678
 H   -0.9186580087    3.3946594297   -1.1459439154
 H   -0.1045071930    5.3407868376    1.0211468863
 H   -1.5501096355    4.3504340051    0.9743230473
 H    0.4816876311    3.8777704975    2.7041911073
 H   -0.4160580774    2.5098941148    2.0443569087
 H    2.2365277916    2.4322514090    1.8439779717