17

 O    0.4353798704    1.0923383642   -0.2948753015
 C    0.0925368493   -0.2467319856   -0.0486735604
 C   -0.2450044786   -0.6938795726    1.3936129116
 C   -1.4802119196   -1.4729916127    0.8260579404
 C   -1.3606014494   -0.6279316981   -0.4670500010
 C   -2.2750245625    0.5788938495   -0.4915501299
 O   -3.0633380618    0.8548488934    0.3776440250
 C    0.7945069161   -1.4591791314    2.1577972343
 O    1.9311545190   -1.6145900057    1.7814329980
 H    1.3622233299    1.2146774888   -0.0648554757
 H    0.8199773613   -0.9389274186   -0.4890401024
 H   -0.5965392997    0.1513566310    1.9965042142
 H   -1.2719708369   -2.5313352114    0.6560737332
 H   -2.4160096787   -1.3546695880    1.3706581226
 H   -1.4427142355   -1.1431709124   -1.4295665411
 H   -2.1686830251    1.2169506816   -1.3933064515
 H    0.4459049717   -1.9038105121    3.1178542642