18

 C   -0.0324282243    1.5684988179    0.0412199719
 C    1.5146527353    1.4237142008    0.0165151450
 C    1.7598476725    0.8071914934    1.4103864487
 C    0.8458667720   -0.4394021091    1.2288462673
 O    1.6380608745   -1.5224879683    0.7353833979
 C    2.1294597387   -1.0923572770   -0.5447844189
 C    1.2882148659    0.1390607360   -0.8700200990
 C    0.0066219678    0.0238092024    0.0082049918
 H   -0.4856667177    2.0690614997    0.9025425382
 H   -0.4382483867    1.9832365186   -0.8850141336
 H    2.1654359721    2.2371059749   -0.3055639626
 H    2.7898873784    0.5000627744    1.6069004780
 H    1.4380683742    1.4779404012    2.2129421470
 H    0.3133055184   -0.7901608329    2.1125269959
 H    3.2054895834   -0.8734645006   -0.4918914482
 H    1.9837652756   -1.9036079710   -1.2680682586
 H    1.1313686690    0.3509008940   -1.9276842605
 H   -0.8443354693   -0.5973726144   -0.2697577603