25

 C    0.0684979851    1.5924264606   -0.1489595104
 C   -0.0681498002    0.0753617658    0.0058776398
 C    0.6772234117   -0.4733108510    1.2276160153
 C    0.5384145144   -1.9925601725    1.3810221720
 C    1.4286588314   -2.6029992464    2.4675207992
 C    1.1075162512   -2.1064649377    3.8710213980
 C    1.6316995506   -4.1375039993    2.3383588546
 C    3.0839240188   -3.7809723504    1.9730280100
 O    2.8401948657   -2.3736396254    2.1562962560
 H    1.1189341682    1.8852922985   -0.2550618157
 H   -0.4695040895    1.9554211574   -1.0304544993
 H   -0.3326163553    2.1176099656    0.7252123869
 H   -1.1314059946   -0.1916280560    0.0765765053
 H    0.3077437060   -0.4206217008   -0.8988763617
 H    1.7436829652   -0.2291398293    1.1492529203
 H    0.3066773241    0.0336280472    2.1277049488
 H   -0.5066894691   -2.2621765111    1.5885157909
 H    0.7982307409   -2.4689674638    0.4267917726
 H    0.0655142837   -2.3250435361    4.1305136208
 H    1.7561517407   -2.5925159955    4.6053016392
 H    1.2619752297   -1.0267818243    3.9493707551
 H    1.5103149984   -4.6942630586    3.2694601942
 H    1.0471156735   -4.6203676775    1.5529703058
 H    3.8569544928   -4.1548261704    2.6555015761
 H    3.3841674265   -4.0158561990    0.9439386161