18

 C    0.0383392206    1.5535424076   -0.0478305514
 C    0.0704100993    0.0344352624    0.0377623198
 O    0.8115454939   -0.4802288671   -1.0857660373
 C    1.2428800176   -1.8055517766   -0.7571374443
 C    1.5216309080   -1.7820772086    0.7351865096
 C    2.2775612217   -0.5734068444    1.2248138549
 O    3.0532089605    0.2349295494    0.3907165628
 C    0.7679043815   -0.5589575285    1.2531563604
 H    1.0427508326    1.9703855932    0.0585900564
 H   -0.3829221569    1.8738248797   -1.0050153565
 H   -0.5874069646    1.9575766276    0.7537987738
 H   -0.9598149285   -0.3567641861   -0.0066341725
 H    0.4607039068   -2.5425012047   -0.9943574964
 H    2.1203178484   -2.0193815955   -1.3761856691
 H    1.5600163986   -2.7224421702    1.2733828402
 H    2.7660619024   -0.6742168723    2.1886536255
 H    2.5902842824    0.2924153902   -0.4569473428
 H    0.2376795558   -0.5616633661    2.1991179268