16

 C   -0.0541828991    1.4020976076    0.0353619720
 N   -0.2077996596   -0.0419041144   -0.0188132443
 C    0.1103085350   -0.7843981718    1.1882089342
 C   -0.0571615665   -0.6341736003   -1.2379712763
 N    0.0069291425   -0.0544828090   -2.4043397317
 C    0.0787203990   -1.1200962949   -3.2975450611
 C    0.0684684149   -2.2876198362   -2.6254017384
 O   -0.0159721107   -1.9886083713   -1.2749828676
 H    0.9996223689    1.7063593983    0.1256341396
 H   -0.4602152475    1.8389707538   -0.8765148675
 H   -0.6025702640    1.7862720773    0.9006235147
 H   -0.4255308572   -0.3361615245    2.0298413955
 H   -0.2093081381   -1.8209466173    1.0842431673
 H    1.1869470749   -0.7715761866    1.4200410402
 H    0.1381074386   -0.9576163389   -4.3623491206
 H    0.1177996791   -3.3312201217   -2.8787936960