18

 C   -0.2550499853    1.3727658935    0.0761736584
 N   -0.0043128472   -0.0486665098    0.0038913427
 C    0.4164140206   -0.7965073802   -1.0332933862
 N    0.5199726739   -2.0633288502   -0.6825462745
 C    0.1376209227   -2.0462874340    0.6309338220
 N   -0.1895554349   -0.8436325523    1.0898522807
 C    0.0887002247   -3.2503300184    1.4741274855
 C   -0.3083462568   -4.5779807525    0.8587522352
 C    1.1148425397   -4.3477699946    1.2700533774
 H   -0.0458976832    1.8168355707   -0.8988425933
 H   -1.2985680455    1.5596511353    0.3426547562
 H    0.3899564580    1.8328413821    0.8292862956
 H    0.6302993361   -0.3796921010   -2.0067047127
 H   -0.2363281641   -3.0539890637    2.4888983045
 H   -0.9243354042   -5.2416306810    1.4552601020
 H   -0.5296166377   -4.5715893242   -0.2021078567
 H    1.8430744348   -4.1877901354    0.4835990989
 H    1.4918343283   -4.8507983640    2.1535323545