19

 C   -0.0831717985    1.4747354525   -0.1128423359
 C    0.1507172692   -0.0131579898    0.0330112863
 O    1.2419516167   -0.5312994126   -0.7902698418
 C    1.8214771642   -1.2146147052    0.3372104614
 C    2.4165946091   -2.5588485874    0.0795813422
 O    3.6165723884   -2.4859220448   -0.6780505110
 C    2.2516040125   -0.1945302231    1.3629212095
 C    0.8063069002   -0.5995734394    1.2870618447
 O    0.1445248282   -1.0458400683    2.4107736695
 H    0.8082169142    2.0469448345    0.1562757408
 H   -0.3507347414    1.7201963005   -1.1453588060
 H   -0.9080336971    1.7871585478    0.5363090226
 H   -0.7674334764   -0.5697362840   -0.2113100251
 H    2.6779035756   -3.0322936579    1.0311967005
 H    1.6725106233   -3.1961085537   -0.4236623880
 H    3.4029832249   -2.0255386322   -1.4970897669
 H    2.7591471675   -0.6161189386    2.2254278325
 H    2.5970728381    0.7879603143    1.0540276236
 H   -0.5328562487   -1.6756590930    2.1379946911