15

 C    0.0118116677    1.5333833705   -0.0682133810
 C   -0.0183933143    0.0266717904    0.0802660017
 O   -0.0572617827   -0.5355150421    1.1522903916
 C    0.0026446968   -0.7238136728   -1.1657215366
 C    0.0303462843   -1.3583413057   -2.1926762445
 C    0.0388937120   -2.1192919308   -3.4450177369
 O    0.0700036452   -3.5043586324   -3.2670878069
 C   -1.1986582621   -1.7057145033   -4.2594172771
 O   -2.0004602886   -2.5268107401   -4.6169467333
 H    0.9137971794    1.8403547069   -0.6086925840
 H   -0.8468187682    1.8714669078   -0.6585079464
 H   -0.0082929573    1.9965217135    0.9191800670
 H    0.9168602710   -1.7956614717   -4.0327617443
 H   -0.7804261101   -3.8300376654   -3.6045531371
 H   -1.3001091531   -0.6268407848   -4.4805914822