15

 O    0.3695853617    1.2545486373    0.5124874810
 C    0.0748794506   -0.0236433198    0.0310556557
 C   -1.4551943898   -0.4617825651   -0.0722443194
 N   -1.1981306446   -0.5697571762   -1.5155967525
 N   -1.6122816842   -1.1862574411   -2.6405338762
 C   -0.4795390958   -1.2116946430   -3.3585466040
 O   -0.4690199762   -1.6856880699   -4.6200196015
 C    0.6609539430   -0.6928652740   -2.6832820303
 C    0.1192357956   -0.2997414957   -1.4731600800
 H    0.0066812254    1.9000889322   -0.1044918131
 H    0.6637739709   -0.7208740372    0.6314868084
 H   -1.6908410263   -1.4146774852    0.4105938150
 H   -2.1908115287    0.2986927435    0.2042452216
 H   -1.3682606085   -1.9745622966   -4.8207777914
 H    1.6676575169   -0.6309870292   -3.0578525834