20

 C   -0.0386487635    1.5417907688   -0.0001233196
 C    0.0059382299    0.0048250537    0.0490688589
 C    0.7208626092   -0.4605487750    1.3301257020
 C   -1.4282181168   -0.5522816529    0.0238590072
 C    0.7717196371   -0.5006475371   -1.2160705134
 N    2.1493150130   -0.0000872499   -1.2676620552
 C    0.7184964276   -1.9762120918   -1.3307727735
 N    0.7370694148   -3.1292704950   -1.4227311369
 H    0.9669513102    1.9641887169   -0.0467506286
 H   -0.5945906384    1.8924969225   -0.8770568559
 H   -0.5424846425    1.9318692642    0.8899258366
 H    0.1536673728   -0.1459047376    2.2116014727
 H    0.8122551731   -1.5512701937    1.3652983741
 H    1.7209617477   -0.0238127616    1.4159976277
 H   -1.9532543783   -0.2586355079   -0.8921570448
 H   -1.4420796042   -1.6442624352    0.0861246216
 H   -1.9976747686   -0.1598922257    0.8721134258
 H    0.2488302984   -0.0958754204   -2.0909401171
 H    2.7225916184   -0.4922506835   -0.5892935786
 H    2.5537120703   -0.1981234188   -2.1776094429