16

 C   -0.1322833944    1.3366743742   -0.0940626569
 O   -0.1616244789   -0.0660593080   -0.1799507950
 C    0.8303176665   -0.5815189515   -1.0447868129
 C    0.7602187983   -2.0832761313   -1.0391293637
 C   -0.2332892788   -2.7935207322   -1.9202501408
 C    1.2381580134   -2.8540766844   -2.2441893609
 H    0.8340538832    1.7058995464    0.2868115732
 H   -0.3149481076    1.8125463857   -1.0715669547
 H   -0.9221506978    1.6407852188    0.5973518361
 H    0.6808421349   -0.2007002217   -2.0713352577
 H    1.8290336201   -0.2395850981   -0.7198037515
 H    0.9519429951   -2.5294707081   -0.0677205664
 H   -0.7148414715   -3.6852468730   -1.5352978526
 H   -0.8689420535   -2.1840054101   -2.5538402300
 H    1.5930128831   -2.2897920672   -3.1007086960
 H    1.7689262479   -3.7848044595   -2.0787623901