21

 C   -0.2402546286    1.3462257765    0.1213566967
 O    0.1589046227   -0.0003351133   -0.0727136914
 C    0.7388722507   -0.5812078904    1.0753506922
 C   -0.2785770652   -1.2453205322    2.0782822064
 O   -1.6437290979   -1.0605523279    1.7946157422
 C    0.3757453305   -2.6012219267    1.7994805243
 C    0.3505988334   -2.9006945420    0.3263349696
 C    1.3888400307   -1.9409557935    0.8364674408
 C    2.8667872671   -2.1576853178    0.6765714532
 H    0.6208450124    1.9833491156    0.3731940759
 H   -0.6711787538    1.6928112360   -0.8212214672
 H   -0.9913748022    1.4373810614    0.9163537751
 H    1.4153582027    0.1325536455    1.5656453764
 H   -0.1224340237   -0.9170315320    3.1089833818
 H   -1.7192173770   -1.0073647097    0.8341360881
 H    0.5548662956   -3.3750180145    2.5369045867
 H    0.7352742368   -3.8783665839    0.0528355922
 H   -0.4640869192   -2.5619436877   -0.3064826552
 H    3.2165809519   -1.7888925693   -0.2948870720
 H    3.4365786834   -1.6368081080    1.4547602905
 H    3.1177110695   -3.2218065960    0.7345264136