17

 C    0.1326152719    1.3452491282   -0.0322975721
 C   -0.0772270844   -0.1487664372   -0.0647727382
 O    0.8261352398   -0.9343132631   -0.2564391990
 C   -1.4901590347   -0.7061271359    0.1522051187
 O   -1.4834009999   -2.0987279968    0.0218246304
 C   -2.0446564168   -0.3175617541    1.5327919407
 O   -3.3934127347   -0.7532006967    1.6600360145
 C   -3.6059057343   -1.9983042362    2.1521207057
 O   -4.6988616246   -2.4674859109    2.2327299569
 H    1.0965323377    1.5905215859   -0.4796900926
 H   -0.6730552025    1.8741885864   -0.5500206005
 H    0.1337450963    1.6935954943    1.0078274866
 H   -2.1501993310   -0.2570701808   -0.6081060128
 H   -0.5525076043   -2.3360911092   -0.1293525292
 H   -1.4176317496   -0.7643353755    2.3152299404
 H   -2.0631338975    0.7667699112    1.6678646234
 H   -2.6749922514   -2.4965814697    2.4731449172