19

 C   -0.1204239105    1.5300051325   -0.0184619001
 C   -0.1432936729    0.0057739302   -0.1473006908
 C    0.8384833205   -0.4923042393   -1.2259507008
 O    2.1520823414   -0.0942172450   -0.9394065094
 C    0.7925188200   -2.0161279735   -1.3586687389
 O    1.7933930749   -2.6714275933   -1.1277457483
 C   -0.4524801307   -2.6120839935   -1.7652070508
 C   -1.4984566089   -3.0954144563   -2.1256837119
 C   -2.7521256696   -3.6919366487   -2.5511853175
 H    0.8902331155    1.8778640967    0.2081911774
 H   -0.4421532183    2.0096856852   -0.9496971100
 H   -0.7894753713    1.8641777451    0.7801175098
 H    0.1367338570   -0.4557395598    0.8075602713
 H   -1.1518295377   -0.3442742392   -0.3946763716
 H    0.5238732071   -0.0750354132   -2.1985929222
 H    2.6529791315   -0.9211427672   -0.8424068661
 H   -2.5806511145   -4.6182412869   -3.1087341259
 H   -3.3709371933   -3.9354622716   -1.6802543372
 H   -3.3237852502   -3.0064207823   -3.1851497770