25

 C   -0.0622811717    1.5612201210   -0.0560516737
 C    0.0241530882    0.0315625560   -0.0374893184
 C    0.7070197112   -0.5376773773    1.2128200666
 C   -0.0273812938   -0.2443010786    2.5447221504
 C    0.4041364916   -1.3608068634    3.5260456636
 C   -0.5962769747   -1.6193871374    4.6545374013
 C    0.6839220941   -2.5596299748    2.6227892137
 C   -0.3371279790   -2.8961182018    1.5618351992
 C    0.8697494855   -2.0565379298    1.2116491694
 H    0.9333000912    2.0144435329    0.0142255247
 H   -0.5254822240    1.9210134885   -0.9802270069
 H   -0.6571435139    1.9409099423    0.7811366981
 H   -0.9835194082   -0.3968276469   -0.1194538344
 H    0.5715068115   -0.3099988493   -0.9256875799
 H    1.7166203729   -0.1039896065    1.2738696381
 H    0.1924071135    0.7522194113    2.9371885020
 H   -1.1133315825   -0.2823853386    2.3896982492
 H    1.3632049196   -1.0678810038    3.9765354878
 H   -1.5617636842   -1.9473457934    4.2534181638
 H   -0.2369771905   -2.3993816177    5.3343822915
 H   -0.7692702469   -0.7149672432    5.2481698614
 H    1.2937593566   -3.3660396520    3.0174218770
 H   -0.3484727932   -3.9172523999    1.1964301323
 H   -1.3199751240   -2.4368771261    1.5954241756
 H    1.6167685907   -2.4888843816    0.5536392677