19

 O   -0.6266759895    0.5965155979    0.6349261342
 C    0.0030995446    1.0721643367   -0.2754541965
 C    1.2043768336    1.9663279753   -0.1491224587
 C    1.2022350676    3.3332386700   -0.9876683948
 C    1.0422166517    4.0304761357    0.3806207193
 C    1.5193644225    4.9163192369    1.5747709517
 C    0.7649102767    3.6497663022    2.1956944161
 C   -0.3226917856    3.8864437751    1.1330505077
 C    1.5596285457    2.8054179520    1.1407790575
 H   -0.2580687664    0.8357931569   -1.3353383302
 H    2.0500192613    1.3291104862   -0.4416683948
 H    2.1676450996    3.4960987888   -1.4730343930
 H    0.4027275492    3.4778454515   -1.7204893556
 H    2.5987778161    4.9700321466    1.7381404575
 H    1.0363318718    5.8849221743    1.7376475595
 H    0.6199636457    3.4586334787    3.2620629463
 H   -0.9074823979    4.8059467791    1.2236910212
 H   -0.9611247199    3.0391556810    0.8914538552
 H    2.6390606331    2.7738576552    1.3135412573