19

 C    0.0963461471    1.5535621098    0.1852607837
 C   -0.0976685612    0.0491593268   -0.0705931445
 C    0.6462505143   -0.4520367833   -1.2756078488
 C    0.0943630494   -0.8627049482   -2.4699512269
 N    1.1036730173   -1.2477104661   -3.3200934430
 C    0.9318652331   -1.6529408365   -4.6977065162
 C    2.3060043593   -1.0770248530   -2.6813699503
 C    2.0596670988   -0.5903986080   -1.4190675763
 H    1.1540533103    1.7935708180    0.3337734724
 H   -0.2579005203    2.1417967563   -0.6672274434
 H   -0.4517737630    1.8772197184    1.0765362543
 H    0.2210507828   -0.5061523986    0.8213186642
 H   -1.1667928445   -0.1616789367   -0.1921918655
 H   -0.9372222388   -0.9174888146   -2.7832849582
 H    0.8790099005   -0.7924059481   -5.3757293183
 H    1.7712731846   -2.2830408945   -5.0012171390
 H    0.0119278715   -2.2342882954   -4.8021809529
 H    3.2303855050   -1.3226612288   -3.1807849161
 H    2.8060321239   -0.3770500275   -0.6680266551