21

 C    0.0644631999    1.5838556519   -0.0410391157
 C    0.0465617677    0.0702333826    0.0774549011
 O   -1.3080428666   -0.4167593053    0.1051936002
 C    0.9359857410   -0.7532782452   -0.9076525997
 C    1.5173521593   -1.5605774349    0.2924106502
 C    0.7989638154   -0.5949348564    1.2422944596
 C    1.3688550400    0.0892532316    2.4617824222
 C    0.1977056015   -0.8463739360    2.5927008350
 O   -1.0460893804   -0.2809812640    2.8800671324
 H    1.0881891671    1.9678587791   -0.0256426564
 H   -0.3974678223    1.9053691093   -0.9837619167
 H   -0.4892054701    2.0368988638    0.7871881780
 H   -1.7939313807    0.0041890168   -0.6121610969
 H    0.3684169442   -1.3267911914   -1.6434730533
 H    1.6813901438   -0.1439369868   -1.4250756027
 H    1.1512634404   -2.5897351389    0.3474249845
 H    2.6079390631   -1.5754546718    0.3642271179
 H    2.3431711525   -0.2391232050    2.8109577619
 H    1.1599891824    1.1447354070    2.6022720786
 H    0.3733405876   -1.8215117421    3.0490501738
 H   -1.5845877858   -0.3959082542    2.0846947560