21

 C    0.0843113908    1.5417909136    0.0937418178
 C    0.0101863144    0.0243941671    0.0220573884
 C    0.6135608004   -0.5419542520   -1.2760648965
 C    0.9410598650   -2.0315183028   -1.1735383595
 O    0.5086471534   -2.8205828120   -2.2526797370
 C    2.2053346848   -2.4601732820   -0.4660475921
 C    0.8504979611   -2.7021081811    0.1676413703
 C    0.4284039155   -1.8676870621    1.3591260727
 O    0.6906986664   -0.4891210823    1.1634176695
 H    1.1288803854    1.8688868432    0.0913377211
 H   -0.4217386447    1.9926958647   -0.7654423666
 H   -0.3873984359    1.9073263494    1.0096419700
 H   -1.0455324362   -0.2931407714    0.0795682963
 H   -0.1092992561   -0.4118796342   -2.0880052113
 H    1.5112780975    0.0311649054   -1.5416963983
 H    1.0666552466   -2.6123387931   -3.0106103219
 H    2.7272900408   -3.3224950090   -0.8656085428
 H    2.8330009209   -1.6866530969   -0.0344206741
 H    0.4866077995   -3.7245419743    0.1580838264
 H   -0.6466025813   -2.0197895652    1.5580160847
 H    0.9815598016   -2.1573932350    2.2591128429