19

 C    0.0959834838    1.4039963096   -0.3595363466
 C    0.0885399216   -0.0451057659    0.0503344061
 O    1.3418637454   -0.7469944275    0.1365695425
 C    0.5729401978   -0.5773042756    1.3340645270
 C    1.1943816236    0.2189290796    2.4632547571
 C    2.1245875329   -0.6300019279    3.3976491364
 C    3.3866749643    0.0660469502    2.8078464078
 C    2.4551264616    1.0589269877    2.1130640667
 O    2.6186527930    2.1312779746    1.6087920247
 H    0.8348980460    1.9885603116    0.1894825673
 H    0.3101386872    1.4868199233   -1.4304147632
 H   -0.8968230073    1.8356381920   -0.1882883797
 H   -0.6866924011   -0.6424908330   -0.4358598380
 H    0.1050152691   -1.5013366616    1.6850264145
 H    0.4207043683    0.7962674044    2.9813170916
 H    1.9719188754   -0.4146743417    4.4566324245
 H    2.0686196625   -1.7087784712    3.2434123694
 H    4.1211159772    0.4944329061    3.4937920977
 H    3.9091111089   -0.5516332747    2.0700052142