20

 C    0.0680567958    1.6078127440    0.1226358521
 C    0.0205567133    0.0769851788    0.0653033113
 C    0.6743341352   -0.5255421395   -1.1751094370
 C    0.8471364206   -2.0575358881   -1.2647758265
 C   -0.4764726866   -2.7708570630   -1.4214043276
 C    0.1087705294   -2.0349739622   -2.5937464354
 N   -0.1031337337   -0.6078820837   -2.4443239282
 C   -0.7939923916    0.2701972367   -3.1996970695
 O   -0.9325246257    1.4586976513   -2.9824156055
 H    1.1047085018    1.9634703750    0.1399180851
 H   -0.4225551094    2.0422949418   -0.7505750428
 H   -0.4226155994    1.9753448473    1.0290998425
 H    0.5492219521   -0.3430364699    0.9317339155
 H   -1.0147313985   -0.2741263201    0.1363897923
 H    1.6311470148   -0.0252858439   -1.3715665144
 H    1.7588130793   -2.5801430966   -1.0121224585
 H   -0.3965379634   -3.8526332726   -1.4672125732
 H   -1.3798364152   -2.4009294291   -0.9470875457
 H    0.3594669951   -2.4764202112   -3.5503468219
 H   -1.2236787639   -0.2321421550   -4.0920126925