19

 C    0.2477880914    1.5857575438    0.1124551820
 O    1.6587082346    1.3239959899   -0.1229620647
 C    1.4275689823   -0.0829478665    0.0018859526
 C   -0.0699085668    0.0946093292    0.1325777685
 C    0.5313862367   -0.5898460817   -1.0891882882
 C    0.5187705988   -0.0304799204   -2.4845575071
 C    1.2330426058   -0.8511209992   -3.5865316296
 O    0.0255207072   -0.9424568040   -4.3684233472
 C   -0.7417788372   -0.2688530880   -3.3511481715
 H    0.1103072010    2.0685284412    1.0861640178
 H   -0.2011188957    2.2052269884   -0.6727713993
 H    2.1570521834   -0.6662190919    0.5524730169
 H   -0.7836939220   -0.3899036601    0.7847893798
 H    0.3891511926   -1.6690301010   -1.0354086422
 H    0.8415324588    1.0111777174   -2.4706628454
 H    2.0379281002   -0.3414567572   -4.1289997911
 H    1.5922380027   -1.8395341210   -3.2667639764
 H   -1.4936692273   -0.9293945567   -2.8971028383
 H   -1.2453889065    0.6247416079   -3.7398678966