16

 O   -0.1357596395    1.3913240461   -0.0268491068
 C    0.0389465137    0.0300902722   -0.0411933069
 C    0.8425781368   -0.7881873218   -1.0372972112
 N   -0.1274580015   -1.9327586409   -0.8280042597
 C    0.4226146124   -2.8753646418    0.1595034553
 C    0.5541768257   -2.0697632900    1.4705762679
 O    1.1473724741   -2.3938706612    2.4690967423
 C   -0.2396759764   -0.8251067443    1.2353795264
 C   -1.0211699520   -1.0075605109   -0.0542151603
 H    0.6233594723    1.7974419256    0.4071931629
 H    0.7528191187   -0.4021631736   -2.0565046851
 H    1.8913094470   -1.0160492111   -0.8159151411
 H   -0.2788524414   -3.7040215777    0.3145446694
 H    1.3765715179   -3.2962617489   -0.1661417833
 H   -0.6469840739   -0.2650390979    2.0674465575
 H   -2.0962429337   -0.9813436637   -0.1740938573