20

 C    0.0214236707    1.5632153185    0.0440616427
 C    0.0469005857    0.0338816488    0.0185116164
 C    0.7885829405   -0.5649210309   -1.2041420498
 C    1.2880947297   -1.9589429902   -0.7612903258
 C    1.4920908265   -1.8170429758    0.7339606430
 N    2.2097844953   -0.5730847436    1.1263597936
 C    0.7544388453   -0.5955350987    1.2128577655
 C    1.5867976894   -2.9855126369    1.6289509886
 O    1.4974839319   -4.1365196700    1.2776472711
 H    1.0402015401    1.9602771492    0.0939102688
 H   -0.4551953574    1.9610593412   -0.8577529231
 H   -0.5345498415    1.9425862496    0.9081095244
 H   -0.9850591338   -0.3427675211    0.0324643892
 H    0.1496257308   -0.6097010563   -2.0897407559
 H    1.6441115368    0.0702690818   -1.4482915346
 H    0.5366134295   -2.7368902915   -0.9313768111
 H    2.1992100630   -2.2659271342   -1.2820294730
 H    2.6170219791   -0.6924826117    2.0534869496
 H    0.2866661966   -0.5726728315    2.1939887441
 H    1.7520474917   -2.7157995871    2.7018377461