21

 C    0.0020523740    1.4165369272   -0.1177577317
 C    1.4387280522    1.9507153248   -0.0426136554
 C    2.2209849848    1.3802478523    1.1616751874
 C    1.7194383974    1.8853611817    2.5330562869
 C    0.5106954589    1.1449761162    3.0477696260
 C    0.0085981995    0.0609084454    2.4563061390
 C    0.6102632840   -0.4948462854    1.1847293059
 C    2.1020914715   -0.1518237438    1.1081880182
 O   -0.0659177696    0.0027856726    0.0156325321
 H   -0.6204487905    1.9033602315    0.6466434399
 H   -0.4402340790    1.6380631158   -1.0938881617
 H    1.9714635541    1.6655206077   -0.9583111982
 H    1.4155004121    3.0468711801   -0.0114983800
 H    3.2693139939    1.6796706099    1.0536566349
 H    2.5277660568    1.7927664041    3.2740553377
 H    1.4987222335    2.9605831803    2.4851578207
 H    0.0536424263    1.5319841488    3.9565747242
 H   -0.8796989561   -0.4251170060    2.8496961969
 H    0.4578760389   -1.5771215649    1.1374691561
 H    2.5164649433   -0.5396791934    0.1716367840
 H    2.6390740138   -0.6232370650    1.9389979469