23

 C   -0.2361235416    1.6624601903    0.2330155053
 C   -0.1864149761    0.1398023946    0.4003865901
 C   -1.4205403535   -0.5722834357   -0.1585560183
 C   -1.6142803697   -0.4172796128   -1.6959005282
 C   -2.2136784737   -1.7378422472   -2.1170941932
 C   -2.1322967268   -2.6482918526   -1.1475995311
 C   -1.4952715658   -2.0989215996    0.0781343281
 C   -0.4218441106   -2.9042917573    0.7906475283
 C   -1.7620503469   -2.6885544216    1.4416017130
 H    0.6512847795    2.1365232965    0.6637649759
 H   -0.2855316781    1.9493535685   -0.8223782791
 H   -1.1153753786    2.0856935074    0.7318608880
 H    0.7126054852   -0.2557740230   -0.0899125965
 H   -0.0815949858   -0.0943236360    1.4681918955
 H   -2.3065099523   -0.1374590630    0.3252124856
 H   -2.2466071889    0.4409381619   -1.9494086955
 H   -0.6531587737   -0.2495781886   -2.2061832955
 H   -2.6161622795   -1.9114466524   -3.1087085106
 H   -2.4566834985   -3.6816032568   -1.2169219235
 H   -0.1900128924   -3.8898327452    0.4002478352
 H    0.4341026501   -2.3775729834    1.1971359125
 H   -1.8104727154   -2.0021889405    2.2822447930
 H   -2.4463172770   -3.5277928136    1.5158420909