10

 O    0.0024027092   -0.0387366990    0.0030542794
 C   -0.0515227247    1.1631495744    0.0066651380
 C    1.1716440223    1.9831905121    0.0005102426
 N    2.1609784107    2.5804061320   -0.0046506737
 C   -1.3285270366    1.9209076662    0.0175446405
 N   -1.3483890325    3.2325291192    0.0212807579
 O   -2.6954351096    3.5313002004    0.0313159462
 C   -3.3444216724    2.3547757831    0.0326696991
 N   -2.5671836111    1.3229303301    0.0244922773
 H   -4.4236392654    2.3904299114    0.0402090028