15

 N   -0.3787724980   -1.1242711455   -0.5603229894
 C   -0.2363711303   -0.0068617791   -0.2977835441
 C   -0.0295175295    1.3901020871    0.0449572519
 C   -0.0688534789    1.7901970925    1.5664551906
 C    1.3583034139    2.3725752969    1.4361376536
 O    2.3787994120    1.4280082346    1.7967247456
 C    2.5407700923    1.0026364051    0.4197076492
 C    1.4282749131    1.9498638864   -0.0583565241
 H   -0.7228550669    1.9976728454   -0.5416623170
 H   -0.8510484234    2.5185241674    1.7896278953
 H   -0.1306638187    0.9583722772    2.2688035524
 H    1.5517451273    3.3745843748    1.8259367324
 H    3.5376771297    1.2576049253    0.0416182743
 H    2.3662853654   -0.0708709471    0.2856508963
 H    1.6391844018    2.6101479888   -0.8971015169