18

 N   -0.0540435281   -1.0475697399   -0.0511003834
 C   -0.0078340239    0.1075143367   -0.0033505520
 C    0.0434566143    1.5432506775    0.0518409444
 C    0.5795438537    2.1505095033    1.3370171854
 C    1.4276520921    2.1689033871    0.0712268962
 C    1.3566986100    3.7127640476    0.0254397817
 C    0.1978012551    4.4127828622   -0.7458885339
 C   -0.6740370692    4.3939284830    0.5554455148
 C    0.4895176632    3.6939634399    1.3197820997
 H   -0.7699582539    2.0179359794   -0.4862874839
 H    0.6757790915    1.5316458110    2.2204745836
 H    2.2895281118    1.5666525405   -0.1880229996
 H    2.3348547521    4.1927177770    0.0095386500
 H    0.4558144398    5.4215952325   -1.0751398000
 H   -0.2005706185    3.8708858224   -1.6076802628
 H   -0.8938213194    5.3924028205    0.9394028084
 H   -1.6152502233    3.8403074249    0.5038905699
 H    0.8405399825    4.1603090746    2.2399465114