21

 C   -0.1710158339    1.4805231437    0.2653745410
 C    0.0912330729    0.0079784082    0.0610715876
 C   -0.6785050273   -1.0019640797    0.8476334030
 C    0.8107710210   -0.8755718131    1.1255916350
 C    1.7434378543   -1.8308187639    0.3938594520
 C    1.2520165234   -1.8354902769   -1.0713300508
 C    0.6323703330   -0.4405545565   -1.2935471458
 C    1.2393828378   -0.2795255744    2.4061682477
 O    0.5330262625    0.3583819215    3.1559571848
 H    0.6969352925    2.0823978382   -0.0275213963
 H   -1.0188118493    1.8022611778   -0.3507089933
 H   -0.4051977676    1.7014545273    1.3089025817
 H   -1.3169738528   -0.6184660728    1.6363950017
 H   -1.0284119759   -1.9154897859    0.3773144018
 H    2.7706089009   -1.4489097305    0.4571039621
 H    1.7497349160   -2.8371842405    0.8268988916
 H    2.0551286589   -2.0537350904   -1.7795982103
 H    0.4946466359   -2.6129463928   -1.2100165706
 H   -0.1431764185   -0.4470761414   -2.0680196208
 H    1.3988682954    0.2748547025   -1.6168843030
 H    2.3149543908   -0.4424688404    2.6491056309