15

 N    0.0175172919    1.3390697827   -0.0618614524
 C    0.0343563723   -0.0315652821   -0.0251737428
 O    1.0982305337   -0.6518315512   -0.0626946083
 C   -1.2565246241   -0.7101470565    0.0188051884
 C   -1.3734338934   -2.1047390192    0.0592214898
 N   -0.3850216897   -3.0451481267    0.1677997013
 N   -2.6974260608   -2.3695515462    0.0448208545
 N   -3.4760804464   -1.2414212271   -0.0078695131
 C   -2.6023589210   -0.2542381594   -0.0211421314
 H    0.9084750434    1.7935373942    0.0601986246
 H   -0.8007116086    1.8477022286    0.2270279204
 H    0.5237865964   -2.6187402160    0.0009019206
 H   -0.5367722223   -3.9233492279   -0.3058778999
 H   -3.1465824068   -3.2675057144    0.1006243103
 H   -2.9643592145    0.7634555311   -0.0746950119