21

 C   -0.1545650300    1.2700191280    0.5126278153
 C   -0.4154937853   -0.2263291571    0.3267564805
 C   -1.6697098853   -0.5170650287   -0.5000221012
 O   -1.5950978624    0.0230253218   -1.8150953182
 C   -1.9847118738   -2.0124726627   -0.5882465255
 O   -2.2341075949   -2.5091065763    0.7164150144
 C   -2.5476264384   -3.8785111538    0.7491439804
 C   -3.9836378387   -4.1624694416    0.3197017827
 O   -4.3884165880   -5.2469264671   -0.0039369106
 H    0.7786577686    1.4448314792    1.0558996747
 H   -0.0901488520    1.7765018483   -0.4543245506
 H   -0.9646517573    1.7414189147    1.0795914048
 H    0.4446461470   -0.7004361924   -0.1713298556
 H   -0.5207210081   -0.7259217471    1.2952877329
 H   -2.5305376083   -0.0192157551   -0.0371326530
 H   -0.7797684538   -0.2962064349   -2.2184667717
 H   -2.8551053245   -2.1543083766   -1.2461995402
 H   -1.1344278310   -2.5519272400   -1.0429590900
 H   -1.8594621542   -4.4883584046    0.1448528745
 H   -2.4499540467   -4.2051190163    1.7929670099
 H   -4.6450913328   -3.2661273375    0.3665559764