21

 C   -0.0907542526    1.5372900702    0.0925449394
 C   -0.0487312523    0.0275456114   -0.0729115548
 C    0.7428198810   -0.4424991751   -1.2899343180
 N    0.9095795516   -1.8926938190   -1.3212640138
 C    1.5174835992   -2.4078990797   -0.0857005897
 C    3.0449743494   -2.2212877526   -0.1071766300
 C    0.9446289521   -1.8032264283    1.1913808259
 N    0.9629910690   -2.4551659151    2.2765503639
 O    0.5175598414   -0.5054661035    1.1461302203
 H    0.9224855684    1.9435218612    0.1694135430
 H   -0.5879590393    1.9998060726   -0.7655373028
 H   -0.6385222208    1.8084249486    0.9986279454
 H   -1.0754175411   -0.3645275680   -0.1512733093
 H    0.2333326801   -0.1203124504   -2.2043575040
 H    1.7316824514    0.0316162470   -1.2880120832
 H   -0.0003005850   -2.3260359624   -1.4484422870
 H    1.3121591365   -3.4795210505   -0.0369207772
 H    3.3261306308   -1.1642082108   -0.0783952317
 H    3.4898108335   -2.7097440975    0.7624372595
 H    3.4509434168   -2.6607800860   -1.0217749480
 H    0.5838088897   -1.8824416721    3.0345984221