23

 C   -0.0514065740    1.5927745144   -0.1089370218
 C   -0.0332276183    0.0643114604   -0.1899160639
 C   -1.3700766970   -0.5722855457    0.2207362829
 C   -1.3842543525   -2.0802149798    0.1174614742
 C   -1.6734852927   -2.7755204307   -1.1923545496
 C   -2.6475566025   -2.8975393588   -0.0460152241
 C   -2.4746242775   -4.1165139019    0.8389487743
 O   -1.0728643132   -4.2141915461    1.0791567901
 C   -0.5312360150   -2.8975321251    1.0811043147
 H    0.9111734380    2.0204310774   -0.4060029061
 H   -0.8202710884    2.0145900095   -0.7661489411
 H   -0.2668905528    1.9336725196    0.9099751480
 H    0.2135765292   -0.2507706055   -1.2115249062
 H    0.7692251247   -0.3250889349    0.4496781172
 H   -1.6096492749   -0.2747948325    1.2519586242
 H   -2.1704112700   -0.1611238118   -0.4083054522
 H   -1.9681402693   -2.1503847034   -2.0287599646
 H   -1.0871563991   -3.6492307365   -1.4607257745
 H   -3.6215095967   -2.4254507940   -0.1093648903
 H   -3.0340742652   -3.9863152734    1.7803625951
 H   -2.7891042970   -5.0603468102    0.3804580397
 H    0.5224992752   -2.9844239145    0.7955481825
 H   -0.5794763911   -2.4460678165    2.0876440814