22

 C   -0.0311444102    1.5976267119    0.0135913570
 C   -0.1957027832    0.0753064825   -0.0829831254
 C    0.6202067528   -0.5244732273   -1.2217892550
 C    2.1663782502   -0.7372739172   -1.1274387255
 C    1.9034732242   -1.9656910528   -0.2122357530
 C    0.8506646231   -2.0720809065   -1.3628216265
 C   -0.1974186735   -3.1377269795   -1.5515210580
 C    2.0204043949   -1.7095132033   -2.3312830026
 H    1.0082252009    1.8707607867    0.2249090757
 H   -0.3156915118    2.0868322970   -0.9247455953
 H   -0.6547545811    2.0163012558    0.8097192210
 H    0.0637854841   -0.3772673590    0.8796708875
 H   -1.2549085592   -0.1621252807   -0.2517611728
 H    0.3129550938   -0.0551126801   -2.1667168814
 H    2.9326608344    0.0280932682   -0.9962036316
 H    2.6813624807   -2.7354098761   -0.2039475904
 H    1.5357761281   -1.7828236421    0.7989565981
 H   -0.9008948461   -3.1551862503   -0.7114388551
 H   -0.7744828454   -2.9660346560   -2.4672328997
 H    0.2585044517   -4.1314268647   -1.6248113412
 H    1.7414718526   -1.2676035299   -3.2929923559
 H    2.8050763789   -2.4628546868   -2.4480933999