20

 C   -0.0665271559    1.5177679159    0.0845717782
 C    0.0548871698   -0.0049494209    0.0654525773
 N    0.6874006150   -0.4956619609   -1.1525354948
 C    2.0949623893   -0.1414351994   -1.3266665801
 C    2.7017846779   -1.2787972505   -2.1638354471
 O    3.7024786672   -1.2003879998   -2.8293691473
 C    1.7825555157   -2.4488138241   -2.0449467910
 C    1.4301389317   -2.8666015457   -0.6131213580
 C    0.5426985243   -1.9211912113   -1.3708002901
 H    0.9157166709    2.0005747346    0.0882090300
 H   -0.6145736108    1.8703337876   -0.7940429455
 H   -0.5984505073    1.8450201126    0.9828987965
 H    0.5955650889   -0.3458524945    0.9699863076
 H   -0.9457053333   -0.4503598824    0.1147053619
 H    2.2285719661    0.8136030042   -1.8425019166
 H    2.6493238186   -0.0748727205   -0.3718502116
 H    1.7790757860   -3.1910150845   -2.8320377731
 H    1.1075597568   -3.8953263854   -0.4970393703
 H    2.0398435158   -2.4919376953    0.2018837681
 H   -0.4473918766   -2.2448181300   -1.6756609243