19

 C    0.4768811407    1.2466807743    0.0802439020
 C   -0.4577728699    0.0978757992   -0.3083071319
 N   -0.0020087854   -0.6527641679   -1.4647691742
 C    0.6910453901   -1.8183865141   -1.3418178923
 O    0.8900978343   -2.4186164640   -0.3076714334
 O    1.1199219989   -2.2292305833   -2.5637325856
 C    1.8411527876   -3.4718456495   -2.5693035821
 C    2.2412773562   -3.7606049003   -4.0038601780
 H    1.4701734622    0.8646521668    0.3327897242
 H    0.5848910561    1.9662876981   -0.7386892873
 H    0.0830111121    1.7836781279    0.9492524242
 H   -0.5368701949   -0.6198002094    0.5110698515
 H   -1.4646092896    0.4802971033   -0.5128846300
 H   -0.0050046935   -0.2184990670   -2.3732736246
 H    2.7129698732   -3.3848590717   -1.9129666385
 H    1.2023324963   -4.2604666493   -2.1588515406
 H    1.3598122842   -3.8455465920   -4.6459051065
 H    2.8789042362   -2.9647773067   -4.3996120832
 H    2.7955122452   -4.7026175745   -4.0527568637