14

 N    0.0801416560    1.2495522108   -0.4345954956
 C    0.0625199463    0.0447210702   -0.0507761659
 N   -1.1463215412   -0.6710565243    0.0066455641
 C   -1.1143953686   -2.0751040572    0.1007279763
 N   -0.0179062306   -2.7074741185    0.0446156124
 C   -2.3940109644   -0.0385901613   -0.0816781898
 N   -3.4165693082   -0.6858121767   -0.4819156400
 C   -2.4968032158    1.3296814564    0.3911407638
 N   -2.7871910396    2.3707032782    0.8029972506
 H    1.0199329586    1.6365146511   -0.3775945890
 H    0.9048718394   -0.5776813995    0.2482704550
 H   -2.1127613366   -2.4921197086    0.2260966937
 H   -0.1780426098   -3.7038707705    0.1761338711
 H   -4.2591739055   -0.1189015701   -0.4068540766