17

 O   -0.0745137756    0.8024875581    1.3513742426
 C   -0.0431579363    1.3597635430    0.2799067091
 C   -1.3015341494    1.6972736692   -0.5085656775
 C   -1.3299383340    3.1655717023   -0.9059872874
 C   -0.8143075071    4.1883416422    0.0519558731
 C   -0.0177329882    3.8682982902   -1.2148665124
 C    1.2708592411    3.1310775695   -1.1069520476
 O    2.2914616352    3.5483789738   -1.6021630799
 C    1.2623601468    1.7762027247   -0.3778313535
 H   -1.3178771927    1.0730676165   -1.4130581283
 H   -2.1697973249    1.4321677004    0.1002485266
 H   -2.1688729852    3.4511308059   -1.5323154936
 H   -1.2781325200    5.1668777614    0.0868682046
 H   -0.4193267544    3.8505653574    1.0049006759
 H   -0.0053302531    4.6362736842   -1.9793742879
 H    2.0780661297    1.7322255145    0.3474215772
 H    1.4950336179    1.0348824466   -1.1561464910