21

 C   -0.1410015892    1.4290964270   -0.0485570992
 C    0.0020830449   -0.0729484922    0.0645436119
 C    1.3585950549   -0.7280780739   -0.1055057023
 C    0.6989403399   -0.7015100084    1.2392822270
 C    1.2755415160   -0.0696043968    2.5281209775
 C    0.8872961287   -1.3498929784    3.2856672999
 C   -0.6032735076   -1.5943636365    3.1600269676
 C    0.3005969264   -1.9468747218    2.0119834206
 O    0.4323446539   -3.2350647683    1.5218524916
 H    0.7274649142    1.9414051024    0.3784688944
 H   -0.2272307936    1.7426193215   -1.0951284930
 H   -1.0302203526    1.7898446281    0.4810062616
 H   -0.8411940045   -0.6356093420   -0.3331491498
 H    1.4139364334   -1.6862168575   -0.6121452476
 H    2.2162416370   -0.0810138850   -0.2677730565
 H    2.3553686496    0.0910671134    2.4736387836
 H    0.7960550515    0.8495995405    2.8820900848
 H    1.4736329825   -1.8295432181    4.0588300613
 H   -0.9616965646   -2.4504627737    3.7242660996
 H   -1.3027366883   -0.7630646663    3.0972180345
 H   -0.4370273625   -3.5457934739    1.2485151427