17

 O   -0.1713663406    0.1193984119    0.3524378618
 C   -0.0441771076    1.2557696603    0.0255440171
 O   -1.0125487304    2.1043667564   -0.4464967720
 C   -0.0326902987    3.2043470490   -0.6052384555
 C   -0.3566777276    4.4381803606    0.1616453086
 C    0.5027148377    4.9469148268    1.0456503284
 C    1.7921478897    4.2590431679    1.4209098137
 C    1.6463085898    2.7301298329    1.3344415395
 C    1.0768723553    2.2985798484   -0.0281185583
 H    0.0647250939    3.4121555061   -1.6757742480
 H   -1.2898099900    4.9409120045   -0.0756326607
 H    0.2753950170    5.8909220950    1.5339427321
 H    2.6082980743    4.6048793871    0.7702911659
 H    2.0825440258    4.5424594330    2.4379471879
 H    2.6039168055    2.2346512633    1.5143357605
 H    0.9690818255    2.4062638969    2.1312376568
 H    1.8657167902    2.0491611898   -0.7407746278