21

 C   -0.2131338879    1.3477198316    0.1614895981
 N    0.0088012313   -0.0746564648   -0.0426293391
 C   -0.0715426402   -0.9694558048    1.0974951328
 C   -1.4604677981   -1.0709659877    1.7166567681
 C   -2.5641518107   -1.5157871127    0.7811119372
 C   -1.5243522879   -1.4240125946    3.1580473850
 N   -1.8627955630   -0.0591950311    2.7155765093
 C    0.3486260817   -0.5329534058   -1.2838904857
 O    0.4652007388    0.1463715416   -2.2811498320
 H    0.4873078783    1.7428141947    0.9088209709
 H   -0.0435999115    1.8480444587   -0.7919190642
 H   -1.2342084729    1.5460618486    0.5028884544
 H    0.2487354751   -1.9617545112    0.7586016075
 H    0.6423638559   -0.6469644064    1.8709795883
 H   -2.3742465168   -2.5278907129    0.4060243964
 H   -3.5239297129   -1.5117541931    1.3018160294
 H   -2.6426860641   -0.8470443787   -0.0816358041
 H   -2.3614296329   -2.0066469250    3.5322456849
 H   -0.5913494936   -1.5815154896    3.6945902120
 H   -1.0861944292    0.5654149816    2.9213595607
 H    0.5112746905   -1.6289972683   -1.2822087300