14

 N   -0.1689328783    1.4133584626    0.1303025029
 C   -0.0413160249    0.1570766166    0.0076396451
 N    1.1978049543   -0.4926096852   -0.1194581854
 C    1.4230631859   -1.4343621402   -0.9421652859
 N    0.5738675439   -2.0082419387   -1.8764086200
 C   -0.7980054248   -1.8485137700   -2.0018447447
 N   -1.6241537826   -1.3145719039   -1.1975622759
 C   -1.2602891011   -0.7358145505    0.0297558939
 N   -1.9083912183   -0.9033555764    1.1074708985
 H    0.7557598043    1.8522346755    0.0982227510
 H    2.4231276678   -1.8666828343   -0.9796414348
 H    1.0097973912   -2.6200882538   -2.5509828133
 H   -1.1773820976   -2.2873468001   -2.9248471039
 H   -2.6994813700   -1.5297464617    0.9328030526