17

 C   -0.3495663687    1.2935561161    0.1350576802
 N   -0.0227323275   -0.0978891873   -0.0718300218
 C    0.4760991038   -0.7119240309   -1.1589803361
 N    0.6390570494   -2.0035086962   -0.9385102406
 C    0.2087265627   -2.1340134715    0.3494550337
 N   -0.2104588203   -1.0101849395    0.9221389286
 N    0.2818022243   -3.3410109583    1.0324732842
 C   -0.8568716058   -3.7845930539    1.8235454750
 C   -0.4929603008   -4.4800873826    0.5540414712
 H    0.2469619656    1.7057813402    0.9532900295
 H   -0.1345456722    1.8445149663   -0.7825132511
 H   -1.4092541775    1.4011521111    0.3819082090
 H    0.7025197283   -0.1866662663   -2.0754557683
 H   -0.6102020472   -4.2290608711    2.7828955399
 H   -1.7408128862   -3.1528076847    1.8197171122
 H   -1.1322079989   -4.3223658210   -0.3103827352
 H    0.0248601610   -5.4339264505    0.5772693596