17

 O    0.0750020993    1.3129159272   -0.0368467263
 C    0.0810160476   -0.0384862633   -0.0679165285
 C    0.0484171502   -0.8341893913   -1.1916071264
 N    0.1042825595   -2.1188010507   -0.6759426389
 C    0.0019621804   -3.4769178663   -1.1764113236
 C    0.3846500139   -4.3059743717    0.0811450471
 C    0.1084953847   -3.3814213759    1.3025019089
 C    0.1409949613   -2.0248253221    0.6720099088
 N    0.1341668439   -0.7715718242    1.0881728477
 H    0.1051598343    1.5556106192    0.8965114530
 H    0.0228656384   -0.6113623717   -2.2427450244
 H   -1.0192992692   -3.6876419697   -1.5188726042
 H    0.6811346132   -3.6492558027   -2.0165349541
 H   -0.1672729132   -5.2464805455    0.1286434021
 H    1.4497254154   -4.5491751210    0.0400442711
 H   -0.8732662751   -3.5830474387    1.7492704609
 H    0.8513841855   -3.5035244115    2.0948183467