17

 N   -0.0714873124    1.4728221967   -0.1401692829
 C   -0.0678200326    0.0471411963   -0.0389208884
 C    0.3695695620   -0.7414985955   -1.3129925537
 O    1.6831082830   -1.2117208175   -1.3941348511
 C   -0.8398938127   -1.7254706403   -1.1401152924
 C   -1.3033600258   -0.9173736980    0.0832808730
 O   -0.7240744014   -1.4865618791    1.3066889100
 C    0.3786807342   -0.6674544970    1.2287424005
 N    1.3916413854   -0.5772897413    1.9680835362
 H   -0.0472372655    1.9108967871    0.7752280931
 H    0.7543266354    1.7867025492   -0.6406767757
 H    0.2127970072   -0.1046825495   -2.1889358509
 H    1.9613844209   -1.5064198571   -0.5179202360
 H   -1.5282840279   -1.7160268826   -1.9873807328
 H   -0.5748543340   -2.7573336628   -0.9008523958
 H   -2.3388065287   -0.6155489199    0.2246639454
 H    1.3439742429   -1.2296335888    2.7535817416