21

 C    0.1497527291    1.4278045292    0.0882198051
 C    0.0785117953   -0.0261555922    0.0440702520
 C    0.0210510165   -1.2292505695    0.0186477859
 C   -0.0548566004   -2.6898040079   -0.0446477630
 C   -1.5102438479   -3.1838829813    0.0727899149
 C    0.6088127913   -3.2075273799   -1.3299303239
 C    2.1318107682   -2.9970692468   -1.4664991513
 O    2.3714574967   -4.4200028736   -1.5199906240
 C    0.9678221385   -4.7105744358   -1.3785668361
 H    0.8180400769    1.7701543104    0.8861319926
 H    0.5254660114    1.8376062215   -0.8559131628
 H   -0.8362270399    1.8694791249    0.2705976508
 H    0.5123294664   -3.1001115727    0.8044144111
 H   -1.5489696255   -4.2778148932    0.0508374918
 H   -1.9622345180   -2.8432917574    1.0077368690
 H   -2.1146855292   -2.8002988645   -0.7548878251
 H    0.0400525587   -2.8611205780   -2.1965022579
 H    2.4696960004   -2.4900855149   -2.3780022988
 H    2.6149097837   -2.5276045363   -0.5998921660
 H    0.7548728178   -5.2729522656   -0.4583811309
 H    0.5760011999   -5.2745278263   -2.2339652234