23

 C    0.1783089174    1.6575488987    0.2616130350
 C    1.3468642651    0.7676180888   -0.0759298467
 C    2.2134860638    0.2980977599    1.0914883858
 C    1.3955341649   -0.7797751346    1.8668077260
 C    1.2647771957   -0.5544878526    3.3872010319
 C   -0.0086901474    0.2925437843    3.5486295721
 C   -0.9698629289   -0.2882433898    2.4918932820
 C   -0.0703641761   -0.7370288661    1.3045199559
 C   -0.0353146868    0.1739174943    0.0774020004
 H    0.1252803236    2.0853513043    1.2576722323
 H   -0.2011769544    2.3127652717   -0.5156694698
 H    1.8062735569    0.8720195676   -1.0528505116
 H    3.1556057230   -0.1222825078    0.7267042047
 H    2.4839386265    1.1350453306    1.7472485383
 H    1.8432027346   -1.7573829567    1.6677108851
 H    1.1257187239   -1.5177022866    3.8933084694
 H    2.1534068481   -0.0890688481    3.8254623798
 H   -0.4186901015    0.2575034771    4.5625720570
 H    0.2096237468    1.3452308829    3.3330393308
 H   -1.4877072534   -1.1574128297    2.9131788259
 H   -1.7399472413    0.4232724086    2.1808679743
 H   -0.3786689032   -1.7332734758    0.9740199525
 H   -0.6010083072   -0.1365365513   -0.7948565509