22

 C   -1.0754489696    1.4659785830    0.1401070687
 C   -1.2431524468    0.0133872237   -0.3097117333
 C    0.0024973751   -0.5438523646   -1.0071488822
 C   -0.1864010898   -2.0173011853   -1.3683711579
 O    1.0498913018   -2.5769511277   -1.7622944577
 C    0.9401712459   -3.9241131139   -2.1544278489
 O    0.2304996937    0.2546919184   -2.1582649224
 C    1.5707583884    0.3180937438   -2.6059782122
 H   -0.2680525639    1.5611221541    0.8751032817
 H   -0.8311903517    2.1028449208   -0.7131571527
 H   -1.9927101639    1.8432122754    0.6021303758
 H   -1.4780826109   -0.6234573504    0.5512959060
 H   -2.0902130786   -0.0649135815   -1.0029266965
 H    0.8681487338   -0.4698010789   -0.3275067499
 H   -0.5887644347   -2.5661695393   -0.4992815397
 H   -0.9245064347   -2.0940587098   -2.1839410062
 H    0.5596056170   -4.5562595145   -1.3361342194
 H    0.2694869383   -4.0456289664   -3.0196517785
 H    1.9396807642   -4.2688225057   -2.4305732805
 H    2.2432697580    0.6712329149   -1.8086788119
 H    1.9341845821   -0.6519152320   -2.9601234821
 H    1.5939234163    1.0404241659   -3.4267521103