14

 C   -0.0767847796    1.4176368934    0.0249130695
 N   -0.0073811396   -0.0281725978    0.0805240912
 N    0.0046676132   -0.7504626440   -1.0375931586
 N    0.0717955497   -2.0192807294   -0.6975528109
 C    0.1027103203   -2.1036125328    0.6455683605
 O    0.1711597859   -3.2682515644    1.3039025303
 C    0.0532618232   -0.8290424056    1.1955243814
 C    0.0571024816   -0.3542063200    2.5144326876
 C    0.0593417621    0.0688002659    3.6426573903
 H    0.8049970053    1.8591299251    0.4962622032
 H   -0.1154221281    1.6953006995   -1.0278109034
 H   -0.9722627795    1.7751802528    0.5395207922
 H    0.1908549366   -3.9668071607    0.6365183479
 H    0.0619135289    0.4254557682    4.6428671589