17

 C   -0.0008148813    1.5084011039    0.0118907110
 C    0.0116792186    0.0014651370    0.0154398434
 C    0.3237117418   -0.7668959970    1.2457845991
 N    1.3246261422   -0.6858157360    0.1438587477
 C    1.1742169417   -1.8113567503   -0.7379262093
 N    0.1031076675   -1.9069100421   -1.4322651451
 C   -0.7410574724   -0.7570771658   -1.0848834099
 C    2.2458822411   -2.7477767053   -0.7982547876
 C    3.1633199995   -3.5244588373   -0.8227587892
 H    0.6935413560    1.9077815388    0.7554652889
 H    0.2890026894    1.8969952357   -0.9700918488
 H   -1.0033899636    1.8854306739    0.2423851314
 H    0.6140172070   -0.2411702858    2.1505050701
 H   -0.1609379122   -1.7271181230    1.4039518756
 H   -1.7370700228   -1.1042893763   -0.7872610507
 H   -0.8767014247   -0.1260618027   -1.9731292154
 H    3.9696329522   -4.2152587876   -0.8550712312