19

 O    0.1870664412    1.3983572910    0.1219477713
 C    0.0836981929    0.0011600971    0.0598885196
 C   -1.3914559930   -0.4299448501    0.2418502902
 C   -1.5955710848   -1.8915455148    0.6510192334
 C   -1.0720481620   -2.9155402488   -0.3541124020
 O    0.3393944304   -2.8335688418   -0.5257183110
 C    0.7725169563   -1.9791440098   -1.5499162678
 C    0.6516135153   -0.4839129712   -1.2716712164
 O    1.0097910008    0.3238525193   -2.1028818501
 H    0.5499254565    1.6685891742   -0.7377327819
 H    0.6806717564   -0.4622390839    0.8630213052
 H   -1.7937907369    0.2266846833    1.0188972046
 H   -1.9493684225   -0.2001375736   -0.6753541008
 H   -1.1013508952   -2.0752290461    1.6131570604
 H   -2.6653889702   -2.0773793490    0.8067061110
 H   -1.2745331620   -3.9293052739    0.0066449134
 H   -1.5762959725   -2.8020087566   -1.3269125458
 H    1.8361473006   -2.1864026983   -1.7142784290
 H    0.2568693386   -2.1815655472   -2.5026345241