13

 N   -0.0902893977    1.3202665341   -0.0249457035
 C    0.0721437315   -0.0175512978   -0.0179623652
 O    1.1102806790   -0.6363075381   -0.0446736248
 N   -1.1779434471   -0.7096455224    0.0258434199
 C   -1.3657077805   -2.0483762215    0.0420791895
 N   -2.6505195947   -2.3293991710    0.0841760929
 C   -3.2231774059   -1.0872057733    0.0919013892
 O   -4.5448551902   -0.9116403900    0.1314330812
 N   -2.3920525170   -0.0667973471    0.0580881029
 H    0.7299723145    1.8990866259   -0.0528948730
 H   -1.0163411365    1.7160173529    0.0019122026
 H   -0.5416347507   -2.7430389526    0.0221709769
 H   -4.9425997650   -1.7909831891    0.1511281713