17

 N    0.2274360687   -1.2175517658   -0.5012423045
 C    0.1449897436   -0.1301043848   -0.1218149435
 C    0.0133337757    1.2544666515    0.3480561401
 N    1.2816259842    1.9595319566    0.1974226171
 C    1.5068663319    2.6987269504   -1.0408902914
 C    1.2876154659    3.4266601838    0.2424901066
 C    0.0490818491    4.2389460888    0.4638191262
 C   -0.2028024188    4.8980904137    1.7551080456
 O    0.2717456804    5.6391666467    0.6312592631
 H   -0.8323752341    1.7072453334   -0.1936306645
 H   -0.2561537663    1.2348127087    1.4101870645
 H    2.5001300411    2.6108261619   -1.4701340515
 H    0.6965562682    2.7326909618   -1.7688035944
 H    2.1497283075    3.8352869621    0.7662191050
 H   -0.8104370482    4.0036857654   -0.1638250279
 H   -1.2252302376    5.1134956862    2.0613836622
 H    0.5126964585    4.7734791297    2.5667998874