20

 C   -0.3385335900    1.0972384928    1.1326744708
 C    0.4246418951   -0.0742350782    0.5535281887
 C    0.5956540527   -0.1713446167   -0.9764855725
 C    2.1137640849   -0.2013486569   -0.6758974540
 C    2.9857385999    0.8653993343   -1.3159840685
 O    1.8647665757    0.0586592741    0.7356671528
 C    2.7339815167   -1.5891375239   -0.9075562575
 N    3.0770685047   -2.2361720721    0.2329598907
 O    2.8862884989   -2.0311388785   -2.0316801713
 H   -0.0074339829    2.0378775716    0.6823707854
 H   -1.4118279506    0.9791437387    0.9474696929
 H   -0.1842023272    1.1605041165    2.2145281191
 H    0.0781047119   -1.0144014240    1.0039623047
 H    0.1884132500   -1.0526535369   -1.4714646606
 H    0.2792055114    0.7263494508   -1.5128202201
 H    2.5158125574    1.8484731317   -1.2271278429
 H    3.9637585177    0.9035956314   -0.8251806485
 H    3.1371195815    0.6253571009   -2.3712940090
 H    2.9365036637   -1.7756107286    1.1170700420
 H    3.5310557386   -3.1319860171    0.1751940879