18

 O   -0.4481098797    0.3842855712    0.4614114875
 C    0.3674326475    0.8043806583   -0.3216414515
 C    1.2918389218    1.9439555585   -0.0489413159
 C    1.3772367331    2.4094701789    1.3911569022
 C    2.0086291485    3.7622248796    1.5579329029
 C    2.1816353164    4.6359037759    0.5675253344
 C    1.7535134609    4.3858679785   -0.8528224575
 C    1.4992682095    2.9242322456   -1.1705133632
 N    2.5074812005    1.9034673939   -0.9035414605
 H    0.4928994748    0.3671467925   -1.3366060596
 H    0.3613637396    2.4036134320    1.8076495927
 H    1.9250026184    1.6621735238    1.9816839394
 H    2.3274907430    4.0226454463    2.5638021328
 H    2.6380266511    5.6003544728    0.7732950833
 H    0.8363046883    4.9530504312   -1.0683947757
 H    2.5057427894    4.7788406669   -1.5513053411
 H    0.9583373183    2.7540739650   -2.1000642995
 H    3.2767114387    2.3151213590   -0.3763132107