18

 C    0.1609354803    1.5955894057    0.1565567550
 O    1.4750881908    1.4735069136   -0.4386685609
 C    1.3077831097    0.0529894283   -0.6262395326
 C    2.4127355808   -0.7480730224    0.0401378858
 O    2.1290695368   -2.1546058144   -0.0063183813
 C    1.0620725481   -2.6493239916    0.6799509729
 N    0.1094396522   -2.1163686346    1.3122644486
 C   -0.0971406928   -0.6749694995    1.4334672089
 C   -0.0587576960    0.0675041117    0.0999485150
 H    0.2049379007    2.0410470047    1.1582666049
 H   -0.5115084770    2.1937229387   -0.4696497416
 H    1.2526053942   -0.2102988655   -1.6908115016
 H    3.3575490968   -0.6251972831   -0.4949526264
 H    2.5663632795   -0.4225923395    1.0730996971
 H    1.1119784919   -3.7367490292    0.6181163969
 H   -1.0792646431   -0.5250856759    1.8958230184
 H    0.6275773782   -0.2404566746    2.1341090550
 H   -0.8938154212   -0.2521607324   -0.5265171143