16

 O    0.0558944028    1.3838204012    0.2766830420
 C   -0.0014989405    0.0064589864    0.0846165326
 C   -1.4166423821   -0.5269852711   -0.1131128652
 N   -1.1723228995   -1.7816406786   -0.9376420645
 H   -1.0112434680   -2.5714213764   -0.3036368814
 H   -1.9924518292   -2.0277035891   -1.4950206625
 C    0.0063686057   -1.4839112966   -1.8106012733
 C    0.1131777860   -2.2275916223   -3.0198826788
 O    0.9796064326   -2.1438443402   -3.8683146712
 C    0.6913135320   -0.3798433610   -1.2543082749
 O    1.6243683094    0.3070668906   -1.6488478545
 H    0.7888258619    1.6595419552   -0.3069375173
 H    0.4892634531   -0.5345834006    0.9142267334
 H   -1.9744330309   -0.7911417325    0.7874544298
 H   -1.9889320998    0.1653449279   -0.7323542618
 H   -0.7389328538   -2.9577733228   -3.1534842625