13

 N    0.6972462359    0.6635068560    0.4844747664
 C   -0.3187842382    0.3340073040   -0.3485707413
 O   -0.5569325281    0.8664308386   -1.4144943908
 C   -1.1780789676   -0.8118704698    0.1410891145
 O   -0.8095439873   -1.4753720034    1.3480673006
 C   -2.0248628210   -0.7046342225    1.3568210912
 C   -2.0720218989    0.4682719048    2.1851520196
 C   -2.1574080102    1.4342143064    2.8947235053
 H    1.2741875971    1.4567696324    0.2612834403
 H    0.8064901965    0.1854004184    1.3629045048
 H   -1.5381031640   -1.4502302881   -0.6635375762
 H   -2.9260911218   -1.3162689232    1.3758313091
 H   -2.2265079125    2.2943834164    3.5144812865