21

 C    0.4712011355    1.6265627929   -0.6122701505
 C    0.0342697356    0.2576262148   -0.0624185127
 C    0.2111239372   -0.8356423494   -1.0937882096
 C    1.2248064509   -1.6481816316   -0.8017367018
 C    1.8882518704   -1.2644030878    0.4969308528
 C    0.8865456794   -0.2709318263    1.1259492557
 C    1.4014062781    0.6894264878    2.2244519763
 C    0.5198968981   -0.1352948335    3.1778259497
 O    0.0328940782   -0.9509588324    2.0965993108
 H    1.5319397629    1.6249806242   -0.8851789654
 H   -0.0988452258    1.8742764846   -1.5135372466
 H    0.3044143174    2.4293895233    0.1126027292
 H   -1.0049669776    0.3296833342    0.2798310454
 H   -0.4060291672   -0.8940182212   -1.9841258727
 H    1.5620178468   -2.4789596454   -1.4114444102
 H    2.0529170099   -2.1082620156    1.1755142111
 H    2.8669857165   -0.7941268515    0.3242028912
 H    2.4761398719    0.6479784214    2.4117996953
 H    1.1027578414    1.7320892246    2.1078074278
 H    1.0607007927   -0.7260556935    3.9283644682
 H   -0.2902240724    0.4090765206    3.6782921262