17

 O   -0.8537749025    1.1128694713   -0.9495599898
 C   -0.1858243549    0.1691322169   -0.1371822684
 C   -1.2120260432   -0.8954690995    0.3204720854
 C   -1.2418253935   -1.9947291441   -0.7737349479
 O   -2.4906259590   -2.1372897423   -1.4020346975
 C   -0.1676805695   -1.5333767788   -1.7510057973
 O   -0.1690364622   -1.7204475526   -2.9440526404
 C    0.8047707311   -0.6168502772   -1.0274354620
 O    1.5208878307    0.1995427439   -1.9165316831
 H   -0.1761346809    1.4832936466   -1.5327719533
 H    0.3136509621    0.6553868145    0.7114438586
 H   -0.9285847730   -1.3133456569    1.2895066193
 H   -2.1975557447   -0.4370496514    0.4166531127
 H   -0.9139591392   -2.9588044825   -0.3472118324
 H   -2.3146644900   -2.2663192465   -2.3442004212
 H    1.4826735116   -1.2164964214   -0.3980587925
 H    1.3627054073   -0.1676438300   -2.8004454301