18

 C    0.1731989377    1.4691657070   -0.1839117755
 C   -0.1361106008   -0.0056231437    0.0959200788
 C    0.6665757778   -0.5696044382    1.2625991671
 C    0.5320423853    0.1511471712    2.5059217934
 N    0.4216705453    0.7375247634    3.4977638718
 C    0.9158891770   -2.0686271482    1.5069312453
 C    1.1589347836   -2.7713959335    0.1775741688
 O    2.1757590219   -1.7935132976   -0.1883169617
 C    2.0539221365   -1.1800997874    1.0870821951
 H    1.2288343375    1.6054897440   -0.4388765172
 H   -0.4256856954    1.8317643909   -1.0240990020
 H   -0.0485336380    2.0963057697    0.6846744895
 H   -1.2042110755   -0.1356629216    0.3042309795
 H    0.0964072236   -0.5960681868   -0.7932394807
 H    0.6914305380   -2.5368871064    2.4547808370
 H    1.6147865561   -3.7588298135    0.3012675705
 H    0.3414580487   -2.8246389066   -0.5480800268
 H    2.9479426307   -0.8200108725    1.5816256272