17

 C   -0.6430194614    1.4089871083   -0.8894294932
 C   -0.2531941554   -0.0377484470   -0.5367685589
 C    0.8651386259   -0.5444067256   -1.3185446352
 C    1.7988303823   -0.9476225171   -1.9699772633
 C    2.9151196173   -1.4725809080   -2.7231082682
 O    3.3955743307   -2.5686529998   -2.5187790028
 C    3.4700673338   -0.5903647884   -3.8084184404
 C    2.5686168796    0.1411574993   -4.7223101370
 O    3.2707656747    0.8176805385   -3.6923356677
 H    0.1971814349    2.0883732621   -0.7258935036
 H   -0.9417401940    1.4869097430   -1.9380291724
 H   -1.4803706875    1.7359823061   -0.2667284463
 H    0.0049635868   -0.1084353382    0.5277430711
 H   -1.1131537869   -0.7051013786   -0.6789559389
 H    4.4462922308   -0.9098727983   -4.1678843730
 H    2.9072806912    0.3363858847   -5.7385095236
 H    1.4921593571    0.0654444289   -4.5813190267