18

 O   -0.1289392531    1.3836947178    0.0213479307
 C    0.0442563609   -0.0165784529    0.0209703979
 C    0.5965698438   -0.5978154552    1.3550583999
 C   -0.6686386914   -1.3406287431    1.7610476659
 O   -1.7647293890   -0.3450158248    1.4139462173
 C   -1.3374273856   -0.7205150326    0.0210332870
 C   -1.7460190555   -1.3131690443   -1.3556272504
 N   -0.7820156199   -2.4474664623   -0.9416540004
 C   -1.1699499603   -2.1062712255    0.4739615774
 H   -0.7587512586    1.5638274373    0.7323647438
 H    0.6541844033   -0.2629972703   -0.8472709312
 H    1.4506172061   -1.2672139833    1.2220702613
 H    0.8669219737    0.1960335558    2.0545217681
 H   -0.7904931591   -1.7383078029    2.7687704900
 H   -2.7877608700   -1.6436769249   -1.4199340120
 H   -1.4473997391   -0.7716919244   -2.2565168392
 H   -1.0978124853   -3.3690149858   -1.2350321741
 H   -2.1404720409   -2.5442900587    0.7342530180