20

 C    0.3783431641    1.3392688540    0.2187231507
 C   -0.0690134747   -0.0916671587   -0.0370680608
 C   -1.5716855835   -0.2672083526    0.1396525910
 C    0.5266548116   -0.7860766315   -1.2925378038
 C    1.1406185651   -1.7780970161   -0.2875102442
 C    2.6687138200   -1.9066635477   -0.2912760819
 C    3.1675079339   -2.7265697333    0.8107583408
 N    3.5554442355   -3.3864675899    1.6760321617
 O    0.6562967166   -1.0222730432    0.8325105719
 H    1.4614223523    1.4382245008    0.1045497510
 H   -0.1087445185    2.0275882726   -0.4804737355
 H    0.1150618449    1.6425800945    1.2370144285
 H   -2.1219031067    0.3659038909   -0.5648726952
 H   -1.8655840869   -1.3072274615   -0.0282211864
 H   -1.8682136039    0.0105988290    1.1557943320
 H   -0.1944027133   -1.2027882867   -1.9971620735
 H    1.2564858400   -0.1826384294   -1.8377964667
 H    0.6958319072   -2.7813838684   -0.3125167340
 H    2.9914369158   -2.3566457465   -1.2381869939
 H    3.1196070505   -0.9106124362   -0.2276837818