21

 C    0.1236710347    1.3822364089   -0.1346436595
 O    0.0171516408   -0.0080529735    0.0568278313
 C   -1.3175499518   -0.5057571149    0.0679390438
 C   -1.8353501325   -0.7439563966   -1.3674807681
 C   -3.3326633006   -0.8490994620   -1.4505418782
 C   -4.0968716264   -1.6330614341   -0.6781282203
 C   -3.6570767133   -2.5661869079    0.3559777087
 C   -2.4791752029   -2.6486920381    0.9936111838
 C   -1.2583551438   -1.7796175263    0.9091846440
 H    1.1868603112    1.6327629829   -0.0937034190
 H   -0.2711841057    1.7106185461   -1.1080798438
 H   -0.4031150093    1.9428806962    0.6535348084
 H   -1.9754654999    0.2284733446    0.5573114467
 H   -1.4919302345    0.0760181933   -2.0050706285
 H   -1.3623909100   -1.6557740874   -1.7577517066
 H   -3.8261502225   -0.2245129814   -2.1905647997
 H   -5.1701197798   -1.6219739343   -0.8555320267
 H   -4.4056933670   -3.3051788759    0.6356283348
 H   -2.3716902108   -3.4628835454    1.7084647862
 H   -0.4159279493   -2.3814108476    0.5372442682
 H   -0.9633284568   -1.4921762566    1.9273719746