16

 O    0.0927875765    0.5556175363    0.9839556808
 C    0.1038423331    1.3870218015    0.1010707194
 N    1.1742252924    1.6850386562   -0.6832229334
 C    2.4875511272    1.0788869449   -0.4795909778
 C    3.5285526194    2.0634827295   -0.0725675587
 C    4.2190456473    2.2850727978    1.0775441516
 C    5.0773693153    3.4063554688    0.8288964690
 C    4.8399053913    3.7828425772   -0.4530722377
 O    3.9020636863    2.9761891100   -1.0204522357
 H   -0.7829902903    1.9930113002   -0.1703188961
 H    1.0947648278    2.4405576932   -1.3451162617
 H    2.3600628873    0.3334095707    0.3067557039
 H    2.7950769979    0.5612588848   -1.3967319580
 H    4.1255144116    1.7205004050    1.9920198230
 H    5.7734659218    3.8637745699    1.5141135014
 H    5.2332062352    4.5601056241   -1.0871830500