15

 N    0.0329696075    1.3151919897    0.0662443697
 C   -0.0420666189   -0.0376644116    0.0249923833
 N   -1.1131826113   -0.7497346078    0.0309116785
 C   -0.7613320267   -2.1787940293    0.0129713782
 C    0.7581314437   -2.2615982442    0.0520025952
 C    1.5800940597   -3.3044330034    0.6905315964
 O    1.4732199268   -3.2239905789   -0.7240370052
 C    1.2318579178   -0.8326192628   -0.0033498992
 O    2.3577869336   -0.4036278621   -0.0639937210
 H    0.9269967893    1.7227078420   -0.1572084966
 H   -0.7940729317    1.8529519666   -0.1341733040
 H   -1.2376463384   -2.6825306524    0.8617242307
 H   -1.1482804221   -2.6489668689   -0.8986062332
 H    2.5509264588   -3.0304218783    1.1006404997
 H    1.0777793620   -4.1507144185    1.1573586774