17

 O    0.0632110830   -0.0306815226    0.5580912890
 C    0.2310540643    0.8313269049   -0.2647199786
 C    1.0806466647    2.0728867779   -0.0369027367
 N    0.8724988989    3.0230425468   -1.1077440094
 C    1.0016979730    4.2557155879   -0.8681931288
 N    0.7603086682    5.2764119675   -1.7735350062
 C    1.3915669942    6.4990690902   -1.3038233830
 C    1.3430260037    6.2394665207    0.2087910034
 O    1.3897255865    4.8090801571    0.3215583854
 H   -0.2222333632    0.7807011741   -1.2802439187
 H    0.8680416463    2.4621026198    0.9678470115
 H    2.1281947723    1.7291979352   -0.0147766189
 H    0.8108272098    5.0168209672   -2.7460578780
 H    2.4264715145    6.6123441150   -1.6589453427
 H    0.8247743677    7.3889888464   -1.5894347550
 H    2.1890894004    6.6579587008    0.7560981622
 H    0.4075617057    6.6027932010    0.6489992346