20

 C    0.0168554675    1.5390248861   -0.2438536261
 C    0.0245874688    0.0420847482   -0.0190387071
 C    1.3123258366   -0.7467153875   -0.0379051888
 C    0.5333817735   -0.6025980546    1.2516722638
 C    1.0921571635    0.1855435607    2.4169256504
 C    2.0556933440   -0.6647649096    3.2751389690
 C    2.6064934475    0.0667974706    4.4090105100
 C    3.0459587256    0.6959374563    5.3344746869
 H    0.9122448524    2.0206698783    0.1588992595
 H   -0.0200405157    1.7668046000   -1.3149043424
 H   -0.8536588392    2.0110876454    0.2255831554
 H   -0.8304467898   -0.4630854466   -0.4620596652
 H    1.3382668531   -1.7094141941   -0.5368411301
 H    2.2356772916   -0.1801863449   -0.1237654404
 H   -0.0167578610   -1.4896893283    1.5603202687
 H    1.6297443606    1.0716536542    2.0658363181
 H    0.2790192179    0.5500345723    3.0560878365
 H    1.5290113786   -1.5576751501    3.6371980795
 H    2.8719115833   -1.0327651518    2.6406774245
 H    3.4407428411    1.2397657354    6.1562682980