22

 C   -0.3425215810    1.4146257420    0.0005395165
 C    0.0351541458   -0.0575594875   -0.0337989862
 C    1.2839233389   -0.5021342172   -0.8475170492
 C    1.6141861203   -1.5192520867    0.2785861647
 C    3.0750657788   -1.7178810547    0.6606592339
 N    3.2443463741   -2.5825637476    1.8196750815
 C    3.8390834143   -3.8040091196    1.7622038203
 O    4.3270427441   -4.3044460826    0.7708817483
 C    0.6858385295   -0.7022946979    1.2234710943
 H    0.5106547976    2.0322821881    0.3041014164
 H   -0.6723517657    1.7642319881   -0.9842699282
 H   -1.1575998318    1.6009283710    0.7090051935
 H   -0.8304435158   -0.6554967286   -0.3410082788
 H    1.1333772518   -0.8883893483   -1.8584213323
 H    2.0318342005    0.2989197551   -0.8895903456
 H    1.1662689486   -2.4940405835    0.0587552594
 H    3.6284010300   -2.1923125942   -0.1537875998
 H    3.5418242094   -0.7434751152    0.8601625141
 H    2.8524889467   -2.2904854110    2.7009906817
 H    3.8349669053   -4.3057857573    2.7509098064
 H    1.2556817596    0.0430048675    1.7928785675
 H    0.0379848689   -1.2482103196    1.9145905218