21

 C    0.0463141249    1.5319397514    0.1494823688
 C   -0.0606009269    0.0131948034    0.0434391511
 C   -1.4752938510   -0.4941438389   -0.1816443599
 O   -2.3994164253    0.2741441650   -0.3876068207
 C   -1.6772364591   -1.9901860286   -0.1111167203
 C   -2.2318490787   -2.4201435476    1.2966604744
 C   -3.6640985214   -2.4436223874    0.7058677239
 C   -3.0380241118   -2.4899280798   -0.7156862058
 O   -3.6262030506   -1.7909422336   -1.7669965593
 H    1.0880886984    1.8374660127    0.2794070557
 H   -0.3481869531    2.0124854673   -0.7488686887
 H   -0.5313084526    1.9072599384    0.9985383465
 H    0.5482043192   -0.3693912613   -0.7888266012
 H    0.3415631986   -0.4860752854    0.9355941975
 H   -0.7689890540   -2.5063409565   -0.4341447067
 H   -1.8654195710   -3.4121100869    1.5701120336
 H   -2.0454646078   -1.7388481304    2.1299366918
 H   -4.3261466570   -3.2614953660    0.9982858522
 H   -4.1767344326   -1.4918583938    0.8649050474
 H   -2.9218322746   -3.5253422460   -1.0516823947
 H   -3.6129095233   -0.8585192061   -1.5044620458