20

 N    0.0052804506    1.3187877637   -0.2767377609
 C    0.0624729180    0.0190363906    0.1392497121
 O    1.0901669340   -0.4854496983    0.5458591504
 C   -1.2837991597   -0.7253054856    0.0882039812
 C   -1.0661018682   -2.2312765550   -0.1203187260
 C   -2.3275016718   -3.0339890227    0.2140461175
 C   -2.7376804599   -2.8292289673    1.6788507809
 C   -2.6771789629   -1.3782884090    2.0763449173
 C   -2.0518571831   -0.4415770075    1.3655745556
 H    0.8473593750    1.8696807422   -0.2434822146
 H   -0.8264142448    1.7260959324   -0.6653255672
 H   -1.8572961605   -0.3139284250   -0.7576124373
 H   -0.7493566132   -2.4196267795   -1.1516950374
 H   -0.2364420414   -2.5390679496    0.5239190823
 H   -3.1509250683   -2.7141537211   -0.4382302782
 H   -2.1626747080   -4.0975249551    0.0117927613
 H   -3.7490077059   -3.2183998533    1.8515052243
 H   -2.0822690255   -3.4140849258    2.3413631598
 H   -3.1822006694   -1.0958677999    2.9974738576
 H   -2.0614936952    0.5917815357    1.7047247811