18

 C   -0.0020041507    1.6390634344    0.2547176845
 C   -0.0025086979    0.0992763438    0.1113675661
 C   -1.4576543309   -0.3499975789    0.1933900268
 O   -2.1098904479   -0.7928526414   -0.7137890453
 C    0.6845041880   -0.3862669018   -1.1534322443
 C    1.6844019519   -1.2323275486   -0.9023629996
 C    1.8579925743   -1.4250656233    0.5674769806
 N    2.2296426976   -0.1576830193    1.2671646992
 C    0.8189674844   -0.5871567565    1.2181911471
 H    1.0284243713    1.9842307289    0.3587920855
 H   -0.4556867113    2.1130336214   -0.6207178157
 H   -0.5653678209    1.9535735590    1.1406400025
 H   -1.9077483846   -0.2001918445    1.2058273291
 H    0.3769336373   -0.0388390151   -2.1320401700
 H    2.3194643062   -1.7004075789   -1.6444946384
 H    2.2019527948   -2.3664261287    0.9819865094
 H    2.6008169522   -0.3881528120    2.1879281483
 H    0.3266178562   -0.8807841984    2.1405310141