18

 O    0.3497085842    1.4377098929    0.2211406736
 C    0.1428190369    0.0638753802    0.0698864843
 C    0.3187902292   -0.7964006228    1.3297273993
 O   -0.6677112151   -0.3019308203    2.2534919358
 C   -1.0746408443   -1.2634800015    1.2648489704
 C   -1.3562087279   -0.4835427270   -0.0278782431
 C   -2.4880639348    0.5036930011   -0.0205630193
 C   -3.0483083883    1.0128228609   -1.2949209331
 N   -3.8398456024    0.0963118389   -0.4547856293
 H   -0.0340061119    1.6774769692    1.0743401585
 H    0.7464772778   -0.2657936713   -0.7787174367
 H    1.2078189791   -1.2482528198    1.7538639791
 H   -1.5177811573   -2.1821422366    1.6306797684
 H   -1.4438029025   -1.1579090622   -0.8880196373
 H   -2.5069604419    1.1617408566    0.8438927503
 H   -3.4312838688    2.0272541924   -1.3553267474
 H   -2.6230183460    0.6362364993   -2.2222665826
 H   -3.8049705860   -0.8414550201   -0.8494668210