19

 C   -0.2037178313    1.5874643948    0.1271193487
 C    0.0643268151    0.0962087796    0.0159875273
 C   -1.2281522047   -0.7495360306   -0.0944260559
 O   -1.4802569248   -1.2374924367    1.2140090962
 C   -0.2182729799   -1.6034692122    1.7562530350
 C    0.7823392975   -0.5438151081    1.2493289674
 O    1.9964810790   -1.0676773384    0.7309057851
 C    1.8050978083   -1.1944099609   -0.6619010951
 O    0.9781627696   -0.1283880752   -1.0578544514
 H    0.7217844754    2.1313837633    0.3350410769
 H   -0.6259302152    1.9690600840   -0.8074434429
 H   -0.9181696923    1.7814917976    0.9331495335
 H   -2.1005590953   -0.1739813946   -0.4121506969
 H   -1.0702041460   -1.5723998679   -0.8095178352
 H   -0.3170905415   -1.6316280192    2.8436272535
 H    0.1006215429   -2.5984780673    1.4071187851
 H    1.0400963170    0.1855627699    2.0201134887
 H    2.7709491665   -1.1115146029   -1.1679338085
 H    1.3371489597   -2.1660081052   -0.9026845015