17

 O   -0.0449979678    1.4725028498    0.0082110999
 C   -0.0760184051    0.0646783841    0.0389119184
 C   -1.4813528007   -0.5257158844   -0.0730012460
 C   -1.3869677082   -2.0335433769    0.0960929086
 O   -0.5085650743   -2.6605345455   -0.8641035115
 C    0.5284526146   -2.0089798487   -1.4124289324
 O    1.2166981606   -2.5570963081   -2.2356333780
 C    0.7960964374   -0.5308822901   -1.0723628042
 O    0.5120317802    0.2153858646   -2.2539989256
 H   -0.0399749303    1.7241613300   -0.9243761259
 H    0.3498935809   -0.2341578902    1.0060108822
 H   -2.1297292538   -0.1115265560    0.7043759398
 H   -1.9144834621   -0.2754474422   -1.0478268506
 H   -1.0224923295   -2.2902503145    1.0988269118
 H   -2.3515755967   -2.5245028599   -0.0475731851
 H    1.8604784314   -0.4477566627   -0.8158709542
 H    0.9911350934   -0.2078012092   -2.9766688372