16

 C   -0.1894236584    1.4249598023    0.0809001134
 O   -0.0453514933    0.0096781095    0.0017457526
 C   -1.1664495527   -0.7207558592   -0.0080080074
 C   -1.3371178405   -2.0678249613   -0.0541220790
 C   -2.7618396931   -2.2631047620   -0.0445293156
 C   -3.3452469845   -1.0397407661    0.0065524911
 C   -4.7471117305   -0.5532107207    0.0418681465
 O   -2.3552785490   -0.0715196401    0.0293788815
 H    0.8249446802    1.8250749718    0.0812487334
 H   -0.7428918913    1.8171762695   -0.7786861947
 H   -0.7057688006    1.7214080256    1.0000068343
 H   -0.5583059908   -2.8104445112   -0.0896360888
 H   -3.2833180369   -3.2078144200   -0.0721360613
 H   -4.9587743814    0.0256943757    0.9492069189
 H   -4.9813413427    0.0889834919   -0.8159756578
 H   -5.4282590047   -1.4072405757    0.0199854029