16

 C   -0.0384259819    1.5193906201   -0.0018714007
 C   -0.0102681973    0.0149473947   -0.0144687101
 C   -0.0240800241   -0.7106097831   -1.2034060614
 C    0.0030809206   -2.0996717398   -1.1715699053
 C    0.0438294986   -2.7299094009    0.0691499135
 N    0.0581628698   -2.0720455141    1.2257792477
 C    0.0317328297   -0.7289945886    1.1846208682
 C    0.0479579879   -0.0465907591    2.4429640341
 C    0.0606112240    0.5582546317    3.4838701925
 H    0.8449135278    1.9282717367    0.4999293463
 H   -0.0726310642    1.9189672731   -1.0185435545
 H   -0.9089125447    1.8951027349    0.5461055395
 H   -0.0561842264   -0.1821841197   -2.1515708076
 H   -0.0070523494   -2.6831533456   -2.0853729730
 H    0.0660158297   -3.8149285954    0.1373831366
 H    0.0723264499    1.0738648451    4.4122700542