14

 C    0.0597751943    1.4723211074   -0.0514466412
 C   -0.1054241920   -0.0033243715    0.0519078372
 C   -1.2141440878   -0.7140325433   -0.1740633294
 C   -1.1996809889   -2.1502950965   -0.0269990974
 N   -2.1874946663   -2.9116811448   -0.2155978118
 O    0.0408203071   -2.6904472168    0.3590179478
 C    1.1589966299   -1.9662330894    0.5864839597
 O    2.1833630453   -2.4707340441    0.9111717185
 O    1.0684799113   -0.6117172669    0.4270778284
 H    0.8361101114    1.7161001213   -0.7844837832
 H   -0.8766143210    1.9451521651   -0.3499488034
 H    0.3817015900    1.8858174313    0.9102126114
 H   -2.1402232953   -0.2440527069   -0.4689690459
 H   -1.9371800882   -3.8872533646   -0.0513008807