20

 C    0.2032895853    1.4833356437    0.2249598043
 C   -0.1610256191    0.0199353614   -0.0179845664
 O   -1.5719597026   -0.1865961891   -0.0240008732
 C    0.4686730603   -0.5211729748   -1.2872542276
 N    1.8375531939   -1.0702443636   -1.1525289054
 C    0.7280143926   -1.9597974626   -1.4677423898
 C    0.2932525775   -3.1680346210   -0.6452820874
 O    0.0760491938   -3.9267625353   -1.8607727726
 C    0.5296350912   -2.8432562797   -2.6960568328
 H    1.2883731545    1.6016652909    0.3010936320
 H   -0.1478642995    2.1145648105   -0.6019139682
 H   -0.2575016160    1.8433193166    1.1485830172
 H    0.2079556597   -0.5849322313    0.8172686492
 H   -1.9516659578    0.3786988624   -0.7056781764
 H    0.2430722318    0.0513272495   -2.1898983249
 H    2.3911746582   -0.8776485547   -1.9844654452
 H    1.0780158596   -3.6065248721   -0.0169090473
 H   -0.6291872981   -3.0473261092   -0.0664543106
 H   -0.2364216044   -2.5213403694   -3.4136418603
 H    1.4495421089   -3.0981862823   -3.2422893345