14

 C    0.5619292792    1.3253908262   -0.2952168184
 C   -0.0032086189   -0.0412218311    0.0318950753
 O    0.1968125255   -0.9872093067   -1.0181548661
 C    1.2768298051   -1.8168965065   -0.6670854477
 C    2.5199821274   -1.4717824082   -1.3785299847
 N    3.4857301426   -1.1868356636   -1.9442310738
 C    1.4351233025   -1.6199837158    0.8593172423
 O    2.1083562491   -2.2424907791    1.6164995323
 O    0.6312160232   -0.5887473324    1.1940318328
 H    1.6357984945    1.2625957658   -0.4911525750
 H    0.0628238232    1.7196599160   -1.1838974916
 H    0.3912267638    2.0089575687    0.5405028897
 H   -1.0777362804   -0.0052756872    0.2336584509
 H    1.0249463434   -2.8615233161   -0.8756160558