19

 C    0.1777478951    1.4046577630    0.1035870767
 C    0.3265673208   -0.0926040275   -0.0951286124
 O    1.2353846327   -0.7142919167    0.4094559083
 C   -0.7391363144   -0.7640352693   -0.9527729563
 C   -0.7093754093   -2.3001307475   -0.9619767530
 O   -1.9376604684   -2.8128867237   -1.4544419895
 C    0.5047278440   -2.8509233612   -1.7376014268
 C    0.5603668230   -4.3062393401   -1.7674182147
 C    0.6121320665   -5.5065218405   -1.7874227059
 H    1.0423535284    1.7952740916    0.6412900356
 H    0.0715402986    1.9173274644   -0.8586391108
 H   -0.7328618334    1.6147423737    0.6765513365
 H   -1.7270543476   -0.4403408608   -0.6031117838
 H   -0.6494845348   -0.3682074204   -1.9762430369
 H   -0.6444747971   -2.6547274709    0.0709955910
 H   -1.9470464361   -2.7098456318   -2.4123533899
 H    0.4749023972   -2.4603325086   -2.7667583908
 H    1.4112166194   -2.4481131704   -1.2741495249
 H    0.6563256954   -6.5670833732   -1.8018646023