18

 C    0.0936215724    1.1793756781   -1.1090623712
 C   -0.0694470214    0.0605539264   -0.1050888636
 C    1.0915273291   -0.7467070962    0.3032855038
 O    0.5935717201    0.2920251984    1.1584219848
 C   -1.4622809626   -0.4933451753    0.0121100471
 C   -1.8939387812   -1.2572391482    1.2531472236
 C   -2.4124201522    0.1334451002    1.0114620941
 O   -2.0254426548    1.2123254513    1.8044734719
 H    1.1230132651    1.5456261589   -1.1220576038
 H   -0.1691131237    0.8360864872   -2.1152629273
 H   -0.5707771055    2.0091386322   -0.8487780342
 H    0.9371225044   -1.7606213491    0.6672718547
 H    2.0706201352   -0.5471338451   -0.1289106239
 H   -1.8846559795   -0.8084061097   -0.9385811540
 H   -2.5598324101   -2.1053193640    1.1357288684
 H   -1.1557069660   -1.3642769416    2.0419272730
 H   -3.4509213780    0.2478019802    0.7182566869
 H   -1.1045495312    1.0739508460    2.0600270698