18

 C   -0.0586029476    1.4566024698    0.1019509077
 C   -0.0233071982   -0.0363731975   -0.0318618954
 C    0.6772070610   -0.9241648298   -1.0960916423
 C    0.1107167860   -1.8843754592   -0.0324332110
 N    0.5230075698   -0.9371459038    1.0888954267
 C    0.2352006402   -3.3622201042    0.0802574728
 O    0.4894226032   -4.0871353533   -0.8502310604
 C   -1.2270439794   -1.0313687881   -0.0695998192
 O   -2.0887667617   -1.0760928239    1.0071530816
 H    0.9469940970    1.8691588934    0.2359039937
 H   -0.4935972794    1.9096043295   -0.7946483955
 H   -0.6682171472    1.7470141672    0.9632098985
 H    0.2499541552   -0.9602595924   -2.1024240998
 H    1.7676480688   -0.8562400475   -1.1219970269
 H    1.5447945828   -0.8683615213    1.1188218726
 H    0.0491923690   -3.7621540115    1.1020204279
 H   -1.8015623877   -1.0896521622   -0.9948217889
 H   -1.5174094718   -1.0091684450    1.7887153679