20

 C   -0.4357738056    1.5086182063   -0.1915842657
 C    0.0225962356    0.0614902036    0.0225448775
 C    0.6897966621   -0.5371387193   -1.2281267684
 C    2.0010862230    0.0829674989   -1.3882264495
 C    3.0780794862    0.6163259420   -1.4450868158
 C    0.5670602400   -2.0621510800   -1.5665279042
 C   -0.9029434063   -1.7563730923   -1.9143549538
 N   -0.1725787634   -0.5567559472   -2.5498378718
 C    0.8274705160   -1.6332105571   -3.0251708292
 H    0.4080667211    2.1492545931   -0.4626463102
 H   -1.1716060466    1.5669169912   -0.9983714224
 H   -0.8881037574    1.9087000258    0.7206159793
 H    0.7580806119    0.0187494600    0.8334598340
 H   -0.8218840518   -0.5507807445    0.3469428582
 H    4.0297601394    1.0829688349   -1.5136571107
 H    0.9903434029   -2.9029114776   -1.0055264964
 H   -1.3776563119   -2.3965978742   -2.6612195746
 H   -1.6122087490   -1.4990533701   -1.1297381287
 H    1.8087609189   -1.2410142921   -3.2896812560
 H    0.4180701950   -2.2655262013   -3.8159821818