19

 C   -0.1897736061    1.3872582372   -0.1215324771
 C    1.2450246568    1.0115642198    0.1456884796
 C    0.1783533126   -0.0581177803    0.1092649457
 C   -0.2509352496   -0.7355991910    1.3557216526
 N   -0.3123926693   -0.0690855052    2.7045482806
 C   -0.7803769206   -1.4687603650    2.9720741828
 C   -1.5686936155   -1.5332163551    1.6303086443
 N   -0.9625744608   -2.8175480775    1.1475190267
 C    0.1448672132   -2.1540809454    1.9098865153
 H   -0.7286001371    1.8887896403    0.6743778765
 H   -0.4695251181    1.6884022686   -1.1247563096
 H    1.9552517214    1.0477068494   -0.6728166858
 H    1.6621946713    1.2852608536    1.1089872203
 H    0.1713161156   -0.7151514999   -0.7550900545
 H    0.6346012536    0.0530289126    3.0747277149
 H   -1.0790787092   -1.8220793456    3.9608724631
 H   -2.5943659360   -1.2268932761    1.4251189905
 H   -1.3366965374   -3.6043759413    1.6848916297
 H    1.1399037653   -2.5878234491    2.0333639242