16

 C   -0.6117857691    1.4256818408    0.0318756391
 C   -0.0489855740    0.0396632447   -0.0174505949
 N    0.1694064198   -0.5399790057   -1.1415260235
 C    0.5279652622   -1.8522766601   -1.2979161095
 C    0.1665431855   -2.9040680861   -0.5129268399
 C   -0.5232862480   -2.7708133939    0.7421208515
 N   -0.5147721763   -1.7601856411    1.5465317530
 C    0.2616910829   -0.6327226317    1.2906957165
 N    1.1036130754   -0.1048024139    2.0840731928
 H    0.0692593640    2.0730978673    0.5933823687
 H   -0.7632975350    1.8134477331   -0.9759017415
 H   -1.5649794311    1.4262920669    0.5736368961
 H    1.0401448974   -2.0517951572   -2.2364604705
 H    0.3181904815   -3.9084507420   -0.8965862148
 H   -1.1222243879   -3.6252577250    1.0652302218
 H    1.1961469327   -0.6821334661    2.9247838249