19

 O    0.0019259217   -0.0417691206    0.0123853706
 C   -0.0064340315    1.1643818380    0.0079265037
 C   -1.2756589793    2.0180267303    0.0241735142
 C   -0.8595789855    3.4959574749    0.0580884215
 C   -0.0282428117    3.7893500559    1.3159646815
 C    1.2346710903    2.8811851120    1.2967002823
 C    1.2350490930    2.0453040202   -0.0066307088
 C    1.1113810701    3.0153495796   -1.1964710611
 O   -0.0877311885    3.7915684508   -1.1087945232
 H   -1.8583637988    1.8001302621   -0.8775274760
 H   -1.8942012961    1.7401675215    0.8850327164
 H   -1.7308534762    4.1527154975   -0.0006447956
 H    0.2486077931    4.8468811231    1.3153469708
 H   -0.6333937515    3.6136535355    2.2113439714
 H    2.1481514358    3.4833145479    1.3264196065
 H    1.2647290969    2.2183101764    2.1662433337
 H    2.1302727880    1.4271044259   -0.0982225141
 H    1.9759744086    3.6944973657   -1.2058563047
 H    1.1059772017    2.4704689133   -2.1495865789