16

 C   -0.3214144040    1.3841419150   -0.4005983471
 O   -0.3784562126   -0.0297410127   -0.6445191830
 C    0.7981758397   -0.6233845988   -0.8506864502
 O    1.8654170487   -0.0537360676   -0.8401668733
 C    0.6662421061   -2.1028280540   -1.1109202871
 C    1.5191609865   -2.5854888947   -2.2614333441
 N    1.9158670930   -2.8736671845   -0.8967791941
 C   -0.5734799513   -2.7585598364   -0.7972924256
 C   -1.6060408311   -3.3220018327   -0.5545252150
 H    0.2814317078    1.5946783001    0.4857785451
 H    0.1148721611    1.9026958187   -1.2576427933
 H   -1.3536607389    1.6965637095   -0.2470014442
 H    1.1527200157   -3.4335119027   -2.8309891301
 H    2.0591404156   -1.8255623492   -2.8186398749
 H    2.6253425075   -2.1968703688   -0.6131270490
 H   -2.5183300938   -3.8166445611   -0.3293923141