17

 C    0.0210790494    1.5209794392    0.0430470118
 C   -0.0764247086    0.0308089328   -0.0106147825
 C   -0.0443654681   -0.7820221907   -1.0825765065
 C   -0.0811173290   -2.1965822800   -0.6531064973
 C    0.8763314568   -2.5772795563    0.5771800340
 O    1.3546798750   -1.4266120300    1.2227845937
 C   -0.0231862388   -0.8506641281    1.2098405408
 C   -0.5652656931   -2.2626290263    0.7621205412
 O   -1.6848668261   -2.9460343936    1.1647072948
 H    0.9438345353    1.8436518855    0.5415986231
 H    0.0122227987    1.9554510198   -0.9603954522
 H   -0.8120034464    1.9582854434    0.6081662189
 H    0.0858826270   -0.4658591364   -2.1110185586
 H   -0.3032963047   -3.0200640694   -1.3211498991
 H    1.4927998646   -3.4676844063    0.5733368986
 H   -0.2713457952   -0.4318759483    2.1856902012
 H   -1.5519347967   -3.2444780754    2.0720979682