19

 C   -0.0714172718    1.5076394508   -0.0672636357
 C   -0.0006356197   -0.0014919470    0.0907730797
 O   -1.3187363956   -0.5166996508   -0.0046797409
 C   -1.4216162813   -1.9265440348    0.0117308199
 C   -1.4029496723   -2.4924466052    1.4335449269
 C   -2.7471161566   -2.2603855670   -0.6980023831
 C   -2.7460737813   -1.8501306917   -2.1001626891
 N   -2.7362843696   -1.5434705664   -3.2139172253
 H    0.9303691229    1.9429911885   -0.0062197119
 H   -0.5087126431    1.7687631383   -1.0346244600
 H   -0.6897654056    1.9478534192    0.7201030160
 H    0.6299345952   -0.4445518100   -0.6965720389
 H    0.4528508358   -0.2637307167    1.0594734734
 H   -0.5951613154   -2.3660802939   -0.5688472396
 H   -2.2362358297   -2.0873764093    2.0163354937
 H   -1.4805541039   -3.5843028619    1.4220231872
 H   -0.4716442561   -2.2308211400    1.9423932574
 H   -2.9444679397   -3.3359915157   -0.6428220079
 H   -3.5630997922   -1.7470737165   -0.1774003917