25

 C   -0.0384472648    1.6779311003    0.0902536406
 C   -0.1756780871    0.1519447936    0.0799876130
 C    0.7367239941   -0.5178347601    1.1153517315
 C    0.7350833955   -2.0651876645    1.1466889845
 C   -0.6851114485   -2.6551158900    1.1505519285
 C    1.5057893017   -2.6383094338   -0.0694318366
 O    2.9098862101   -2.4538337787    0.0195780177
 C    1.4669348619   -2.4787445287    2.4370313709
 O    1.8466438254   -3.8542981274    2.3416405188
 H    0.9872457451    1.9845980092   -0.1423987078
 H   -0.7013182173    2.1435870563   -0.6458164102
 H   -0.2903687254    2.0909532351    1.0736113276
 H   -1.2208765824   -0.1172283135    0.2724785055
 H    0.0557790870   -0.2218520476   -0.9248609095
 H    1.7715923341   -0.1942855718    0.9443098450
 H    0.4586015180   -0.1429163297    2.1116182781
 H   -1.1756890450   -2.5373860080    0.1791477943
 H   -0.6465301846   -3.7241265479    1.3804061546
 H   -1.3158823833   -2.1675695579    1.9023767442
 H    1.2600259693   -3.7019174356   -0.1835697413
 H    1.1834265753   -2.1305112428   -0.9841318951
 H    3.2071581053   -3.0875908258    0.6833832672
 H    2.3570874083   -1.8486980650    2.5710718477
 H    0.8057802486   -2.3158934503    3.3007742103
 H    2.2143048988   -4.1254245754    3.1876475105