23

 C   -1.3866602252    0.8044782745    0.4489612577
 C   -0.4275513506   -0.3602953994    0.2383707576
 C    0.6104237575   -0.1987046488   -0.8926128081
 O    1.7138358929   -0.2743729242    0.0319927562
 C    0.8318722819   -0.5148311293    1.1537903435
 C    1.0861108623    0.4163088147    2.3204570272
 C    0.2262310742    0.1311355364    3.5374169925
 C    2.5221208820    0.8272433724    2.5543255177
 C    1.5205028866    1.8353381327    2.0454156334
 H   -0.8558428471    1.7539757620    0.5549601255
 H   -2.0633418740    0.8916461468   -0.4087160278
 H   -2.0064916036    0.6638304804    1.3398265987
 H   -0.9940910497   -1.2923873572    0.1639739408
 H    0.6418643008   -1.0095133838   -1.6313522125
 H    0.5876913777    0.7627850330   -1.4221922989
 H    0.9496324650   -1.5506202839    1.5096715244
 H    0.3599455530   -0.9017870134    3.8814703635
 H    0.4942323373    0.7930896974    4.3664241016
 H   -0.8396260972    0.2765011877    3.3307973325
 H    2.8626318927    0.9062491414    3.5814554442
 H    3.2665527813    0.4769201626    1.8492298664
 H    1.6248791162    2.1411641897    1.0107362217
 H    1.1759438761    2.6132154081    2.7188464021