19

 C    0.0269153564    1.5654167340    0.0470295953
 C    0.0946166402    0.0369545548    0.0923119926
 C    0.5656479871   -0.5616005634   -1.2398576010
 N    0.6474465020   -2.0028193146   -1.2324806416
 C    1.5516929129   -2.9441632576   -0.5637206958
 C    0.7903490623   -4.0886776318   -1.2914842937
 C   -0.0615277272   -2.9600310351   -1.9193913994
 O   -0.9760640977   -2.8800554355   -2.6980600237
 H    1.0076323611    2.0005718896   -0.1752308263
 H   -0.6700124216    1.9082977587   -0.7254264423
 H   -0.3090283449    1.9748813633    1.0040121312
 H    0.7750869175   -0.2796594954    0.8928507082
 H   -0.8895664389   -0.3794205762    0.3361774462
 H   -0.1347933353   -0.3020554919   -2.0411116461
 H    1.5439045967   -0.1388846584   -1.5120813674
 H    2.6033889678   -2.8259321507   -0.8494676242
 H    1.4726721109   -2.9478281565    0.5285805779
 H    1.3770613746   -4.6624925714   -2.0108203485
 H    0.2327966160   -4.7700893717   -0.6465897615