14

 C    0.2142738839    1.5931818710    0.0833641200
 C    1.2431102946    0.5729999117   -0.2273599850
 N   -0.1419214932    0.1635847397    0.0640383516
 C   -0.3693184266   -0.4444706544    1.3077559388
 C   -1.2641958395   -1.4264753473    1.5761127575
 O   -1.1662334986   -1.7339391968    2.9072342336
 C   -0.2048575137   -0.9082521817    3.3713179223
 N    0.3085104038   -0.1217120082    2.4851898111
 H    0.2752891293    2.0744459185    1.0549032036
 H   -0.2371195713    2.1813199995   -0.7099696622
 H    1.5581348556    0.4011804886   -1.2521931086
 H    1.9882967203    0.3758917080    0.5375313774
 H   -1.9834831981   -1.9722305647    0.9929804159
 H    0.0363939336   -0.9854638739    4.4201375640