14

 C    0.3276585756    1.5502715841    0.1955505314
 O    1.1933318530    0.4845722268   -0.1851122281
 C   -0.1833155224    0.1763017178    0.0997118154
 C   -0.4683463972   -0.6507901663    1.2928190018
 N   -0.0946284845   -0.2671024987    2.5146395400
 N   -0.5003207028   -1.2637434366    3.3175011652
 C   -1.1271952997   -2.2660275309    2.6552588831
 C   -1.1274985117   -1.9026174580    1.3264803264
 H    0.5096431190    1.9677168095    1.1833463529
 H    0.0870429806    2.2671039274   -0.5892735049
 H   -0.7577489000   -0.0998248053   -0.7840646444
 H   -0.3226861839   -1.1940853718    4.3052725795
 H   -1.5109753606   -3.1333988075    3.1683175702
 H   -1.5355028256   -2.4576932507    0.4974065415