14

 O    0.5427123614    1.5859580505   -0.1448503474
 C    0.1601273312    0.2224959216    0.0048079513
 C    0.4347486062   -0.5685292274   -1.2014317833
 C    0.6847815407   -1.2058268321   -2.1889487324
 C    0.7940136368   -0.3950709825    1.2285942140
 C    1.2548111444    0.2521064783    2.3320861917
 O    1.7351258117   -0.6227596563    3.2259088403
 N    1.5955487991   -1.9112713007    2.7189611635
 C    1.0414151179   -1.7618944448    1.5421671243
 H    1.4742189770    1.5965025740   -0.3955034448
 H   -0.9279483622    0.2663257925    0.1454725858
 H    0.8947030468   -1.7648832912   -3.0677841508
 H    1.3053594126    1.2941959122    2.6034061657
 H    0.8370173465   -2.6336037542    0.9372101321