25

 C   -2.5886006535   -1.0644414387    0.0672316829
 C   -1.0686934578   -1.2352778224    0.0130107053
 C   -0.5966738111   -1.8440390995   -1.3010624372
 O    0.8190972586   -1.9376582513   -1.2626793630
 C    1.4034613942   -2.6333981166   -2.3332335940
 C    1.3893554821   -1.9058860474   -3.6661690379
 C    2.0782576411   -0.5385109084   -3.6017301085
 C    2.6105437695   -3.4298340995   -1.9380174385
 C    1.3165853778   -4.1399041436   -2.2902773617
 H   -2.9457572567   -0.4061972368   -0.7326057504
 H   -3.1037830616   -2.0254199033   -0.0414884480
 H   -2.9015062503   -0.6273194603    1.0198474998
 H   -0.5725934607   -0.2667799310    0.1450242793
 H   -0.7267744974   -1.8740249291    0.8355286327
 H   -1.0398762484   -2.8420439195   -1.4454972440
 H   -0.9265600725   -1.2173312073   -2.1447495366
 H    1.8806323775   -2.5417113589   -4.4117075529
 H    0.3541771452   -1.7849614991   -4.0107650460
 H    1.6089431116    0.0957178921   -2.8446589727
 H    3.1346101110   -0.6436795300   -3.3333705643
 H    2.0231204792   -0.0223563900   -4.5649541481
 H    3.4416320591   -3.4872643036   -2.6328427645
 H    2.8898677446   -3.4004531014   -0.8913873380
 H    0.7603633417   -4.5816922751   -1.4710587175
 H    1.2595875271   -4.6885711489   -3.2245236961