17

 O   -0.0747850727    1.3467771000    0.0254578232
 C    0.0159459295   -0.0501568110    0.0361467838
 C    0.3230630249   -0.7988196151    1.3866189591
 C   -0.8937995563   -1.7387325587    1.1429326286
 C   -2.1838239591   -1.3233213240    1.8796080668
 N   -2.3352116840   -0.2021930734    0.9206556687
 C   -1.3589669140   -0.7889258461   -0.0082699255
 C    0.8928525793   -0.5334803073   -1.0437867960
 N    1.5928740409   -0.9013369259   -1.8877319151
 H    0.8152477196    1.7168000123    0.0332389554
 H    1.3027240938   -1.2747219018    1.4463128792
 H    0.1859099786   -0.1271729429    2.2367335263
 H   -0.6788962702   -2.7954804136    1.0055901231
 H   -2.9661985421   -2.0911211518    1.8074018134
 H   -2.0880913494   -1.0148699948    2.9276298556
 H   -3.2593936930   -0.0343183138    0.5471990249
 H   -1.7242342760   -1.1099795021   -0.9864056914