15

 C   -0.0073471922    1.5376075692    0.0046387320
 C    0.0372650016    0.0204387801   -0.0506079637
 C   -1.1057193330   -0.6512576053    0.5170168695
 N   -2.0223053421   -1.1839879477    0.9812742523
 C    0.6553824484   -0.7807565147   -1.2096456518
 C    1.9102455698   -0.0696018571   -1.6994302762
 O    2.4428367545   -0.0126767500   -0.3431443628
 C    1.3355406382   -0.7637355676    0.1302412595
 H    0.9854214306    1.9460292954   -0.1918653595
 H   -0.7146361424    1.9415314752   -0.7253393295
 H   -0.3163460768    1.8700126800    0.9991673679
 H    0.1089329111   -1.5598471236   -1.7219308505
 H    2.5430459731   -0.7066017060   -2.3250193135
 H    1.8069292281    0.9207362576   -2.1538277584
 H    1.4971900710   -1.5045681655    0.9038508243