17

 O   -0.0083349736    1.4933464257   -0.0565986031
 C    0.0357407889    0.0842685321   -0.0304661459
 C    0.6533143039   -0.5103139061   -1.3172727925
 C   -0.0779085752   -0.1362409121   -2.5191031663
 C   -0.6956103336    0.1629277228   -3.5051769775
 C    0.8251307145   -0.3722885495    1.2129118061
 O    2.1157595573    0.1849477543    1.1707780790
 C    0.1197026972    0.0720989945    2.4811972225
 O    0.6901432176    0.7251436974    3.3199108496
 H    0.9036662653    1.7872471406    0.0736337810
 H   -1.0026151322   -0.2574410824    0.0538700339
 H    1.6962769084   -0.1774084888   -1.3842713015
 H    0.6824745290   -1.6042849754   -1.2262005636
 H   -1.2347280974    0.4349720143   -4.3783618925
 H    0.8667202433   -1.4765807753    1.2341585266
 H    2.2433868744    0.6039493264    2.0386332123
 H   -0.9352706877   -0.2450027484    2.5993624420