15

 N    0.6300499937    0.3008404969   -0.5910375934
 C   -0.2090494750    0.2155909708    0.4703944718
 O   -0.1193229668    0.8811075689    1.4815344002
 C   -1.3861145444   -0.7661873519    0.2823632276
 C   -1.0071862398   -2.1201864863   -0.3056183010
 O   -0.3431454596   -2.2400112203   -1.3097911677
 N   -1.5052368159   -3.2079832483    0.4136572889
 C   -1.3597030368   -4.5675139757    0.1200098978
 O   -0.7834453635   -5.0353508743   -0.8193529923
 H    1.4578866652    0.8647255045   -0.4837169897
 H    0.5975140935   -0.4167527475   -1.3028777669
 H   -1.8839136145   -0.8414893124    1.2497122614
 H   -2.0883740848   -0.3058927258   -0.4233904867
 H   -2.0288877292   -2.9981340528    1.2506316826
 H   -1.8664987020   -5.1761145859    0.8959364174