17

 O    0.0540619076    1.2224023057   -0.4037697183
 C    0.0780090273   -0.0866868606    0.1005453925
 C   -0.0450963253   -0.2978347529    1.6324598132
 O   -1.2384941518   -1.1033067278    1.4509571090
 C   -1.2805116686   -0.7764847358    0.0708388082
 C   -2.5073978482   -0.3480585225   -0.6255496541
 C   -1.8933343305   -1.7221327082   -0.9457354074
 C   -1.2128698074   -1.9152656168   -2.2425931129
 O   -1.1154217314   -2.9679860552   -2.8248163283
 H    0.9589766369    1.5278345866   -0.5179063078
 H    0.8816023979   -0.6822575176   -0.3482680928
 H    0.7496974565   -0.8598564783    2.1320924999
 H   -0.2578153841    0.6316162167    2.1727437489
 H   -3.4366290778   -0.3555418959   -0.0678244497
 H   -2.4132017338    0.4301459130   -1.3764141308
 H   -2.3842975058   -2.5985981022   -0.5366366154
 H   -0.7727522916   -0.9808857983   -2.6661288543