15

 N    0.0142096992   -1.1723087760    0.0052849655
 C   -0.0043343294   -0.0151592679    0.0138294949
 C   -0.0449269346    1.4111741479    0.0539334355
 C   -0.6995528269    2.3402012414    1.1270388440
 C   -0.9402345211    3.3398612193    0.0241271947
 C    0.3696466287    3.3550875756    0.8100550161
 C    1.2000906030    2.3748926420   -0.0783249319
 N    0.8760911901    2.5823637246   -1.5036042557
 C   -0.5303028546    2.3548394030   -1.1166285244
 H   -1.2406756417    2.1125242722    2.0333285837
 H   -1.6331276694    4.1687644337   -0.0044249890
 H    0.7066345849    4.1959702887    1.3994211441
 H    2.2199709406    2.1116003639    0.1946329738
 H    1.0773871601    3.5176855172   -1.8571371395
 H   -1.2463807189    2.0714219844   -1.8853233817