22

 C    0.2664304646    1.5726413550    0.0337981873
 C    0.0340267170    0.0593850969    0.0079281473
 C    0.5940044870   -0.6369757089    1.2522213247
 C    0.5841324421   -2.1583920824    1.2320964500
 C   -0.3649721847   -2.9323970328    0.4158026732
 O    1.0007165830   -2.7769244546    0.0042647686
 C    1.1786963169   -2.7895262631    2.4641670548
 C    1.7432487446   -4.1568926207    2.4288969623
 N    2.6391709804   -2.9884555628    2.5369081419
 H    1.3355047937    1.8082760671    0.0762735190
 H   -0.1451270327    2.0518006995   -0.8597028138
 H   -0.2076443769    2.0339421646    0.9074222818
 H   -1.0419073818   -0.1367613877   -0.0748926565
 H    0.5016939231   -0.3767005674   -0.8815201495
 H    1.6345373682   -0.3197485846    1.4072816733
 H    0.0479782149   -0.3059390397    2.1459521537
 H   -0.6399158681   -3.9364610231    0.7339637128
 H   -1.0934025539   -2.4273133374   -0.2140999095
 H    0.7479137613   -2.4275526012    3.3960915058
 H    1.6959620834   -4.7831977121    3.3150412336
 H    1.7152684674   -4.6847167234    1.4807146875
 H    3.0313083204   -2.8099262810    1.6132820218