16

 C    0.0848355809    1.5264493956    0.0568988463
 C   -0.0167167080    0.0412672684    0.0064306804
 C   -1.0882468407   -0.7721426293    0.0245329439
 C   -2.5488757652   -0.4887202539    0.1009918902
 C   -0.5951576118   -2.1717917080   -0.0496286154
 O   -1.2048269084   -3.1993354021   -0.0603089294
 O    0.7951292666   -2.1349672349   -0.1109089653
 C    1.1875771098   -0.8098771443   -0.0794838708
 N    2.3840096608   -0.4108711783   -0.1185505175
 H    0.6838403657    1.8382608935    0.9186711607
 H    0.6038211150    1.9031097741   -0.8305056663
 H   -0.8974617833    1.9983931194    0.1192937215
 H   -3.0667647325   -0.9056462051   -0.7694974006
 H   -2.9875667683   -0.9700518173    0.9817149037
 H   -2.7539844393    0.5824070978    0.1496772170
 H    3.0316245887   -1.1986371954   -0.1769410585