19

 O    0.2625105407    1.3231916061    0.0347611027
 C    0.0708201014   -0.0702898580   -0.1362156858
 C   -1.4046483033   -0.4773393845   -0.0922331277
 C   -1.6284343920   -2.0104801652   -0.1869504056
 C   -2.4601262051   -2.3447195435    1.0658254305
 O   -3.1063966681   -1.1297741750    1.4328785855
 C   -2.1653750110   -0.0858663440    1.2184969037
 C   -1.2875102322    0.0932220514    2.3870657553
 C   -0.5766520399    0.2497676132    3.3457780328
 H    0.1437648193    1.5074569988    0.9735556261
 H    0.4815245172   -0.3216159250   -1.1200025651
 H    0.6357565848   -0.6463544672    0.6112680951
 H   -1.9166982056    0.0285394817   -0.9148494105
 H   -2.1712862465   -2.2663622861   -1.0994712936
 H   -0.6825047952   -2.5609454348   -0.1998301042
 H   -3.2393830957   -3.0912554269    0.8971191895
 H   -1.8136976325   -2.6940549749    1.8842258122
 H   -2.7429336778    0.8326635876    1.0799276325
 H    0.0346212614    0.3835231263    4.2046323265