19

 C    0.0065803533    1.5253056874   -0.1261294898
 C    0.0520398437    0.0309740271    0.0812301524
 O   -1.0930643658   -0.6623924991   -0.3558459227
 C    1.3150771860   -0.7828667475   -0.0489964386
 O    2.4633505958   -0.0542674958    0.3772539979
 C    1.9185443352    0.0375003759    1.7264504399
 C    0.6250002354   -0.6577800187    1.3102885467
 C   -0.1105332033   -1.6478552442    2.1669716881
 O    0.7489644488   -2.6544415632    2.6927277198
 H    0.9703424890    1.9838221546    0.1027417661
 H   -0.2203268250    1.7488714722   -1.1759365999
 H   -0.7699850623    1.9863048185    0.4919882211
 H   -1.1520346337   -0.5541038106   -1.3117729482
 H    1.4449405485   -1.6060219781   -0.7453011258
 H    2.5058643305   -0.5739003271    2.4186077517
 H    1.8641879812    1.0708909091    2.0865080382
 H   -0.5301661395   -1.1437204422    3.0457721181
 H   -0.9468534096   -2.0751577988    1.6019683503
 H    1.1187576119   -3.1329147295    1.9430588545