15

 O    0.0064789660    0.0044271813    0.3157125335
 C   -0.0115326397    1.1841992711    0.1572511582
 C   -1.0692031152    2.2835968781   -0.0518978071
 C   -1.3317901869    3.0200221310    1.2635213839
 C   -0.0122100104    3.3324964665    1.9931944754
 O   -0.0011620041    3.7764514578    3.1126107249
 C    1.2925187477    3.0547560243    1.2238455050
 C    1.0098708608    2.3111154246   -0.0833310569
 O   -0.0501488925    3.0218820987   -0.7880925947
 H   -1.9620827809    2.0740083240   -0.6445374317
 H   -1.8355549320    3.9712451696    1.0555369540
 H   -1.9780591267    2.4519370708    1.9407039752
 H    1.7644241136    4.0188915121    1.0011134790
 H    1.9737636183    2.5042376392    1.8809571303
 H    1.8896627918    2.1249904208   -0.7027717589