18

 C    0.0709941306    1.5261855835    0.1590577117
 O    1.4859455373    1.3993342273   -0.2069361261
 C    1.1636926452    0.1218875821   -0.8404654712
 C    1.8150562627   -1.2722371788   -0.6810583848
 C    0.6262254822   -1.9195237355    0.1037394423
 C    0.4779592875   -0.8679419681    1.2299477306
 C   -0.0508536309   -0.0046434579    0.0575317150
 C   -0.7134707396   -1.2958642396   -0.4869250697
 H   -0.0583807195    1.9862973777    1.1427407712
 H   -0.4804682584    2.0943378488   -0.6018858705
 H    0.9147813931    0.3221812298   -1.8923147138
 H    2.0289040304   -1.7361436374   -1.6475489398
 H    2.7297745408   -1.2829034870   -0.0826789786
 H    0.6847730839   -2.9877539504    0.3149896553
 H   -0.3139457852   -1.1067193798    1.9447393337
 H    1.3804548958   -0.5366781937    1.7487087514
 H   -0.8952863899   -1.3548123547   -1.5635489575
 H   -1.5831420359   -1.6543251663    0.0682521209