27

 C   -2.3810172914    0.7473150248   -1.2028254699
 C   -1.6649633585   -0.6060451566   -1.2551267188
 C   -0.3540492796   -0.6153669281   -2.0697908082
 C    0.7093406885    0.3815916434   -1.5507803172
 C    1.1944483094    0.1552540546   -0.1134237384
 C    0.1918327836   -2.0325934665   -2.1568745288
 C   -0.3618638493   -3.0284096043   -3.1496383456
 C    1.0595444659   -2.5362771605   -3.2916477522
 C    1.4704236145   -1.6864697215   -4.4755475484
 H   -1.7948796195    1.5037573742   -0.6714890489
 H   -2.5782927393    1.1309427860   -2.2106489355
 H   -3.3435926298    0.6601282194   -0.6887009950
 H   -1.4656629848   -0.9551492168   -0.2336496433
 H   -2.3381911859   -1.3513730564   -1.6955143119
 H   -0.6141257548   -0.2885962880   -3.0862051872
 H    1.5717188889    0.3399280855   -2.2263537115
 H    0.3127342920    1.4003608971   -1.6354850162
 H    1.9471597260    0.9020899737    0.1584899733
 H    0.3792249915    0.2356704578    0.6130376021
 H    1.6539380727   -0.8303396418    0.0119945245
 H    0.4383858654   -2.4563467167   -1.1857475265
 H   -0.5422425029   -4.0501957978   -2.8329938968
 H   -1.0843474625   -2.6580680833   -3.8722896136
 H    1.8254348327   -3.2470403757   -2.9895278345
 H    0.6802492305   -0.9932941110   -4.7778630084
 H    2.3665543210   -1.0944462268   -4.2574631262
 H    1.6962452658   -2.3184615148   -5.3419260071