20

 C   -0.1795810659    1.3445994820   -0.1063019181
 N    0.1415113062   -0.0495561375    0.1155511977
 C    0.7120740144   -0.6680436853   -0.8161504817
 O    1.0749432629   -1.9621219831   -0.6635054083
 C    1.5677470327   -2.6414603706   -1.8009516507
 C    2.4482715219   -3.8472841689   -1.4474474665
 O    1.5691280703   -4.7507146413   -2.1444094872
 C    0.6261111304   -3.6929157817   -2.4556043570
 C   -0.7329616733   -3.9098826127   -1.8231476116
 H    0.1076754890    1.7193258180   -1.1026326977
 H   -1.2571400356    1.4974500961    0.0214235696
 H    0.3202761528    1.9612775137    0.6492489626
 H    0.9776366322   -0.2366029154   -1.7947959502
 H    2.0113088697   -1.9310973644   -2.5057153094
 H    3.4622185403   -3.8471155360   -1.8633620289
 H    2.4931138930   -4.0482581814   -0.3706052143
 H    0.5339457155   -3.5760013862   -3.5438483528
 H   -0.6568865978   -3.9573916256   -0.7347451898
 H   -1.4155644997   -3.0947192523   -2.0861373070
 H   -1.1605427090   -4.8474509272   -2.1905927587