15

 N    0.0336299782    0.8935177289   -1.0018428555
 C    0.0599952130   -0.1132959053   -0.2309834966
 N   -1.0994187170   -0.7595063576    0.2114168532
 C   -1.9373015057   -1.5437756660   -0.6828176393
 C   -1.0344884701   -2.2121739932    0.3098535299
 C    0.2963972243   -2.7710758722   -0.1283395731
 O    1.3692296991   -2.0363272453    0.5064853695
 C    1.3527267702   -0.6914089534    0.3408454459
 O    2.3092037063   -0.0206635163    0.6082801801
 H    0.9837797167    1.2532769703   -1.1121859533
 H   -3.0029628386   -1.4908964077   -0.4852960928
 H   -1.6584424499   -1.5701141757   -1.7328104123
 H   -1.4586169264   -2.6249981569    1.2218056928
 H    0.4381896682   -3.8085743080    0.1754249261
 H    0.4192766718   -2.7065301916   -1.2155232145