16

 N   -0.2350950717   -1.1866811585   -0.3418854448
 C   -0.1296180518   -0.0511189065   -0.1539482610
 C    0.0056556695    1.3881837272    0.0534173972
 C   -0.2498056385    2.0035689144    1.4632233104
 N    0.0671683112    1.0269318772    2.4939980059
 C    1.5026816987    0.7060625693    2.2878976844
 C    2.0301335200    1.7851583585    1.3405927496
 C    1.0286171698    2.8480743029    1.1729145663
 N    1.3960311671    1.9714180167   -0.0047471489
 H   -0.5832137418    1.9033252697   -0.7105400323
 H   -1.2114067584    2.4875320480    1.6254425249
 H   -0.0662326159    1.4484735944    3.4074580819
 H    2.0520420935    0.7268260286    3.2340086770
 H    1.6124735387   -0.2961905854    1.8635080227
 H    3.0914925675    2.0020647296    1.3105388474
 H    1.1765137921    3.9206296336    1.1787755393