18

 C   -0.0700380930    1.6235262210    0.1121664571
 C   -0.0156157070    0.1120033940    0.0749645986
 C   -1.2744779238   -0.5579533256   -0.4561850926
 O   -1.5243308581   -0.2862288136   -1.8266618211
 C    1.2435853681   -0.6341616298   -0.2708534403
 O    2.4760441986    0.0670159682   -0.1413459563
 C    2.5844078979    0.3571750323    1.1815413135
 N    1.6758142704   -0.0424227121    1.9778387720
 C    0.6977174714   -0.7095196266    1.1514153730
 H    0.7856724908    2.0596405098    0.6294060191
 H   -0.0857782833    2.0390066168   -0.9017072377
 H   -0.9727640464    1.9583914724    0.6360519840
 H   -1.1808146982   -1.6470979632   -0.3877818108
 H   -2.1306494368   -0.2660231415    0.1725278887
 H   -1.7467784426    0.6458523140   -1.9107025721
 H    1.2794075385   -1.4099571300   -1.0251011249
 H    3.4695199138    0.9198693466    1.4520720421
 H    0.1989263897   -1.5647200226    1.5932756780