14

 N   -0.0928156007    1.4968115480    0.0801655170
 C   -0.0729296067    0.0786663589   -0.0166627627
 C   -1.3194921221   -0.7798250961    0.0681498891
 C   -2.3862829478   -0.1776611008   -0.7907031988
 N   -3.5899284246    0.1127608924   -0.6310817406
 O   -1.5684854000   -0.0644824492   -1.9247986541
 C   -0.4941284587   -0.7433154130   -1.2283423998
 C    0.2482640271   -1.7451893715   -1.9081784409
 N    0.8931150393   -2.5470039417   -2.4386030843
 H    0.7499598092    1.8984453915   -0.3180109998
 H   -0.8877279054    1.8968708581   -0.4066566272
 H    0.7641423622   -0.3738317356    0.5100995856
 H   -1.4563442957   -1.5692373299    0.7928004504
 H   -4.0096180161    0.4897412590   -1.4821748038