19

 C    0.0288901983    1.5560009055   -0.0591248948
 C    0.0095333044    0.0495366413   -0.0727347569
 C    0.4240770576   -0.8253838058   -1.2691311616
 C   -0.3421451640   -1.9386910029   -0.5137623664
 C    0.5722648693   -2.1562560399    0.7159759838
 C    0.4021159013   -0.7239075526    1.2737576403
 C   -1.1098208619   -0.7315780308    1.5535186562
 O   -1.8033699839   -0.5039080202    2.5030235379
 C   -1.3220463723   -0.8304287905    0.0565625789
 H    1.0582809442    1.9328454835   -0.0535617860
 H   -0.4723047243    1.9677810567   -0.9412636152
 H   -0.4739954631    1.9521306003    0.8300457540
 H   -0.0901624475   -0.5027903617   -2.1791477156
 H    1.4872632059   -0.9813673901   -1.4830280475
 H   -0.7308507005   -2.8174726903   -1.0261225556
 H    0.2171576814   -2.9215344203    1.4130505006
 H    1.5987386614   -2.3982893061    0.4265814844
 H    1.1227777025   -0.3303302685    1.9874925626
 H   -2.2522490785   -0.6123170376   -0.4631955692