17

 C   -0.0315820617    1.4162002283    0.0451171264
 N   -0.0404476150   -0.0318161332    0.1797511828
 C   -1.1148767728   -0.6686844603    0.1051290035
 C   -1.2664481028   -2.1709927280    0.2270479678
 N   -2.6921823048   -2.3302339051    0.0638443809
 C   -3.3827451470   -3.5976915900    0.0960655083
 C   -3.3304499287   -1.1416599011   -0.1275373232
 O   -4.4965115847   -0.9242033598   -0.2938472052
 O   -2.3728085653   -0.1297530383   -0.1026840543
 H    0.6244402262    1.6875765139   -0.7889282389
 H   -1.0187250644    1.8605378541   -0.1190830520
 H    0.4087242422    1.8504612827    0.9490900561
 H   -0.6923305843   -2.6918334773   -0.5499740315
 H   -0.9112867947   -2.5275301237    1.2024387677
 H   -3.2426779389   -4.0989897480    1.0612788888
 H   -4.4450046206   -3.4020191168   -0.0551525872
 H   -3.0226587426   -4.2635869772   -0.6973342801