20

 C   -0.1320801741    1.5756365607    0.0122918777
 C   -0.0098246983    0.0622950904   -0.0051091554
 C    1.2319631955   -0.6048656916   -0.6419321743
 N    2.0659655239   -0.1431999913    0.5455299389
 C    3.0876968108   -1.1992090863    0.7850708722
 C    2.3213909688   -2.5200454197    0.5512428660
 C    0.9652476840   -1.9025805942    0.2128672296
 O   -0.1211541926   -2.7462684232   -0.0112885757
 C    0.7551745438   -0.6636320002    1.1296340632
 H    0.8163120395    2.0410094513    0.2871752803
 H   -0.4318973138    1.9514003427   -0.9725177981
 H   -0.8975682388    1.8944495123    0.7286382795
 H   -0.9472689874   -0.4301403986   -0.2720893373
 H    1.6128953351   -0.5256774799   -1.6641492952
 H    3.9222592033   -1.0518413990    0.0936447992
 H    3.4727192012   -1.1002014708    1.8038432230
 H    2.7207573340   -3.1177247409   -0.2763373060
 H    2.2646876800   -3.1626994231    1.4348354241
 H    0.1355583443   -3.4100862834   -0.6598328747
 H    0.5693298110   -0.6524724856    2.2066925828