19

 O    0.3633376114    1.1842483774    0.1042543089
 C    0.1183075859   -0.1915717506    0.0123004474
 C   -1.3080060422   -0.6496887470   -0.0024390542
 C   -0.4300269199   -0.7115354416   -1.2865850965
 C   -0.6046870012   -2.2401298758   -1.3131379487
 O    0.5025195564   -3.0914019276   -1.1140131384
 C    0.6816696984   -3.3452995629    0.2806611360
 C   -0.6637500486   -3.0503612595    0.9964939523
 C   -1.4440169064   -2.1825257271   -0.0049007697
 H   -0.2981968532    1.6507899220   -0.4181086458
 H    0.8892032062   -0.7138974072    0.5668099043
 H   -2.1070834377    0.0402992257    0.2458504197
 H   -0.4371819764   -0.0701107254   -2.1619135782
 H   -1.1353700253   -2.5754177929   -2.2082208106
 H    0.9923285629   -4.3898545372    0.3877761942
 H    1.4926829350   -2.7209792857    0.6794613136
 H   -1.2039008072   -3.9819707892    1.1856618526
 H   -0.5074579206   -2.5566697361    1.9592376157
 H   -2.4787049576   -2.5066755095   -0.1222759824