19

 C   -0.1850219843    1.5512739322   -0.0698247021
 C    0.0183738508    0.0444703323   -0.0071414490
 C    1.1980300614   -0.5751284870   -0.8535771924
 C    2.1444455722   -0.1982910603    0.3354040289
 C    0.8765840035   -0.5609458872    1.1477874002
 C    0.6731982453   -0.3099073991    2.6127628667
 O    0.7547828188   -1.9982397363    0.8500424694
 C    0.9691999042   -2.0379250165   -0.5079370271
 O    0.9515657936   -3.0346083730   -1.1646527125
 H    0.7439437259    2.1201673023    0.0206213307
 H   -0.6504743543    1.8285437329   -1.0210503739
 H   -0.8567907043    1.8797366927    0.7305965958
 H   -0.9437391562   -0.4636023545   -0.1306480149
 H    1.3943964085   -0.3362997985   -1.8954485000
 H    3.0291657527   -0.8168443891    0.5017316762
 H    2.4061784702    0.8587760281    0.3656572237
 H    0.7472275478    0.7602588301    2.8265030097
 H   -0.3127295045   -0.6614320310    2.9313305354
 H    1.4305713888   -0.8339561580    3.2031026153