19

 C   -0.0359781993    1.5856200322    0.0400117879
 C   -0.0005561963    0.0554177733    0.0055934567
 C    0.7055503208   -0.5039046711   -1.2341353176
 C    0.7424737057   -2.0340353373   -1.2711318559
 C    1.4560018010   -2.5805101971   -2.5243944531
 C    1.4979552317   -4.0370018583   -2.5717393359
 C    1.5190823292   -5.2388980922   -2.5866751589
 H    0.9760471892    2.0056845385    0.0373090219
 H   -0.5625263229    1.9896199761   -0.8318767639
 H   -0.5459397560    1.9532460143    0.9359139114
 H    0.5009962068   -0.3203702189    0.9071950852
 H   -1.0255702336   -0.3363171523    0.0449122571
 H    0.2041950834   -0.1286063175   -2.1375913360
 H    1.7320425245   -0.1126069769   -1.2746072876
 H    1.2498181399   -2.4182909546   -0.3782277396
 H   -0.2779282575   -2.4342911237   -1.2410639486
 H    0.9538215478   -2.2012299981   -3.4244624259
 H    2.4799644552   -2.1852710691   -2.5625347849
 H    1.5437543704   -6.2998733674   -2.6106060024