21

 C   -0.2232535746    1.4898773987   -0.0478975667
 C    0.0535421901   -0.0206231970    0.0000764859
 C    0.8518334511   -0.4498554258   -1.2365152426
 O    0.0480185755   -0.1939476679   -2.3804669559
 C    0.7858746475   -0.4709752461    1.2940821887
 C    0.1779398503    0.1111529704    2.5689470460
 O    0.8801388343   -0.4749588814    3.6560973022
 C    0.7336378348   -1.9886973221    1.3939378271
 O    1.6050872186   -2.7389187132    1.0398163991
 H    0.6985118133    2.0633207827    0.1070950973
 H   -0.6233852991    1.7501922297   -1.0299892142
 H   -0.9486865966    1.8030040320    0.7077522535
 H   -0.9123386879   -0.5441921081   -0.0513421189
 H    1.7928765602    0.1243884114   -1.2737481149
 H    1.1199172297   -1.5121437277   -1.1699700294
 H    0.5410294288   -0.4657572456   -3.1595863679
 H    1.8418274156   -0.1812616014    1.2379220202
 H    0.2712089314    1.2044623459    2.5768136573
 H   -0.8976081258   -0.1310953015    2.6102363556
 H    0.4864777694   -0.1677131277    4.4779764245
 H   -0.2312795667   -2.3795705454    1.7960119432