14

 C   -0.1535209384   -1.2334159834    0.2634386161
 C   -0.0852280284   -0.0344172630    0.1926521661
 C   -0.0234761439    1.3956803734    0.0676820081
 C    0.7254753292    2.2081758717    1.0832026106
 N    1.2370815388    2.0912111968   -0.2736602044
 C    2.4238069365    1.2586690425   -0.4594720711
 C    3.6362242581    2.0463362869   -0.2191261190
 N    4.5994741680    2.6505933839   -0.0176051841
 H   -0.2193759755   -2.2911534803    0.3375320046
 H   -0.8892902382    1.8466608118   -0.4105235743
 H    0.3575797719    3.1899603829    1.3648189168
 H    1.2281874737    1.6546663016    1.8735181592
 H    2.4481609918    0.3721400294    0.1927905290
 H    2.4364299063    0.8967672356   -1.4933317875