15

 C   -0.1711750564    1.4286517521   -0.2013457239
 N    0.0143918166   -0.0037057982    0.0001203837
 C    1.3566387277   -0.5234384711   -0.1609537500
 C    0.7387365219   -0.4479653241    1.2091227510
 C    1.2449238419    0.4794470553    2.1756172875
 C    1.6349712272    1.2430614267    3.0326748547
 C    2.0846157164    2.1019505391    3.9853196304
 C    2.4826004820    2.8654558235    4.8327502371
 H    0.6873995653    2.0383731065    0.1161742350
 H   -0.3506587697    1.6028908228   -1.2664028998
 H   -1.0525961149    1.7582623100    0.3560409279
 H    1.4453011968   -1.4898838147   -0.6499573197
 H    2.1617054248    0.1797276589   -0.3682214987
 H    0.3333967718   -1.3635260580    1.6349116941
 H    2.8348309386    3.5352763312    5.5772644306