23

 C    0.2390652863    1.4928863375   -0.3080057130
 C   -0.0555210249    0.0283254287    0.0403880559
 C    0.6430794705   -0.4434534972    1.2976401389
 C    2.0951965347   -0.8925104180    1.2362237172
 C    1.0029101035   -1.8824117249    1.5480144905
 O    0.8211472164   -2.1940836044    2.9036808005
 C   -0.0641757319   -1.2167558059    3.4754941420
 C    0.2065760631   -1.1217899333    4.9660851389
 C    0.1736685947    0.0762930863    2.6629720915
 H    1.3119098219    1.6520019784   -0.4586436982
 H   -0.2794009974    1.7926892965   -1.2240256929
 H   -0.0853695547    2.1658277656    0.4928901425
 H   -1.1393248991   -0.1108816654    0.1547719782
 H    0.2467144227   -0.6109290420   -0.7985042381
 H    2.5611015440   -0.9418286333    0.2560924107
 H    2.7615876455   -0.6232336150    2.0490889024
 H    0.7572139113   -2.6849130372    0.8576650247
 H   -1.1023208173   -1.5509059879    3.3110528464
 H    1.2342852507   -0.7918120020    5.1474829085
 H   -0.4778886640   -0.4072630629    5.4342987055
 H    0.0683788426   -2.0946627759    5.4460776589
 H    0.9261106407    0.7091360076    3.1475995326
 H   -0.7448729195    0.6647817548    2.5756591965