21

 O    0.0345491623   -0.0451102466   -0.1568957433
 C    0.0345100590    1.1493091193   -0.1927296570
 O    1.0784732583    1.8932945004    0.2064278977
 C    0.9735547684    3.3299381167    0.1412940219
 C    0.9811865806    3.8948068280    1.5617844676
 C    0.9902592222    5.4314162107    1.5447862063
 C    2.1609840784    5.9763403088    0.7143040467
 C    2.1470417384    5.4000384147   -0.7086527362
 C    2.1377860653    3.8633940598   -0.6927182744
 H   -0.8152135371    1.7610657787   -0.5571907966
 H    0.0235221908    3.5894197575   -0.3497992057
 H    0.1151100850    3.5141630345    2.1140884261
 H    1.8755932609    3.5188845099    2.0741501083
 H    0.0445291329    5.7970507050    1.1210859774
 H    1.0359591221    5.8115015873    2.5706418971
 H    2.1234735647    7.0704910489    0.6797103054
 H    3.1076952237    5.7105786301    1.2039928161
 H    1.2559769837    5.7648392589   -1.2383222521
 H    3.0117495250    5.7574513844   -1.2774077353
 H    3.0714862291    3.4868418166   -0.2566752838
 H    2.0764448062    3.4603436562   -1.7091477862