16

 O   -0.0559333636    1.4875527134   -0.1410411509
 C    0.0216185345    0.0770282333   -0.0972329331
 C   -1.3390283011   -0.5723032507    0.0725373566
 O   -2.1021186613   -0.2336690395   -1.1063683417
 C   -3.3750952207   -0.7009382463   -1.1212343262
 O   -3.8857132610   -1.3531884803   -0.2575686028
 N   -3.9633759232   -0.2876877524   -2.3172278738
 C   -5.2620605850   -0.5448752394   -2.7441045015
 O   -6.1006610874   -1.1606373701   -2.1495645520
 H   -0.6547979718    1.7126307399   -0.8608445663
 H    0.5119603389   -0.3322038954   -0.9945323137
 H    0.6428044120   -0.1793313914    0.7668892102
 H   -1.2631713169   -1.6608311324    0.1571530670
 H   -1.8563658497   -0.1858586594    0.9548392836
 H   -3.3714339662    0.2464207853   -2.9358368744
 H   -5.4251492476   -0.0885977845   -3.7411977209