16

 C   -0.6896924731    1.4019464601   -0.5998907870
 N   -0.7235253670   -0.0529066434   -0.6271559692
 C   -0.4215782141   -0.6490040872    0.6615296830
 C   -0.7092565172   -2.1134393039    0.6415023254
 N   -1.6590029731   -2.7268860391   -0.0018747095
 C   -1.4578214310   -4.0287788533    0.3863047039
 O   -2.2228676453   -5.0281860258   -0.0477197507
 N   -0.4650326473   -4.2321860708    1.2139409974
 O    0.0440031579   -2.9243479515    1.3807282913
 H   -0.9801244270    1.7892182150   -1.5799210728
 H   -1.3484009885    1.8556800437    0.1626412634
 H    0.3323212899    1.7422307839   -0.3972533320
 H   -1.6287667859   -0.3861191938   -0.9403893555
 H    0.6373426573   -0.5037292740    0.9055348220
 H   -0.9954724200   -0.2057993344    1.5013765106
 H   -2.8789533257   -4.6465376855   -0.6435419904