17

 C   -0.0858567966    1.4697633630    0.0631693043
 C   -0.0299017071   -0.0219538775   -0.0014366820
 C   -0.0567483388   -0.8071596985   -1.0780837672
 C    0.0199258543   -2.2656840010   -0.7272804946
 N    0.0970870840   -2.2207067394    0.7348421261
 C    0.0709271524   -0.8551091896    1.2561402668
 C    0.1827885990   -3.3429882154    1.4849779461
 O    0.2038395593   -4.4725595009    1.0369034233
 H    0.8046281507    1.8802118883    0.5557076131
 H   -0.1550308085    1.9094411341   -0.9347675227
 H   -0.9505626119    1.8103900897    0.6465416808
 H   -0.1255265002   -0.4641359930   -2.1032978706
 H   -0.8567436021   -2.8397080368   -1.0575825317
 H    0.8984708310   -2.7702782816   -1.1523243370
 H    0.9781926049   -0.6157132687    1.8318567017
 H   -0.7854465532   -0.6857645229    1.9268519086
 H    0.2326648428   -3.1201524397    2.5706576150