15

 C    0.0102253070    1.6466457872   -0.1565155120
 C   -0.0103187872    0.1094834324   -0.0376811400
 C   -1.4396957783   -0.4596545954    0.0770647129
 C   -2.0674956407   -0.1930831948    1.4275505025
 O   -1.5064764033    0.3076951651    2.3686395142
 C   -3.4766738577   -0.6249082613    1.5405143675
 N   -4.5795596904   -0.9644416691    1.6117670035
 C    0.6691754558   -0.5082967208   -1.1804102093
 N    1.1957756770   -0.9909695780   -2.0886347916
 H    1.0371982654    2.0107768743   -0.2302385129
 H   -0.5322549980    1.9742077397   -1.0479704323
 H   -0.4514623426    2.0909553911    0.7270943536
 H    0.5373038441   -0.1768340933    0.8673950755
 H   -2.0948966035   -0.0558507567   -0.7049303496
 H   -1.4475338876   -1.5477632403   -0.0710327721