19

 C   -0.2181431913    1.6191680355   -0.0952787459
 C   -0.0071569158    0.1160666109   -0.0058022820
 C    1.1852797050   -0.5654319611   -0.7692416554
 C    2.3972164282    0.0407846603   -0.0818869332
 C    2.0739720227    0.0700726402    1.2273140189
 C    2.8855038086    0.4327947918    2.4230548618
 C    0.6672685889   -0.5178368602    1.2636323849
 C    0.9734804660   -1.7229479793    0.2840942275
 O    1.0005051177   -2.9078053086    0.3230003540
 H    0.7029556525    2.1679721276    0.1132693874
 H   -0.5630794680    1.8983403326   -1.0962620175
 H   -0.9823435916    1.9432434049    0.6188737058
 H   -0.9425593240   -0.4120644573   -0.2299966544
 H    1.1907923063   -0.7234116862   -1.8454787508
 H    3.3460407935    0.2669181147   -0.5482948661
 H    3.8848463190    0.7708228455    2.1342859265
 H    2.4100722114    1.2297533037    3.0080794191
 H    3.0006836320   -0.4247202701    3.0981428830
 H    0.1550028190   -0.6324510950    2.2172735763