22

 C    0.1785766975    1.7454239704    0.4633544805
 C    0.1152502257    0.2414989860    0.2469434653
 C    0.7239777032   -0.4593304814   -0.9984245866
 C    1.3969511499   -1.4137554541   -0.0117878428
 C    2.3027848465   -0.7225099009    0.9219958132
 C    3.2326571823    0.4248711351    0.5930969331
 C    3.5360731552    1.3017297518    1.8041243785
 O    4.4217016310    2.3270456889    1.3782307791
 N    0.8443816096   -0.6755734909    1.2090618490
 H    1.1665332367    2.1742854949    0.2875827135
 H   -0.5249859556    2.2450263168   -0.2120909850
 H   -0.1200080298    1.9856729435    1.4896056171
 H   -0.9334755683   -0.0599006988    0.3364149169
 H   -0.0236460815   -0.9339072248   -1.6360944425
 H    1.3974844807    0.1254362449   -1.6323098666
 H    1.3536898511   -2.4967236416   -0.0820546391
 H    2.7477146958   -1.4000522089    1.6519708076
 H    4.1784594442    0.0010522417    0.2316754639
 H    2.8547700760    1.0548755190   -0.2143232473
 H    2.6015271980    1.7200084282    2.2065685581
 H    3.9862880322    0.6881562449    2.6013068986
 H    4.6154020296    2.8897405052    2.1334563656