20

 C   -0.4797825115    1.3945102928   -0.0728742457
 C   -0.0555816852   -0.0582478529   -0.0168023934
 C    1.3390690970   -0.5007930117   -0.3813155481
 O    2.3116108193    0.4839573056   -0.6587206344
 C    2.8054442562    1.1987330134    0.3844200444
 N    2.5373350138    1.1337367330    1.6157772400
 C    1.5960105608    0.1305683774    2.1138793410
 C    0.6621706621    0.7713706118    3.1474558622
 C    0.8671365829   -0.6632992935    1.0346049386
 H   -0.7360849098    1.6760481011   -1.0999481925
 H   -1.3659847730    1.5616643134    0.5477367195
 H    0.2997170120    2.0746493659    0.2737188561
 H   -0.8284436821   -0.7445688043   -0.3560393684
 H    1.4938217308   -1.3551427119   -1.0302072058
 H    3.5271855044    1.9219997180    0.0092087258
 H    2.2156597819   -0.5995111635    2.6546143337
 H    0.0233470613    1.5300379005    2.6887654595
 H    0.0190305631    0.0131770346    3.6061626930
 H    1.2526740975    1.2531821507    3.9312865788
 H    0.6143712387   -1.6751656402    1.3392592158