15

 O   -0.5807530786    0.5681405769   -0.3868760581
 C    0.3822560299    0.7387008819    0.3146371670
 C    1.3421021869    1.8940880701    0.1614549465
 C    0.9517521790    3.0521679937   -0.7988485952
 C    1.0445072269    4.0434647490    0.3783903276
 O   -0.2361888705    4.2120436759    1.0652546224
 C    0.0664601650    3.2319712514    1.9848384146
 O   -0.5951064660    2.8603208696    2.8980989508
 C    1.4266961797    2.9114476848    1.3629711473
 H    0.6282937189    0.0365914627    1.1417709907
 H    2.3368683914    1.4822042719   -0.0393377229
 H    1.6806334293    3.2343106313   -1.5902971437
 H   -0.0451412745    2.9627847762   -1.2322293872
 H    1.5666665239    4.9925519144    0.2772953087
 H    2.2935664988    2.8871809600    2.0187977315