15

 C   -0.0246065775    1.5693400847    0.0013698957
 C   -0.0029502509    0.0398644492   -0.0052258783
 C    0.7320892184   -0.5381478579    1.2237884586
 C    0.7670951474   -1.9918214370    1.2418133087
 C    0.7858499398   -3.2022521600    1.2394229756
 C    0.8065685082   -4.5629184939    1.2360827416
 C    0.8251334498   -5.7705422773    1.2328857873
 H    0.9902811294    1.9820728755   -0.0074224015
 H   -0.5492988330    1.9579620353   -0.8762887274
 H   -0.5324186469    1.9566339149    0.8916264217
 H   -1.0251627800   -0.3534290348   -0.0222644098
 H    0.4856067900   -0.3281851051   -0.9139285475
 H    1.7595207606   -0.1496115095    1.2500818313
 H    0.2491809555   -0.1749157020    2.1414659989
 H    0.8413866492   -6.8318617721    1.2295623951