15

 N   -0.1464905595    1.3355904801    0.0047691925
 C   -0.0569190891   -0.0397548514   -0.0038886492
 N   -1.0679828556   -0.8815401559   -0.1236600861
 C   -0.4647225760   -2.1050560758    0.0135987532
 C   -1.2298207930   -3.3843238162   -0.0786559043
 C   -1.8652273479   -3.5843273396   -1.4498560889
 O   -1.9489281414   -4.6482889990   -2.0037241173
 N    0.8408191547   -2.0722226793    0.1966463990
 N    1.0917103676   -0.7243696369    0.1877606594
 H    0.6136106093    1.8250448664   -0.4462079582
 H   -1.0475020811    1.6510686447   -0.3266624412
 H   -0.5950083215   -4.2404110944    0.1542402021
 H   -2.0584041834   -3.3580624253    0.6435815367
 H   -2.2708866913   -2.6540186307   -1.9032556007
 H    2.0201798283   -0.3860955369    0.3747245631