18

 C   -0.1560811452    1.4864025179    0.0256234294
 C   -0.0481983259   -0.0035829051   -0.0079238043
 C    0.0710145415   -0.8014950606   -1.0690171531
 C    0.1476500745   -2.2364478376   -0.6339687995
 O    0.0611218350   -2.1957895738    0.7902685959
 C   -0.0595692799   -0.8528921396    1.2138691921
 C    0.5992217196   -0.4844305645    2.5187750784
 C   -0.9116936345   -0.5921698314    2.4297962934
 H    0.6632993813    1.9343157736    0.6008629375
 H   -0.1281054959    1.9059932440   -0.9828407600
 H   -1.0904183656    1.8096691329    0.5003873253
 H    0.1097800340   -0.4906931651   -2.1054453849
 H   -0.6745963974   -2.8488960917   -1.0376629671
 H    1.0895081662   -2.7232742648   -0.9340515710
 H    1.1275214627   -1.2841486466    3.0254102599
 H    1.0457694609    0.4985184233    2.6253320167
 H   -1.5021319197    0.3168163537    2.4753316349
 H   -1.3770946715   -1.4627790245    2.8778706562