13

 O   -0.7474323298    1.4398181381    0.2669151112
 C    0.3662751379    1.0344689809    0.4603706717
 C    1.6038371884    1.9254178656    0.3036549434
 O    2.7016962876    1.4296617390    0.2931322338
 C    1.3383216359    3.4023212890    0.0583460870
 C    2.3562723038    4.1835335321   -0.6715000712
 O    1.1727089828    3.7402518177   -1.3241982970
 C    0.4468224722    4.1069118168    1.0316046765
 O    0.2938343158    3.7198731237    2.1612161996
 H    0.6103716991   -0.0149192836    0.7203302574
 H    2.4232046833    5.2574065524   -0.5067405596
 H    3.2761773012    3.6736084974   -0.9469559919
 H   -0.0332985882    5.0227014308    0.6265024789