21

 C    0.3531690015    1.5539985970    0.0602174774
 C    0.0884423307    0.0575658484    0.0274058850
 O   -1.2985641919   -0.2128307563   -0.1464607816
 C    0.9894430963   -0.7923885347   -0.9544291560
 O    1.9830957745   -0.1460668642   -1.7206452915
 C    1.5474695192   -1.5944830053    0.2367044137
 C    2.7621775500   -0.9450237347    0.9596023088
 C    1.8031567562   -0.3162119328    2.0149802075
 C    0.5821085377   -0.8252252476    1.2122253674
 H    1.4188094587    1.7802074269    0.1358294504
 H   -0.0077934692    2.0215585405   -0.8659026953
 H   -0.1736379521    2.0196739368    0.8986274575
 H   -1.6002593937    0.2655033424   -0.9271712743
 H    0.3320750079   -1.4107942067   -1.5818275606
 H    1.5617334102    0.2900854592   -2.4673566778
 H    1.5641357929   -2.6793182705    0.1325055338
 H    3.4727962510   -1.6650675466    1.3707180763
 H    3.3140770420   -0.2363408639    0.3397445605
 H    1.8779454553   -0.8079623137    2.9883936920
 H    1.8761249138    0.7618831976    2.1803056163
 H   -0.2353603011   -1.2990945318    1.7545855404