16

 C    0.2180306770    1.5528467255    0.3923262250
 C   -0.0476893135    0.0991222146   -0.0402580117
 O    0.4806658469   -0.1457408783   -1.3144140989
 C    0.5451967525   -0.8814398444    0.9665928364
 O    1.4482042396   -1.6209780273    0.6371146143
 C    0.0091992682   -0.8759037424    2.3911120058
 C    1.0646856966   -0.3225220092    3.3447139787
 O    0.8754661467    0.6023626258    4.0867403696
 H    1.2950126559    1.7400065850    0.4382004689
 H   -0.2122770308    2.2234036959   -0.3549100769
 H   -0.2233285341    1.7865167082    1.3656138500
 H   -1.1381100834   -0.0692646258   -0.0512137936
 H    1.1652691274   -0.8217180149   -1.1884975598
 H   -0.9127237750   -0.3032682808    2.4999058878
 H   -0.1651635505   -1.9223845992    2.6688756173
 H    2.0401735164   -0.8492663126    3.2895149871