21

 O   -0.4405594087    0.6481687859    0.6817325025
 C    0.1415280561    1.0002628467   -0.3110840039
 C    1.4048250807    1.8288733000   -0.3283517713
 C    1.2558618883    3.0889361793   -1.1817100459
 O    2.5266062131    3.6773911242   -1.3184820070
 C    2.5056557822    4.8831417776   -2.0624660686
 C    3.8908518826    5.4645631780   -2.0969847899
 C    4.8870247492    4.9776538881   -3.1167593811
 C    4.2923016311    6.3570842516   -3.2446546012
 H   -0.2342603281    0.7163518790   -1.3230408136
 H    1.6924255606    2.0757645004    0.6960248864
 H    2.2015048820    1.2185737847   -0.7762998005
 H    0.8377788039    2.8321255363   -2.1716909865
 H    0.5486816217    3.7902153223   -0.7074321006
 H    2.1496810890    4.6916350465   -3.0900572904
 H    1.7975145664    5.5942391273   -1.6034772804
 H    4.2846730688    5.7219703868   -1.1182456277
 H    5.9249240825    4.8882899595   -2.8169735381
 H    4.5598570434    4.2160188058   -3.8167727713
 H    3.5681937443    6.5274153253   -4.0349008946
 H    4.9188539109    7.2150211446   -3.0289627963