18

 C   -0.0444480709    1.5122768890   -0.0346981126
 C    0.0548927638    0.0062869011   -0.0201948958
 C   -0.8129951772   -0.8065841529    0.9252195048
 C    0.6969900468   -0.7962492967    1.0992671249
 C    1.4092964278   -1.9230379319    0.4322255733
 C    1.2493500131   -1.8939522826   -0.9017040530
 C    0.4592704724   -0.7150025956   -1.2767174186
 N    0.1356973759   -0.2666486869   -2.4312099496
 O    0.6128866216   -1.0970422795   -3.4595276867
 H    0.8965730239    1.9653142126   -0.3627530011
 H   -0.8271023233    1.8399028873   -0.7255009378
 H   -0.2820114251    1.8993077979    0.9608721969
 H   -1.4027483134   -0.2388273911    1.6382229898
 H   -1.2771515823   -1.7210829560    0.5723383705
 H    1.1197537066   -0.3191401877    1.9765028065
 H    1.9486770852   -2.6857439305    0.9823222416
 H    1.6119122768   -2.6165041831   -1.6176962579
 H    0.3046472381   -0.6386262234   -4.2479143552