17

 N    0.1026958676    1.2676139065    0.2685724688
 C    0.0697401541    0.0382458012   -0.0365944165
 O    1.1435352625   -0.7507963904   -0.3393773453
 C    0.6797035014   -2.0490675821   -0.7407275506
 C   -0.7497513018   -2.1365343288   -0.1867022605
 N   -1.0788769013   -0.7248485404   -0.1134048397
 C   -2.3401162636   -0.2279467707    0.3795420258
 C   -2.5358172286   -0.4540296173    1.8754338805
 O   -3.5965050718   -0.6972055363    2.3868598299
 H    1.0505016188    1.6287867292    0.2021541353
 H    0.6913273985   -2.1097271026   -1.8348335950
 H    1.3559548866   -2.8006251135   -0.3302705050
 H   -1.4256964990   -2.6748737640   -0.8585031387
 H   -0.7806359830   -2.6302810663    0.7966954577
 H   -2.3457961656    0.8555056424    0.2089025688
 H   -3.1785267285   -0.6745312119   -0.1638502651
 H   -1.5998302463   -0.3623984450    2.4718830696