19

 C    0.0512584942    1.4776065999    0.2471931337
 O    1.4652421740    1.4750063059   -0.1316357502
 C    1.2596671787    0.2423919644   -0.8229388976
 C    2.1221695777   -1.0087785263   -0.8335826829
 O    1.2379454166   -1.8873832691   -1.5785209770
 C    0.1786007898   -1.0844635733   -2.1753201208
 C   -0.9232083295   -0.7940155247   -1.1139743061
 C   -0.0579771548   -0.0338676570   -0.0846124680
 C    0.8366395863    0.2853238014   -2.3118674364
 H   -0.0790550743    1.7697576239    1.2924745269
 H   -0.5323189022    2.1469248965   -0.3974399021
 H    3.0848360804   -0.9039042131   -1.3515709660
 H    2.2906099536   -1.4310183088    0.1622138519
 H   -0.1561913898   -1.6031481196   -3.0739924096
 H   -1.7346677014   -0.2021785492   -1.5515755896
 H   -1.3525197862   -1.7098763841   -0.7024762878
 H    0.1020830899   -0.6175557661    0.8239736372
 H    0.1382485654    1.0897728693   -2.5481129711
 H    1.6812580116    0.3082756301   -3.0037840843