19

 C   -0.0234643197    1.5134848360   -0.1692377869
 C   -0.0577523412    0.0103196196    0.1402275283
 C   -1.4365783073   -0.5559217006    0.0355755550
 O   -2.4407661698   -0.0552186054    0.9314309058
 C   -3.1866863240   -1.3020250732    0.7713535882
 C   -4.2336450977   -1.0458874938   -0.3020566020
 O   -3.4611611027   -0.6955389759   -1.4586631563
 C   -2.1337970514   -1.0948484380   -1.2085970714
 C   -2.0101323043   -1.9583380035    0.0152991317
 H    0.9880613925    1.9125909783   -0.0513617389
 H   -0.3525871158    1.7111621593   -1.1941211822
 H   -0.6878302514    2.0593016992    0.5062884686
 H    0.5950164235   -0.5379763324   -0.5499577273
 H    0.3260857046   -0.1730734753    1.1516736600
 H   -3.5352600290   -1.7099681089    1.7206418931
 H   -4.8484931781   -1.9378259164   -0.4997922362
 H   -4.8840282454   -0.2045381688   -0.0454344222
 H   -1.5604865324   -1.2896103626   -2.1073304077
 H   -1.5950727804   -2.9521145374    0.1165656605