16

 C   -0.0770558687    1.5462624040    0.0097449268
 C    1.4442456085    1.2849594785   -0.0055253795
 C    1.2341898234    0.1161506189    1.0332129639
 C    2.2412315280   -0.9802853541    0.7061409556
 O    1.6791712438   -2.0876314554   -0.0251153125
 C    2.2278624622   -0.9727321633   -0.7550393454
 C    1.2151111985    0.1269362316   -1.0522763532
 C    0.0648455313    0.0048185995    0.0004753938
 H   -0.4908558045    1.9953857631    0.9169758246
 H   -0.5073431007    2.0047045926   -0.8850699986
 H    2.2522902476    2.0197134741   -0.0091167620
 H    1.0101777461    0.3571562771    2.0728584153
 H    3.1059202075   -1.2016780541    1.3229706300
 H    3.0810998605   -1.1876474130   -1.3898452925
 H    0.9721387675    0.3786607973   -2.0851011708
 H   -0.7240098710   -0.7453748567    0.0038119644