16

 O   -0.9790628005    1.1455030578   -0.6171612697
 C   -0.0884917322    0.1875256862   -0.0834868933
 C   -0.9453810386   -0.9504259892    0.4935732310
 C   -1.4059559760   -1.7487112162   -0.7360192313
 C   -0.3051497710   -1.5659273383   -1.7792389051
 O   -0.2046550326   -2.1158388229   -2.8370388729
 C    0.7087025765   -0.5211678816   -1.2113583123
 C    1.2472341399    0.3911796791   -2.2029472442
 N    1.6382559449    1.1757615371   -2.9566976800
 H   -0.4713146867    1.8112975984   -1.0967721165
 H    0.5812977807    0.6312409614    0.6637451878
 H   -0.3304087787   -1.5694066692    1.1550309682
 H   -1.7700539341   -0.5433876227    1.0805725585
 H   -1.5885756230   -2.8104860243   -0.5560840819
 H   -2.3223463037   -1.3269717785   -1.1625235402
 H    1.5310603851   -1.1001312672   -0.7683669381