20

 C    0.0135958948    1.4500956763   -0.0532678492
 N   -0.0432916456   -0.0045231845    0.0450598600
 C    0.8018999677   -0.5289851583    1.1124020806
 C   -1.3654654373   -0.5100606138    0.0797238474
 C   -2.4870253580   -0.2825603209   -0.9982110287
 C   -3.1641841280   -1.2632568407    0.0159291858
 C   -1.7953029427   -2.0213915994    0.0364781102
 C   -2.5408636609   -0.3697496762    1.1008792726
 O   -2.8168397759    0.1409803415    2.1432950791
 H    1.0532491765    1.7592121401   -0.1982467935
 H   -0.5613265598    1.7855428897   -0.9209215113
 H   -0.3768457090    1.9642839069    0.8413558102
 H    0.4876695603   -0.2039765463    2.1188289870
 H    0.7958610323   -1.6222277009    1.0866697619
 H    1.8312239634   -0.1941665119    0.9516228842
 H   -2.9127861479    0.7178447737   -1.0937425588
 H   -2.2598174692   -0.7270450977   -1.9700183410
 H   -4.1593362678   -1.6924688888   -0.0400846971
 H   -1.5454635254   -2.5230865054   -0.9012822574
 H   -1.5757983876   -2.6433529332    0.9060474982