15

 C   -0.0725037629    1.4658194031    0.1125721745
 C    0.0409499964   -0.0474309921   -0.0489143713
 C    0.7553107793   -0.4520178156   -1.3220276983
 O    1.1954675366    0.3256998018   -2.1315646971
 C    0.9101486058   -1.9297199798   -1.5629129269
 N    1.4812214117   -2.5265634436   -2.5682360228
 C    1.3158171082   -3.8449480112   -2.2408289637
 N    0.6878357198   -4.0668667766   -1.1145236150
 O    0.4120066455   -2.7839354562   -0.6527543016
 H    0.9153923049    1.9325818838    0.1336454028
 H   -0.6247476804    1.9082911535   -0.7202143894
 H   -0.5919579403    1.7104649397    1.0424312820
 H    0.5731304718   -0.5065082990    0.7952113668
 H   -0.9454635886   -0.5305282387   -0.0487208965
 H    1.6700844621   -4.6607929092   -2.8537344235