17

 C   -0.1301094501    1.5665373356    0.0246333263
 C   -0.0569424990    0.0352539174    0.0023092887
 C    1.1290515395   -0.5175013574   -0.8625882261
 C    1.9725180557   -0.6979016194    0.4239355774
 C    0.6637964425   -0.5973859064    1.2657364259
 C    0.6852752841    0.1745011960    2.4947865321
 N    0.7160094326    0.8110323539    3.4595648288
 C   -1.3636331485   -0.5436766395   -0.2872847552
 N   -2.3905094523   -1.0206939681   -0.5215408861
 H    0.8549650188    1.9925467802    0.2333047068
 H   -0.4694072558    1.9376602066   -0.9460026467
 H   -0.8225600667    1.9166638065    0.7938556062
 H    0.8788140879   -1.4679814672   -1.3366650044
 H    1.5084417231    0.1697716677   -1.6201793803
 H    2.5329193946   -1.6265170743    0.5312376757
 H    2.6418562978    0.1423180467    0.6139788040
 H    0.2538777658   -1.5891222083    1.4700202071