11

 O    0.0112778957   -0.0834515197    0.0043294331
 C    0.0062447889    1.1204357546    0.0057533618
 O    1.1271407007    1.8808894707   -0.0039855473
 C    2.3411270321    1.1184000329   -0.0158950179
 C    3.4613575084    2.0559722847   -0.0194112266
 N    4.3738273713    2.7626297741   -0.0225311370
 C   -1.1722374891    1.9499974442    0.0174800629
 C   -2.1854140366    2.5947775016    0.0275181068
 H    2.3919046755    0.4690722211    0.8639357391
 H    2.3797079036    0.4773397043   -0.9024255630
 H   -3.0813196006    3.1673774115    0.0364473781