18

 C    0.0107700566    1.4753153131    0.0156358283
 C    0.0780656601   -0.0327100082   -0.0730974105
 C   -0.1163958009   -0.6321724659   -1.3968084766
 C   -0.1399809799   -1.9657180421   -1.4958362454
 C    0.0113573915   -2.7206268612   -0.2556523131
 C    0.9297897359   -2.2433766508    0.8809886930
 C   -0.5552475096   -2.1676115008    1.0542172510
 N   -0.5501193332   -0.6733054393    1.1708762195
 C    0.9267684958   -0.7180878067    0.9575111882
 H    0.7994639914    1.9295202028   -0.5940385160
 H   -0.9556785804    1.8384514047   -0.3479719229
 H    0.1296651762    1.8111258340    1.0484006610
 H   -0.2514948520    0.0276945831   -2.2467851582
 H   -0.2932570121   -2.4859340236   -2.4344218306
 H   -0.0470146107   -3.8029768393   -0.3105950677
 H    1.6695328131   -2.8904138665    1.3322254989
 H   -1.2573335308   -2.7268922769    1.6579718847
 H    1.6039291391   -0.1542042566    1.5921288066