20

 C    0.1479586474    0.8570430853   -0.1206062709
 O    0.0521067487   -0.4677587608    0.3674726600
 C    0.7328142246   -1.4141410596   -0.4011454290
 C    0.0443842411   -1.7623972757   -1.7222087742
 O   -0.9906368834   -1.2484928308   -2.0727392895
 C    0.7611120260   -2.7710606930   -2.6237202904
 N    1.5998515980   -3.7001554498   -1.8815126260
 C    0.9884862461   -4.9775593927   -1.5157391546
 C    2.0134875159   -4.9043236071   -2.5926869788
 H    1.1996611751    1.1757045462   -0.2015668085
 H   -0.3384868890    0.9697657126   -1.0955978195
 H   -0.3561663682    1.4978829445    0.6065176040
 H    1.7718564349   -1.1110772576   -0.6230421804
 H    0.8104436319   -2.3307379432    0.1940135830
 H   -0.0019543913   -3.2556808240   -3.2547128338
 H    1.4082173737   -2.1878134815   -3.2945182183
 H    1.2475083589   -5.3606024074   -0.5332040576
 H   -0.0418604881   -5.1542849877   -1.8196587475
 H    1.6671563156   -5.0336970206   -3.6166293046
 H    3.0320715119   -5.2336895871   -2.4097634034