18

 C   -0.0518981184    1.5903644433    0.0272656896
 C    0.0402772647    0.0939324312    0.0454330010
 C    0.6725439005   -0.7858444713   -1.0251565083
 O    1.1357242863   -1.7437817679   -0.0328286528
 C    0.6372543821   -0.9120810746    1.0245191685
 C    1.4140876168   -0.8240690878    2.2946260988
 C   -0.8617360853   -0.8021562519    0.8766823339
 O   -1.5578186683   -0.1042165658    1.8698264984
 H    0.9275703499    2.0492924777   -0.1469321383
 H   -0.7264245661    1.9322973112   -0.7672839422
 H   -0.4459188404    1.9616994117    0.9756382527
 H    0.0096054822   -1.2455671405   -1.7688724097
 H    1.5233137094   -0.3139823320   -1.5326466066
 H    2.4171584245   -0.4208849405    2.1243850521
 H    0.8941568386   -0.1761821980    3.0055806516
 H    1.5229916377   -1.8176824257    2.7458126837
 H   -1.4071630140   -1.6215312668    0.4002493535
 H   -1.6622967101   -0.6901852625    2.6268276843