18

 N   -0.3351924911    0.9230546088   -0.8769442856
 C   -0.1894807440   -0.1694837969   -0.2809124272
 O    0.9420800486   -0.8054363940    0.1858330277
 C    0.1490459719   -1.8706774369    0.8020272677
 C   -1.1381519276   -1.2561022538    0.2253059421
 O   -2.0704726974   -0.8894163753    1.2029046839
 C   -3.1954499426   -0.2336752612    0.6751310518
 C   -4.3336196140   -1.0698672293    0.1491423851
 C   -4.4464439065   -0.3470070770    1.4786052105
 H    0.5573548492    1.4018656139   -1.0123081543
 H    0.4477981739   -2.8516837159    0.4281737036
 H    0.2046095985   -1.8257107957    1.8914788365
 H   -1.6059489863   -1.8327513426   -0.5832336467
 H   -2.9637271555    0.7039448146    0.1767810780
 H   -4.8984086115   -0.7025205726   -0.7002688146
 H   -4.2154245569   -2.1471578286    0.1888530163
 H   -4.3914102427   -0.9552676746    2.3741425612
 H   -5.0907195460    0.5212452070    1.5545543241