23

 C   -0.2164203407    1.6473839468    0.0933111360
 C   -0.1513112313    0.1408735468    0.3690912825
 C   -1.5653810366   -0.4413244395    0.2113370640
 C    1.1648232412   -0.5410562329   -0.1790367606
 O    1.9204321619    0.2730680566    0.8011011297
 C    0.7755770864   -0.2947647942    1.5502936004
 C    1.1151902594   -1.6867850476    0.8834985290
 C    0.1235826924   -2.8538691479    0.7489103426
 C    2.4719541700   -2.2540461613    1.3162457810
 H    0.7676079808    2.1114978844    0.1198457947
 H   -0.6683896500    1.8257524273   -0.8897409296
 H   -0.8570776399    2.1412369517    0.8332467447
 H   -1.7531172092   -0.7704482874   -0.8168520264
 H   -1.7828907843   -1.2739042396    0.8775947751
 H   -2.2999197432    0.3399482404    0.4304359741
 H    1.5479260175   -0.5636697253   -1.2032431842
 H    0.7062980491   -0.0439567534    2.6126371790
 H   -0.6198879986   -2.7205821045   -0.0346081773
 H    0.6769952508   -3.7670106882    0.5084121711
 H   -0.4044372564   -3.0444469502    1.6899819591
 H    2.3515683264   -2.8485759462    2.2297691412
 H    2.8642933408   -2.9284875908    0.5461572767
 H    3.2044391434   -1.4699840250    1.4982632871