17

 O    0.1897775809    1.3155668670    0.2956569150
 C    0.0071780930   -0.0258099981   -0.1174051843
 C   -1.4392143530   -0.4141879757   -0.0668439156
 O   -1.9322442092   -1.5645102377   -0.7654744252
 C   -2.5750701091   -0.3000411627   -1.0016945112
 C   -3.5865997180   -0.0858904291    0.1413624959
 C   -2.3895088509   -0.2129994054    1.1100777539
 C   -2.2596264035   -0.6025472711    2.5102012885
 O   -2.1089621804    0.7748313301    2.0983335066
 H   -0.2771872416    1.4202974347    1.1354541622
 H    0.3757758279   -0.1127778594   -1.1442070947
 H    0.5947897288   -0.7273993858    0.4992126358
 H   -2.6085702705    0.0603026799   -2.0224824727
 H   -4.0041642905    0.9237880377    0.1697541864
 H   -4.3822595220   -0.8300299096    0.2155890664
 H   -3.1526148575   -0.8023994361    3.0990298960
 H   -1.3505315844   -1.0867761886    2.8618881372