21

 C   -0.2378019562    1.6068646068    0.3149256203
 C   -0.1035097872    0.1145715116    0.6100867662
 N   -1.3371071135   -0.5787380810    0.2496716886
 C   -1.4636830735   -1.0630018453   -1.1201302354
 C   -1.3484807368   -2.0249345260    0.0127279730
 C   -0.1342882710   -2.9199693652    0.1579996535
 C    0.0930480401   -3.3431199481    1.6269069432
 C    1.2188737950   -4.2619414535    1.7763172160
 N    2.1137732906   -4.9867333644    1.8724806741
 H    0.6649257865    2.1435253983    0.6218142670
 H   -0.3873830599    1.7795536133   -0.7558014101
 H   -1.0948119864    2.0273499954    0.8479010746
 H    0.7832714401   -0.2800004575    0.0864959324
 H    0.0636358133   -0.0345722257    1.6841517334
 H   -2.4171955809   -0.8884359677   -1.6116540199
 H   -0.5946749395   -0.9710396718   -1.7728618935
 H   -2.2676311001   -2.4928033142    0.3682824375
 H   -0.2854587191   -3.8192631473   -0.4495687537
 H    0.7679997374   -2.4363948196   -0.2247965100
 H    0.2749521009   -2.4624712623    2.2522086186
 H   -0.8075774698   -3.8269956759    2.0226801843