14

 O   -0.0067875838    0.0096598032   -0.1271744806
 C    0.0052896062    1.1891723214    0.0491960937
 C   -1.1429476556    2.2596902215    0.1415880921
 C   -0.0593764816    3.3279952940   -0.0308318085
 C    0.9771495797    3.3153486066    1.0291247666
 C    1.0715072317    2.2653042941   -0.0675882567
 N    1.8723192715    2.5714106463   -1.2251482305
 C    1.3034293105    3.5826292788   -1.7546000298
 O    0.1568758072    4.1059291719   -1.1868849257
 H   -1.7860612824    2.1563581013   -0.7367907716
 H   -1.7604710772    2.3096621263    1.0419184755
 H    1.7540819759    4.0692817006    0.9777936627
 H    0.6931992285    3.0165006927    2.0321019967
 H    1.6374117694    4.1100244813   -2.6400799438