19

 O   -0.0420714211    1.3154552290    0.1562434568
 C    0.0233096031   -0.0674229649    0.0256069742
 C   -0.3738582614   -0.7620544543   -1.2516549658
 C   -1.2013319461   -0.9348939834    0.0176304465
 C   -0.7942132227   -1.9742924685    1.0871542909
 C    0.6880915750   -2.3085341118    0.7525940514
 C    0.8710592215   -0.8037194349    1.0814827804
 O    2.1006342780   -0.1755607957    1.2762579504
 C   -0.2193899613   -1.0233222099    2.1942894245
 H    0.8696042141    1.6312524384    0.1688123597
 H   -0.8277622064   -0.0957918197   -1.9786093102
 H    0.1937521935   -1.5725722304   -1.6939133497
 H   -2.1959797812   -0.5060323406    0.0539720031
 H   -1.5016820839   -2.7662879067    1.3266166354
 H    1.1340024898   -2.9427303583    1.5235297825
 H    0.9572803025   -2.6877989581   -0.2330203715
 H    2.5275908325   -0.5564958169    2.0494560063
 H   -0.8159370456   -0.1558254489    2.4846096862
 H    0.1558031499   -1.5567003445    3.0738210690