18

 C    0.4015800777    1.4518201691    0.0765278971
 C   -0.0482406464    0.0185915973   -0.0096902762
 C    0.0081351725   -0.6769828022   -1.1465313594
 C   -0.4250618012   -2.1070365640   -1.3172633280
 C   -0.7261550667   -2.8134336553   -0.0167626854
 O    0.3398926289   -2.8702751441    0.9373716115
 C   -0.8021024313   -2.0639133704    1.2439862657
 C   -0.5789786821   -0.5706282201    1.2766492536
 H    1.2220060233    1.5645468784    0.7973147165
 H    0.7447913867    1.8265026979   -0.8912598182
 H   -0.4093578501    2.1043136539    0.4263238644
 H    0.3921741895   -0.1901886321   -2.0406338142
 H   -1.3220163090   -2.1550124916   -1.9532879737
 H    0.3459331098   -2.6710761725   -1.8611858539
 H   -1.2891436172   -3.7434492335   -0.1052229682
 H   -1.4191071057   -2.4613900877    2.0510649085
 H    0.1045513893   -0.3301933098    2.1042214428
 H   -1.5301115580   -0.0820769234    1.5380173768