18

 C    0.2724850203   -0.4378847961   -1.0362721001
 C   -0.0231778381    0.5376216343    0.0824187715
 C    1.0790253304    0.9787911733    0.9790742056
 N    0.5180763460    1.9117232326   -0.0134005181
 C   -1.4145908875    0.5376534844    0.6598458255
 N   -2.4833723021   -0.1462368780   -0.0623872940
 C   -2.0949020651   -0.6571523307    1.2661995180
 C   -1.4923395864   -1.9672568721    1.3227384101
 N   -1.0082148116   -3.0138157766    1.4098245410
 H    1.3124521270   -0.3300527550   -1.3604913845
 H    0.1261515813   -1.4743909820   -0.7219912017
 H   -0.3844385929   -0.2552948828   -1.8912175448
 H    0.8749892334    1.2379436813    2.0148985225
 H    2.0647162557    0.5543596342    0.8085409363
 H    1.1376386647    1.9788845140   -0.8173519680
 H   -1.6529577460    1.4797995906    1.1498339641
 H   -3.3649101554    0.3549195037    0.0017586558
 H   -2.7515957339   -0.4569802452    2.1092294110