20

 C    3.1592415357   -1.3427675082    1.1231483335
 N    1.8563494193   -1.3132353389    0.4734582270
 C    0.7463810061   -1.9236930569    1.1904370060
 C    0.8156440276   -0.4396435519    1.0307327554
 C    1.0894859283    0.5035430851    2.1806198935
 C   -0.0489074819    1.3632561901    2.8030725020
 C   -0.6302176417    0.1176043058    3.5116638071
 C    0.9082207058    0.1427157051    3.6873526894
 O    0.8195941804    1.5907037469    3.9810962293
 H    3.1230960311   -1.2781887330    2.2223223952
 H    3.6612161380   -2.2776463105    0.8554130672
 H    3.7705274658   -0.5138778578    0.7520403002
 H    0.0574805090   -2.5186049068    0.5959059007
 H    0.9436940922   -2.3222083359    2.1855538819
 H    0.1994987913    0.0062115411    0.2496982393
 H    1.9874165146    1.1066750701    2.0171336113
 H   -0.5626584541    2.2285072660    2.3823374522
 H   -1.1963431237    0.3299270418    4.4190225772
 H   -1.0742957516   -0.6695361407    2.9005868420
 H    1.5436357580   -0.4596624516    4.3377953596