15

 C    0.0038283740    1.4929079082    0.0175096614
 N   -0.0154276739    0.0314378163   -0.0448059618
 C   -0.0331902992   -0.6866654449    1.1592252255
 O   -0.0334626002   -0.1618203461    2.2440048892
 C   -0.0166590029   -0.6649043187   -1.2476443572
 O   -0.0329196036   -1.8800035157   -1.3090572865
 C    0.0035529037    0.1514254984   -2.5377075293
 O   -0.0004264826   -0.6974989629   -3.6423697709
 H    0.9038724373    1.8960553987   -0.4539274367
 H   -0.8787603025    1.9200258509   -0.4656815530
 H    0.0004867694    1.7618959370    1.0730169679
 H   -0.0465818125   -1.7695849896    0.9859099090
 H   -0.8696875503    0.8235576752   -2.5491530227
 H    0.8950552820    0.7992465608   -2.5368468245
 H   -0.0154568586   -1.5962320077   -3.2745181404