19

 C   -0.0766438331    1.6052898678    0.0335807011
 C    1.4410250251    1.2649935310   -0.0077767396
 C    1.2603307343    0.0480828806    0.9499431506
 C    1.8895248485   -0.9952301353   -0.0019272087
 C    1.2075439039   -2.3770919045    0.0295034670
 C   -0.3082629285   -2.2952544145    0.0729643890
 C   -0.9290106539   -1.1114082071    0.0811369014
 C   -0.0268533202    0.0664637524    0.0450061933
 C    1.2054908815    0.0323280138   -0.9328775690
 H   -0.4463686046    2.0971085885    0.9400892151
 H   -0.4987427578    2.0820670876   -0.8579658677
 H    2.2888502125    1.9507694436   -0.0382092665
 H    1.2470569498    0.0691650519    2.0418584698
 H    2.9820654864   -1.0709919863   -0.0331152837
 H    1.5160253760   -2.9644608710   -0.8477969272
 H    1.5668441395   -2.9498497122    0.8970698655
 H   -0.8629302849   -3.2291531156    0.0969299875
 H   -2.0094232047   -1.0117034579    0.1117631718
 H    1.1286804002    0.0351536671   -2.0223689696