17

 C   -0.1098377852    1.5704426055   -0.0285938363
 C    0.0337042056    0.0689328499    0.0273894863
 O   -1.1071621933   -0.6187198122   -0.3992428207
 C    1.3486042502   -0.6888478990   -0.2353552194
 C    2.6227446602    0.0589509632   -0.0772642740
 C    2.8095428896    0.4929118002    1.1804354750
 C    1.6773907804    0.0606026411    2.0454668602
 O    1.5410835867    0.2589138633    3.2313749174
 C    0.7185415913   -0.6938102812    1.1424505579
 H    0.7985575854    2.0877233537    0.2798294664
 H   -0.3441325844    1.8874606323   -1.0530853892
 H   -0.9304876603    1.8883177505    0.6213892962
 H   -1.3960313620   -0.2302074203   -1.2328222050
 H    1.2801872305   -1.5408632500   -0.9007338436
 H    3.2871492412    0.2529625826   -0.9124401273
 H    3.6291025913    1.0934338572    1.5523683913
 H    0.1786262327   -1.5432345568    1.5404339349