18

 N    0.0840856138    1.4067509558   -0.0152326655
 C    0.0223747524    0.0008064976    0.0068145360
 C   -1.1001431891   -0.7977624569   -0.0115197558
 N   -0.6740449041   -2.1113587938   -0.0633164693
 C    0.6886362665   -2.1569497850   -0.0768667594
 C    1.1655359787   -0.8613821606   -0.0278995930
 C    2.5826227568   -0.4273951444   -0.0475435122
 C    3.2329443996    0.1155008296    1.1821206789
 N    3.6169662098   -1.2070971119    0.6584208581
 H    0.9122164400    1.7503502433    0.4560736531
 H   -0.7325089403    1.8412404348    0.3953302502
 H   -2.1483253994   -0.5480283563    0.0077879143
 H   -1.2801805556   -2.9108370283   -0.0852200909
 H    1.2200368949   -3.0937977320   -0.1306980624
 H    2.9435293760   -0.0309189083   -0.9961616025
 H    4.0018596402    0.8789232798    1.1012208723
 H    2.6379411521    0.1560485747    2.0908361187
 H    3.1534778777   -1.9204021182    1.2173053191