18

 C    0.0396850680    1.5363546883    0.0539529186
 C   -0.0372037936    0.0422712384   -0.0453693881
 C   -0.9051263842   -0.8145246235    0.7941760238
 N    0.5561400845   -0.9002180515    0.9947162997
 C    1.0607597112   -1.7754592216   -0.1277699351
 C    0.5247819723   -0.7995073529   -1.1768885201
 C    0.0292327846   -0.9608195435   -2.5604092741
 N    1.3369536004   -0.3217762554   -2.2870644973
 H    1.0341787952    1.9042465738   -0.2217145950
 H   -0.6968272027    2.0157875326   -0.6022440540
 H   -0.1641136858    1.8602061012    1.0783102655
 H   -1.4215932283   -0.3475446495    1.6281548373
 H   -1.4286586015   -1.6610082086    0.3532283265
 H    2.1517667197   -1.8178071517   -0.1159728459
 H    0.6499358242   -2.7906897175   -0.1122831406
 H    0.0910597524   -1.9255032592   -3.0571523268
 H   -0.8023343265   -0.3378473022   -2.8823452453
 H    1.2582987402    0.6889824830   -2.3795407791