20

 C   -0.0173816723    1.5325260170    0.0470711301
 C    0.0303384943    0.0224339717    0.0273753315
 C    0.9873687739   -0.7779994263   -0.9132888984
 C    0.7207742929   -1.9227608046    0.1000127363
 C    0.6587468076   -0.8156430195    1.1864028583
 C   -0.7900345794   -2.2089581180   -0.1192755519
 C   -1.3048773130   -0.7228835631   -0.1935022495
 C   -1.0711528227   -2.9947885269   -1.3156872567
 N   -1.2872957571   -3.6150854440   -2.2674787170
 H    0.9771610970    1.9591329598    0.2127885884
 H   -0.3972936077    1.9277597955   -0.9019355622
 H   -0.6751322028    1.8978974972    0.8442201910
 H    0.6907745450   -0.9280457723   -1.9552984626
 H    2.0161596304   -0.4141248352   -0.8630571038
 H    1.3701094327   -2.7928930937    0.1847554239
 H    1.6519170121   -0.4575376307    1.4668626808
 H    0.0572598987   -0.9975722095    2.0831912430
 H   -1.2170120592   -2.7384160283    0.7379825775
 H   -2.0396680913   -0.5114161463    0.5881796003
 H   -1.7576995192   -0.4908070526   -1.1605204391