13

 N   -0.0456264298    1.3613553926    0.0110854596
 C   -0.0078887979    0.0839590882    0.0033043286
 N    1.1627407142   -0.7102457101   -0.0071423199
 C    1.1472771573   -2.0704502411   -0.0151569114
 N    0.0832091389   -2.7990892189   -0.0142885269
 C   -1.1125731866   -2.0914315713   -0.0042322989
 C   -1.2046976261   -0.7366156929    0.0042759255
 C   -2.3054375517   -2.8938957281   -0.0031741342
 N   -3.2750778048   -3.5241947366   -0.0021829327
 H    0.8855052234    1.7794399138    0.0090191874
 H    2.0536246122   -0.2337589696   -0.0086640505
 H    2.1234852410   -2.5489240477   -0.0227759861
 H   -2.1572512902   -0.2245382384    0.0119786596