17

 C   -0.0281186783    1.4305682790   -0.3141596240
 C   -0.0258416507    0.0118098543    0.0123149028
 C   -0.0142422102   -1.1621785466    0.2773278632
 C   -0.0313059372   -2.5865159408    0.5949176947
 C   -1.3760435137   -3.2264571727    0.3010615360
 O   -1.6326572256   -3.6268328499   -1.0380142372
 C   -1.5101598999   -4.6597124925   -0.0430360510
 C   -0.3783164127   -5.5430755426   -0.1316546951
 C    0.5463146731   -6.3094780867   -0.1871737613
 H    0.8852457342    1.7167451643   -0.8472913694
 H   -0.8786149036    1.6884258697   -0.9548438707
 H   -0.0929265353    2.0492243993    0.5877826376
 H    0.7408813162   -3.1208930251    0.0313451433
 H    0.1958808016   -2.7372653969    1.6594386532
 H   -2.2260426800   -2.7562395070    0.7977360078
 H   -2.4526382520   -5.1492032982    0.2015729103
 H    1.3655928742   -6.9831110877   -0.2448045704