15

 O   -0.0529595260   -0.0040176424    0.1996802588
 C   -0.0391601148    1.1920891561    0.0647051248
 N   -1.1172569089    2.0216176171   -0.0970897257
 C   -0.8172611356    3.4229782715   -0.0460473755
 C   -0.2018374193    3.9440527930    1.2293836905
 C    0.6826327452    3.5308277976    0.0732619249
 C    1.2321755725    2.1083745663    0.0434279419
 C    2.1450128041    1.7846664545    1.1348192146
 N    2.8685351134    1.5591796250    2.0067083971
 H   -2.0437166151    1.6530657065    0.0562330077
 H   -1.3911985121    4.0639223102   -0.7044847246
 H   -0.2676679464    5.0078182748    1.4285846133
 H   -0.2435915003    3.3106414182    2.1094403857
 H    1.2262235295    4.2963783071   -0.4640906562
 H    1.7501314139    1.9164070647   -0.9036892172