22

 C   -0.0812285340    1.5123269083   -0.0756352339
 C   -0.0285958445    0.0198493335    0.2079944220
 O   -1.3005480252   -0.5301154184   -0.0734999460
 C   -1.3842762876   -1.9464481658   -0.0114443654
 C   -1.3346721957   -2.4743108511    1.4231193521
 C   -2.6976526617   -2.3358078638   -0.7194551953
 C   -2.7730539539   -1.8077598396   -2.1491850658
 O   -2.8879081017   -3.7477222970   -0.6723619694
 H    0.8869500610    1.9757970324    0.1367921880
 H   -0.3337353430    1.6964515765   -1.1238121261
 H   -0.8400025220    1.9933573360    0.5482276966
 H    0.7391332836   -0.4660806797   -0.4179795089
 H    0.2535948391   -0.1549332754    1.2575284289
 H   -0.5476321820   -2.3841703250   -0.5897012501
 H   -1.5347694894   -3.5476992192    1.4265433465
 H   -0.3594943399   -2.3017372681    1.8864703605
 H   -2.0981550697   -1.9760866430    2.0298956626
 H   -3.5266132611   -1.9196694752   -0.1339207532
 H   -1.9591820285   -2.2254082470   -2.7573600117
 H   -3.7233272311   -2.0948206586   -2.6074698198
 H   -2.6773432227   -0.7207824240   -2.1646145663
 H   -2.2782560701   -4.1434884357   -1.3052648655