17

 C   -0.0779626119    1.5283505887    0.0168085733
 C    0.0755119413    0.0404371718    0.0442892807
 O   -1.1680548669   -0.6715098830   -0.1495376405
 C   -0.7633078223   -1.9450401667    0.3909335046
 C   -0.4697882310   -1.5972564933    1.8658029930
 C    0.6989374507   -0.8248870909    1.2321142027
 C    0.7835105093   -1.9361471622    0.0835915846
 C    0.9978143290   -0.7851423185   -0.8839192712
 O    1.7383198098   -0.5451155059   -1.7915529031
 H    0.9002135776    2.0120448728    0.0869513967
 H   -0.5459694292    1.8388045611   -0.9219877368
 H   -0.7042478983    1.8732153990    0.8448818699
 H   -1.4351285709   -2.7366492062    0.0653204598
 H   -1.2443181052   -1.0544972597    2.4130067277
 H   -0.1124343975   -2.4555469057    2.4394204782
 H    1.5675642637   -0.4340256054    1.7568000046
 H    1.3697044116   -2.8484082659    0.1381594455