19

 C   -0.1599332817    1.5927708910   -0.0203229804
 C   -0.0378336754    0.0762650411   -0.0012023176
 C    1.1817064536   -0.5953652856   -0.6710975597
 C    2.1323344139   -0.2958432103    0.5431260254
 C    2.6013586949   -1.7600847691    0.6501222760
 C    1.1165834827   -1.8654870798    0.2749473552
 C    0.2941064269   -3.0785377149    0.0581939144
 O    0.7152345410   -4.2065846095    0.1555417163
 C    0.7207582112   -0.6094293785    1.1570234848
 H    0.7889504303    2.0812272749    0.2226701504
 H   -0.4748139073    1.9475113841   -1.0078255745
 H   -0.9066290810    1.9343385250    0.7048867751
 H   -1.0004781680   -0.3871357168   -0.2474912868
 H    1.4691719669   -0.6223428132   -1.7242661449
 H    2.7123364854    0.6139392819    0.6963675230
 H    3.3191976756   -2.1058133251   -0.0990020443
 H    2.8794849307   -2.1192273869    1.6449448345
 H   -0.7708298363   -2.8869810969   -0.2087189673
 H    0.4746351567   -0.6526699115    2.2200768701