16

 O   -0.3275659035    0.6170931315   -0.8433643638
 C    0.1493048741    1.1042491882    0.1573701801
 C    1.3509915184    1.9549232687    0.1753043783
 C    1.9132656716    2.6334387202    1.4067159136
 C    3.1410706360    3.2469897807    0.7775176253
 C    2.8984305630    3.6017493071   -0.6445964198
 C    1.7122700250    2.7419917723   -1.1008181168
 C    2.5224051305    1.5548132539   -0.7342948413
 N    3.7077469214    2.3813523694   -0.3084100731
 H   -0.3052598443    0.9182868601    1.1562408531
 H    1.2458772095    3.3974202529    1.8201818357
 H    2.1638898395    1.9199707210    2.1990229253
 H    3.8834443558    3.7759590976    1.3641945209
 H    3.3279986895    4.4436272048   -1.1734703080
 H    1.0066796350    2.8998338163   -1.9029174551
 H    2.6336710187    0.5708171353   -1.1675755145