16

 C   -0.1270560683    1.4019244745    0.0796642624
 O    0.0215429077   -0.0112057302    0.0370800976
 C    0.6561361862   -0.5283337801   -1.1163306092
 C   -0.0480385150   -0.1117219376   -2.4539108145
 O   -1.4312452447   -0.3208927899   -2.4174302791
 C    2.0785710424   -0.1611617530   -1.1975400945
 C    3.2238822562    0.1873940694   -1.2924234035
 C    0.5179472704   -1.9994778142   -0.9973988879
 N    0.3638137974   -3.1437640038   -0.9819998238
 H    0.8246439696    1.9145085089   -0.1083852775
 H   -0.8852189046    1.7484926055   -0.6316284504
 H   -0.4598315958    1.6321384381    1.0932241680
 H    0.1121663886    0.9585305700   -2.6026016839
 H    0.4538286062   -0.6444659946   -3.2731481490
 H   -1.6008572419   -1.2675591515   -2.3424102312
 H    4.2439137158    0.4778019585   -1.3632056136