20

 O    0.5363137632    0.7279273389    0.6501975050
 C    0.1440362463   -0.5023675733    0.0947428426
 C   -1.3549245351   -0.8232334759   -0.0780962505
 C   -2.3335824382   -1.2682065708    0.9605566526
 C   -2.4553134335    0.1084059725    0.3457194519
 C   -1.1123116332   -1.3602194073   -1.4990767299
 C    0.2850841850   -0.7287826344   -1.4220718365
 C    0.9256256494    0.2237697279   -2.3552475110
 N    1.4591528350   -1.1428315118   -2.1739182393
 H    0.0666952041    1.4200852734    0.1706027095
 H    0.6691475774   -1.2686367390    0.6776026516
 H   -3.0670061466   -2.0186961476    0.6830264618
 H   -1.9914343915   -1.3347033712    1.9888008560
 H   -2.1876410785    0.9583411453    0.9665662920
 H   -3.2679816686    0.2937418742   -0.3493525429
 H   -1.0735861977   -2.4528084081   -1.5513005736
 H   -1.7738795951   -0.9906372315   -2.2873019868
 H    0.4821350656    0.4160679923   -3.3288055053
 H    1.4789115495    1.0566487559   -1.9273119091
 H    2.2833480325   -1.1137197995   -1.5764981882