20

 C   -0.0882879671    1.4585535513    0.0185330893
 C    0.0146759436   -0.0569167217   -0.0492048827
 C   -1.2690938708   -0.7627635126   -0.5260033213
 O   -1.8661040118   -1.3090104178    0.6500744274
 C   -0.8183234173   -1.7712871786    1.5053851354
 C    0.3296613862   -0.7712632779    1.3173760935
 C    1.6785980537   -1.2274451263    0.7264012200
 N    1.3679231883   -2.0467028787   -0.4698016314
 C    1.3804307778   -0.5696981710   -0.5730441158
 H    0.8053257888    1.8992308152    0.4748064564
 H   -0.2001875640    1.8943099510   -0.9814402828
 H   -0.9563544428    1.7569174116    0.6156522342
 H   -2.0002710283   -0.0783263209   -0.9667944590
 H   -1.0339680260   -1.5550741822   -1.2481343437
 H   -1.2212485773   -1.7924410635    2.5218013204
 H   -0.5025697230   -2.7840025503    1.2224275879
 H    0.4434254816   -0.0723276735    2.1482566539
 H    2.6202828057   -1.3463073772    1.2479065816
 H    2.2537076147   -2.3852614481   -0.8430424976
 H    2.0405595179   -0.0642286389   -1.2685058158