21

 C   -1.2611121841    0.6994383352   -1.2089595252
 C   -0.1367730734   -0.2348634755   -0.7897482856
 C    1.2978658712    0.0716283369   -1.2315525819
 O    1.7646990966    0.6504093719   -2.1733610824
 C    1.8822698437   -0.4308321531    0.0920807542
 C    3.0869047849    0.2718637911    0.6973851461
 C    0.4369548697   -0.3042457271    0.6824509801
 C    0.1946270021    0.9503814112    1.5133088319
 O    0.1021546451   -1.4726136459    1.4091338368
 H   -1.0516484267    1.7365810276   -0.9319584259
 H   -1.3858010377    0.6713083587   -2.2955877352
 H   -2.2150503116    0.4112165270   -0.7547544712
 H   -0.3651522367   -1.2700780541   -1.0748795518
 H    2.0756153733   -1.5068692485   -0.0077039003
 H    2.9209557755    1.3483479708    0.7977086825
 H    3.3265386666   -0.1327304635    1.6855872064
 H    3.9609394974    0.1349348056    0.0540209357
 H    0.5032075915    1.8587034379    0.9871625168
 H   -0.8706641186    1.0577304655    1.7504658521
 H    0.7499921466    0.8931570508    2.4536506893
 H   -0.7836016756   -1.3610740226    1.7713710276