21

 C    0.0046891385    1.3811661616   -0.0167193337
 O    0.1289785737   -0.0191219041   -0.0264169833
 C    0.5777134959   -0.5430365956    1.2068550419
 C    0.6825288074   -2.0497035128    1.0697447019
 C    1.7810787575   -2.6428359495    0.1204959112
 C    2.3230632731   -3.4518752115    1.3072041837
 O    2.7043898120   -4.7806162236    1.2334157989
 C    2.7540044463   -2.5468973040    2.4227350800
 C    1.2774851848   -2.8525135095    2.2360566131
 H    0.9668791755    1.8777376579    0.1891503261
 H   -0.3446840155    1.6876614012   -1.0059777812
 H   -0.7219962659    1.7234100515    0.7377993776
 H    1.5516116780   -0.0998114576    1.4761512856
 H   -0.1272916221   -0.2822378913    2.0162094212
 H   -0.3009319720   -2.4381977481    0.7912637248
 H    1.3535425552   -3.2800055677   -0.6556699618
 H    2.4696020721   -1.9283353558   -0.3427444498
 H    3.6492954334   -4.8140241786    1.0478832952
 H    3.1982241762   -3.0675438604    3.2654969930
 H    3.1673136208   -1.5587910275    2.2345093514
 H    0.7081699251   -3.3302376346    3.0241758243