16

 N    0.0629085022    1.3406056250    0.0498558817
 C   -0.0399648491   -0.0081953197   -0.0074923078
 C   -1.1961766265   -0.7275647821   -0.0345242426
 C   -1.2366572030   -2.1855603333   -0.0320040956
 O   -2.2841400182   -2.8039044301   -0.1135805884
 C    0.0936844778   -2.9154220649    0.1488434172
 C    1.2890732722   -2.1612457688   -0.4480832716
 C    1.2984185500   -0.6950799989   -0.0868986095
 O    2.3142063694   -0.0517973397    0.0825298117
 H    0.9919553214    1.7065522199    0.1969930123
 H   -0.7276244084    1.9084816757    0.2997312026
 H   -2.1616289494   -0.2290207047   -0.0319462905
 H    0.2435519721   -3.0449979442    1.2287669636
 H   -0.0045034867   -3.9155944010   -0.2787042976
 H    2.2489206721   -2.5947275548   -0.1569707084
 H    1.2377899741   -2.2061648987   -1.5452688172