15

 O    0.1401005885    0.0397762803   -0.0602793533
 C    0.0481129778    1.2308559929   -0.0155382751
 N   -1.0527591437    1.9960159825    0.3112063222
 C   -0.8591501120    3.3857990679   -0.0456214898
 C    0.6866689107    3.4408704543   -0.0708539334
 C    1.2719356706    3.9632952567    1.2543757431
 C    2.7322566462    3.9691042257    1.2646083790
 N    3.8867435507    3.9966839939    1.2669486185
 O    1.0921543750    2.0863682939   -0.2806121836
 H   -1.9541644166    1.5495844982    0.2656766140
 H   -1.2825875815    3.6373287243   -1.0267827330
 H   -1.2831661774    4.0672513803    0.6983575769
 H    1.0665919848    4.0359379858   -0.9035088067
 H    0.9176179360    4.9866685262    1.4241441027
 H    0.9037257808    3.3461053070    2.0813358686