13

 N   -0.0700961669    1.3438024865    0.0692167351
 C   -0.0271010609    0.0741006182    0.0048246309
 N    1.0543887065   -0.8110946305   -0.0834166410
 C    0.7164727444   -2.2424852725   -0.0054740160
 C   -0.7727908505   -2.1349962436   -0.0046327939
 C   -1.1797034481   -0.8428494045   -0.0024040869
 O   -2.4864004327   -0.7662370899   -0.0038218330
 N   -2.9217771031   -2.2030207388   -0.0086162642
 N   -1.8901574829   -2.9149283144   -0.0114362841
 H    0.8646901146    1.7548448724    0.0664702703
 H    1.9826082227   -0.4939420419    0.1424297688
 H    1.1134774373   -2.7951586172   -0.8658584907
 H    1.1120081396   -2.7080951039    0.9070800746