17

 C    0.1315122926    1.5514970668   -0.1417335150
 C   -0.0360618200    0.0635589219   -0.0269035781
 C   -1.1916785645   -0.6459591556    0.0045492270
 C   -2.5731584155   -0.0649695050   -0.0715518895
 C   -1.1393824458   -2.1233726438    0.1232019964
 O   -2.1588315153   -2.7889867555    0.1540758703
 N    0.1272766545   -2.7409146714    0.1997840608
 C    1.1713922941   -1.9946286871    0.1630325785
 N    1.1591345334   -0.6381960767    0.0548196138
 H    0.7107588715    1.8086152103   -1.0369605315
 H   -0.8258963281    2.0643249174   -0.2029224858
 H    0.6733131233    1.9488819138    0.7252207369
 H   -2.5863205179    1.0225583800   -0.1571034284
 H   -3.1093635310   -0.4925565566   -0.9249247412
 H   -3.1476454778   -0.3562005619    0.8137365736
 H    2.1646057338   -2.4394572139    0.2199589225
 H    2.0313894629   -0.1339263826    0.0336405498