15

 O    0.1601721974    1.3831869695    0.3432763340
 C    0.0789321618   -0.0020848261    0.0636057678
 C   -1.4040415789   -0.5140640825   -0.1535002527
 N   -1.3829916805   -1.5187916110   -1.2514228302
 C   -0.1752680458   -1.2861018188   -1.9126168790
 C    0.6810342216   -0.4764484764   -1.2194511461
 N    1.8107556209   -0.5048302104   -1.9651428493
 N    1.6287909388   -1.2532594790   -3.0755183610
 N    0.4079359234   -1.7485698365   -3.0401758844
 H   -0.1598913825    1.8569050115   -0.4337758331
 H    0.5296501726   -0.4800757632    0.9404632912
 H   -1.8212146879   -0.9468576896    0.7585290721
 H   -2.0100858991    0.3634067009   -0.4203486539
 H   -2.2092462498   -1.5215088172   -1.8359608001
 H    2.6946663279   -0.0399911312   -1.8350122154