19

 C    0.7212018658    1.2548638557    0.3181281034
 C   -0.0424973112   -0.0445878356    0.0730528171
 C    0.3310425739   -0.7407642558   -1.2420481773
 C    1.3344634646   -1.8091360898   -0.8153364951
 O    2.1094471381   -2.4067875224   -1.5141821050
 C    1.1873771666   -1.9762973530    0.6947709945
 C    2.5097231180   -1.7895203022    1.4495164006
 O    2.2953559747   -1.8255989927    2.8424274468
 O    0.2274947970   -1.0131341164    1.1146510106
 H    1.8013256887    1.1145497968    0.2034295140
 H    0.4027412443    2.0236316044   -0.3939344188
 H    0.5269287449    1.6213705588    1.3297388846
 H   -1.1167362378    0.1552392652    0.1317238710
 H   -0.5306239004   -1.2541031701   -1.6846175724
 H    0.7548073141   -0.0822620803   -2.0026615678
 H    0.7950856980   -2.9762594939    0.9247373571
 H    3.1894898905   -2.6066976526    1.1916315065
 H    2.9856045586   -0.8459215659    1.1369585013
 H    1.5651061316   -1.2181158901    3.0138909190