19

 O    0.1463770513    1.4228146600   -0.0883909099
 C    0.1028472648    0.0156034103    0.1210329679
 C   -1.3075650529   -0.5417358576    0.0587674365
 C   -2.0625610773   -0.6304147837   -1.3002456497
 C   -1.3021114366   -1.6413264132   -2.1938997775
 C   -0.9326348737   -2.7022746422   -1.1514825130
 C   -2.2435238496   -2.7877889420   -1.8990638560
 C   -2.8460499452   -1.8923606825   -0.7744664068
 C   -1.5593946113   -2.0720269205    0.1176512717
 H   -0.2172419420    1.5953813907   -0.9626932376
 H    0.7459668064   -0.5140593594   -0.5993995374
 H    0.5306006758   -0.1464453414    1.1170673484
 H   -1.9432954735   -0.0317927262    0.7932381296
 H   -2.5477480789    0.2259907280   -1.7682454447
 H   -0.7070022027   -1.4626072125   -3.0795127532
 H   -0.0554940702   -3.3287828846   -1.2425544837
 H   -2.6508510558   -3.5581702998   -2.5396846643
 H   -3.8641516589   -1.8739844392   -0.3951083721
 H   -1.5391400699   -2.6364849642    1.0491470119