19

 C    0.0679116151    1.3199103213   -0.1786837086
 C    0.3968191195   -0.1544468865    0.0678093336
 C    0.9164872030   -0.3993570100    1.4890962469
 N    1.2571853854   -1.7931445646    1.7383579542
 C    0.4890206645   -2.6047305437    2.5009221652
 O   -0.5259771828   -2.2692314646    3.0783142381
 C    0.9727746250   -4.0699660310    2.6416351909
 C    2.1820136934   -4.4153045959    1.9073973473
 N    3.1440123213   -4.6303789963    1.3027415607
 H    0.9519147675    1.9531984416   -0.0445461922
 H   -0.3012902559    1.4762770408   -1.1961365697
 H   -0.7025403439    1.6746635936    0.5142609474
 H   -0.4939144531   -0.7730817684   -0.0909847012
 H    1.1475141944   -0.4952399672   -0.6569341045
 H    1.8023600644    0.2191525087    1.6787955071
 H    0.1561292217   -0.1300039196    2.2258663562
 H    2.0667700881   -2.1818724570    1.2788380979
 H    1.1193866812   -4.2576242450    3.7098050698
 H    0.1464180212   -4.7118443161    2.3215674009