20

 C   -0.4239944592    1.3678737408    0.5998110332
 O   -0.3069060300   -0.0273840958    0.7240516814
 C    0.9863345326   -0.5025006846    0.4001477950
 C    0.9629670555   -2.0130041510    0.5154597699
 C    2.2763881596   -2.8583200230    0.5404486697
 C    2.4992396489   -2.4017469610    2.0135910376
 C    0.9826899539   -2.7368494532    1.9012788754
 C    1.4121654111   -4.0154730604    1.1234139875
 H   -0.2248390641    1.7065638627   -0.4300414704
 H   -1.4490729941    1.6372884041    0.8667752594
 H    0.2687713300    1.9004092816    1.2716987949
 H    1.2481356754   -0.2149838930   -0.6341015584
 H    1.7354120511   -0.0356562855    1.0578431822
 H    0.1976816285   -2.4002225964   -0.1666597808
 H    3.0260196892   -2.9319925312   -0.2497922771
 H    3.0936165408   -3.0742295887    2.6384249894
 H    2.7828449556   -1.3635544462    2.1912028003
 H    0.2291441495   -2.6646569803    2.6858949808
 H    0.6686469390   -4.4589307506    0.4552298083
 H    1.9459690566   -4.7786737285    1.6958716015