18

 C    0.0342683138    1.3830078790    0.0168011764
 O    1.3270360082    1.9047726583    0.0467251757
 C    2.0141097862    1.6766340700   -1.1777613875
 C    1.9015246656    0.2241366107   -1.6544709254
 C    2.8902098636   -0.8418098953   -1.1698882217
 N    2.7785179803   -0.9014650301    0.3021248517
 C    1.8021143304   -1.6390997865   -0.5329337808
 C    0.7456058877   -0.6260801452   -0.9828624279
 O    0.0079024587   -0.0249220554    0.0552052974
 H   -0.4748975075    1.7200494256    0.9216641384
 H   -0.5026702898    1.7517888868   -0.8794905623
 H    1.6028529720    2.3490524429   -1.9487964753
 H    3.0559090354    1.9579397641   -1.0010718828
 H    1.8045693758    0.1902437056   -2.7424431172
 H    3.7829459954   -1.1790023490   -1.6824761012
 H    3.4587327977   -1.5885832067    0.6265687541
 H    1.6812584496   -2.7101089415   -0.4327492335
 H    0.0655594569   -1.0493272834   -1.7333727180