18

 N    0.4736043798    1.6065671446    1.2093468197
 C   -0.0176210549    0.6072158390    0.6164906658
 C   -1.2987921167   -0.0574170106    1.0389080397
 C   -2.4431383502    0.2379235495    0.0815539791
 C   -2.6277474191   -0.5715378198   -1.1757064411
 C   -3.5963322672   -0.7273177545   -0.0304688786
 O    0.5016220095    0.0095743651   -0.5362932797
 C    1.8498517552   -0.1459716245   -0.6565171779
 O    2.3546198961   -0.5251321882   -1.6658834774
 H    1.3042054712    1.9793615019    0.7494367929
 H   -1.1356435221   -1.1402426745    1.0896231837
 H   -1.5368327673    0.3044396004    2.0420898133
 H   -2.6919623220    1.2934279908    0.0164443398
 H   -2.9625728193   -0.0584893849   -2.0700429911
 H   -1.9260089614   -1.3759278650   -1.3651318832
 H   -3.5506609127   -1.6409645081    0.5533954080
 H   -4.5954282772   -0.3197247843   -0.1357607261
 H    2.3879142882    0.0856232829    0.2785327030