15

 N    0.1446577511    1.3455438532    0.1616521133
 C   -0.0265298280   -0.0209638886    0.0443981035
 C   -1.1782291923   -0.7124430197    0.0139241339
 C   -1.1968108374   -2.1695653419   -0.0068077061
 N   -2.3233813583   -2.7971817797   -0.0240914735
 C    0.1350781155   -2.7714967413   -0.0140807032
 C    1.2294037862   -1.9985403015   -0.0042802100
 O    2.4900447234   -2.4565271932   -0.0255333922
 O    1.2015960217   -0.6380018617    0.0275246807
 H    0.9556240518    1.7012903192   -0.3265731412
 H   -0.6887488517    1.8767614642   -0.0439675572
 H   -2.1250685607   -0.1878185317    0.0112394868
 H   -2.1601053994   -3.8059634168   -0.0430706433
 H    0.2595327548   -3.8465470618   -0.0327767910
 H    3.0883454632   -1.7022849188    0.0403181096