19

 O   -0.2398279049    0.2268026352    0.6017440488
 C    0.0482319722    1.0990469446   -0.1730901981
 C    1.3449061249    1.8880221105   -0.1082208635
 O    1.3466041198    2.8166364509   -1.1597256277
 C    2.5097071999    3.6178185882   -1.2085854883
 C    2.3854225477    4.5755803710   -2.3852171013
 C    3.6183857581    5.4912579952   -2.5124395898
 C    3.5197784321    6.4169800247   -3.6339483524
 C    3.4160114380    7.1708366875   -4.5640274536
 H   -0.6164141631    1.4050064863   -1.0108090791
 H    1.4124340284    2.3769591350    0.8789514244
 H    2.1915714837    1.1830904272   -0.1740623312
 H    2.6268600883    4.1769477675   -0.2640906498
 H    3.4054523170    2.9822742820   -1.3188176629
 H    2.2562713375    3.9991936962   -3.3065698877
 H    1.4842858933    5.1840321710   -2.2606045899
 H    3.7527794090    6.0598562298   -1.5825094211
 H    4.5226523837    4.8783492750   -2.6254907949
 H    3.3348130444    7.8417161322   -5.3827750519