18

 C    0.1319451596    1.5813936720    0.2114685931
 C    1.3554378003    0.7535014912   -0.0720758141
 C    2.2052135761    0.3270296284    1.1209616468
 C    1.2720031734   -0.4658229425    2.0430027069
 O    0.5321775429    0.3284385275    3.0086754345
 C   -0.7247293130   -0.2071203461    2.5329945521
 C   -0.0397576213   -0.7918038991    1.2812122086
 C   -0.0067559372    0.0843749395    0.0350253507
 H    0.0244340862    2.0049922914    1.2039953551
 H   -0.2495697074    2.2073246138   -0.5883697294
 H    1.8441552817    0.8655734636   -1.0338131921
 H    3.0228160990   -0.3220360772    0.7862827977
 H    2.6544714603    1.1679575638    1.6606353379
 H    1.7770135865   -1.3000606883    2.5455983768
 H   -1.1236658680   -0.9630950607    3.2224951968
 H   -1.4753508525    0.5747569228    2.3755949349
 H   -0.2552896088   -1.8350883771    1.0451563474
 H   -0.5194251277   -0.2720312830   -0.8512284035