21

 C    0.6935848931    0.2323267213    0.8655112931
 C   -0.1912944522    0.3250775045   -0.3560150084
 O    0.0411036002    1.0666223559   -1.2835756455
 C   -1.4386418838   -0.5642549622   -0.4055043570
 C   -1.4822439501   -1.3951681477   -1.6971429589
 C   -2.7245004826   -2.2947726230   -1.7000766621
 C   -2.7945188359   -3.1054146531   -0.3974474346
 C   -2.6669835091   -2.1749112564    0.8096707475
 O   -1.4849914455   -1.3878803567    0.7471695979
 H    1.5336812682    0.9192288294    0.7590214242
 H    0.1168029607    0.4656518115    1.7661561872
 H    1.0486477703   -0.7949675445    0.9941596431
 H   -2.3068124101    0.1215269336   -0.4027785111
 H   -1.4641909542   -0.7156641036   -2.5527405661
 H   -0.5750113839   -2.0107601199   -1.7465208616
 H   -3.6241232989   -1.6702165092   -1.7886011856
 H   -2.7159134397   -2.9587269604   -2.5706203070
 H   -3.7336275519   -3.6662597946   -0.3306641632
 H   -1.9759288754   -3.8350907133   -0.3689795975
 H   -3.5491129435   -1.5136962680    0.8685261089
 H   -2.6061216156   -2.7367420136    1.7460922766