25

 C   -0.8996107175    0.8615382730    0.6923465757
 C   -0.0198952776   -0.2647103997    0.1438933202
 C    0.7058415529   -1.0473940836    1.2425331858
 C    1.6424826742   -2.1303964601    0.7037131342
 O    2.6776560233   -1.5963389829   -0.1178988423
 C    2.2637074907   -2.9795260656    1.8156857874
 O    1.2385981089   -3.6372512461    2.5236098992
 C    1.7135132541   -4.4616357090    3.5687711905
 C    0.5241138906   -5.1157503366    4.2508000409
 H   -0.3051851127    1.5931661037    1.2516563317
 H   -1.4115671748    1.3971258436   -0.1133451563
 H   -1.6652881586    0.4724671396    1.3729924714
 H   -0.6358666092   -0.9596195796   -0.4419865919
 H    0.7216129119    0.1426690148   -0.5523312043
 H    1.2956549078   -0.3545848938    1.8649433111
 H   -0.0151935552   -1.5228376792    1.9168426265
 H    1.0771572439   -2.8007703373    0.0449381780
 H    3.1436624776   -0.9290248043    0.3985792427
 H    2.9625078342   -3.7018916685    1.3647953910
 H    2.8525627567   -2.3322809622    2.4932822395
 H    2.3984362924   -5.2266062712    3.1654895650
 H    2.2932565073   -3.8617610352    4.2910733405
 H   -0.0418825789   -5.7212371935    3.5372345690
 H    0.8605813355   -5.7631107075    5.0661245547
 H   -0.1466683476   -4.3569451887    4.6637695099