18

 C    0.0251768012    1.4971364080    0.1895184653
 C   -0.1876155413    0.0310894591    0.0441119807
 C    0.0885918917   -0.7781135561   -0.9975953559
 C   -0.3026280334   -2.2196995130   -0.7281005777
 C   -1.0754670727   -2.2015705609    0.5196496720
 N    0.0094490444   -3.1632389362    0.4928871924
 C    0.9061969360   -2.7834451836    1.6106013018
 C    0.5614175996   -1.3339460287    1.9395590155
 C   -0.4653454924   -0.9549999099    1.1599862021
 H    0.7602609077    1.7122990012    0.9762355696
 H    0.3822025725    1.9443185415   -0.7420185845
 H   -0.9023961302    2.0018482748    0.4845690973
 H    0.4843754633   -0.4537432144   -1.9534294203
 H   -0.5716719966   -2.8475097270   -1.5695823158
 H   -2.1116463146   -2.5012086927    0.6663215024
 H    0.7713941580   -3.5244590242    2.4123498198
 H    1.9621552137   -2.8270876948    1.3123524319
 H    1.3105944230   -0.6547976430    2.3353026634