16

 O    0.4691508833    0.9812394702   -1.4924861262
 C    0.2235966415    1.5849358968   -0.4693508237
 N    1.0822118138    1.7037495121    0.5782612139
 C    2.4052576290    1.1047278409    0.5603205890
 C    3.4105614304    1.9171694246   -0.2930735552
 C    4.7443839613    1.3429670556   -0.2640544700
 C    5.8470961374    0.8462937581   -0.2144406334
 C    7.0878977582    0.2900454690   -0.1633112099
 C    8.1891863540   -0.2032009089   -0.1164930257
 H   -0.7391975060    2.1000840045   -0.2816282643
 H    0.8039560881    2.2628396867    1.3681377158
 H    2.7644086627    1.0241005127    1.5887893647
 H    2.3239682965    0.0967471055    0.1464045609
 H    3.0323506312    1.9485197139   -1.3211505315
 H    3.4411243997    2.9527327256    0.0695226916
 H    9.1570141489   -0.6377043073   -0.0783854060