14

 O    0.1391097499    1.4505319163    0.3687046365
 C    0.0913553580    0.0959293296   -0.0431858647
 C   -1.3117308145   -0.4421532856   -0.0180663972
 C   -2.0344550292   -1.0290998422    1.2060339033
 C   -1.9560418957   -1.8089030663   -0.0525260242
 O   -2.9940590669   -1.3424363952   -0.9651909771
 C   -2.3751079798   -0.1012366279   -1.0292646601
 O   -2.6442709074    0.8162367306   -1.7367699302
 H   -0.3818747784    1.9617570765   -0.2611353037
 H    0.5182374394   -0.0317710737   -1.0494089049
 H    0.7226237706   -0.4633273120    0.6547783977
 H   -1.3578396600   -1.3231775096    2.0037552871
 H   -2.9914759302   -0.6332487392    1.5301603187
 H   -1.5516300758   -2.7950475612   -0.2291230712