16

 O   -0.2955285847    1.3741697528    0.5594270751
 C   -0.0410009145    0.1172899621   -0.0427737875
 C    0.6885278729   -0.8672532882    0.8936928675
 O   -0.3091353066   -1.3853774687    1.7691563818
 C   -1.4843340943   -1.5297222095    1.0160066547
 C   -1.4122743831   -0.5503384702   -0.2023593034
 N   -1.4580269677   -1.7262088813   -1.0688984714
 C   -1.4961666902   -2.6723074012   -0.0655800833
 O   -1.5173975893   -3.8710615824   -0.0754750856
 H    0.5360272548    1.7354679162    0.8811727639
 H    0.4863163168    0.2243812665   -1.0018929950
 H    1.1569394176   -1.6714325883    0.3071656709
 H    1.4598768597   -0.3909447304    1.5059223251
 H   -2.3501187671   -1.5005211683    1.6774172229
 H   -2.2122126117    0.1773424171   -0.3464400354
 H   -1.4439156825   -1.8194500763   -2.0742426503