21

 C   -0.4653324635    1.4787305549   -0.1143451337
 C    0.0823361594    0.0590886944   -0.0679311827
 C    1.5442942554   -0.2030009671   -0.4880922130
 O    1.7959331966   -0.9748108321    0.7084857180
 C    0.5262159616   -0.5844331051    1.2781488309
 C    0.7137336365    0.3070114037    2.4894491371
 C    1.7169084207   -0.2138771551    3.5468661619
 C    2.5462501349    1.0261313220    3.1640139939
 O    1.5445445597    1.4620600601    2.2188781088
 H    0.1912285635    2.1761261568    0.4097704420
 H   -0.5678655186    1.8114134156   -1.1533070337
 H   -1.4598780164    1.5332430145    0.3423510329
 H   -0.5968930362   -0.6179834114   -0.5944280053
 H    1.7036251978   -0.7959171086   -1.3958767464
 H    2.1687764303    0.6980423653   -0.5228768372
 H   -0.0588602595   -1.4625988177    1.5904116929
 H   -0.2680997177    0.6066653133    2.8831756135
 H    1.3444079420   -0.2338304318    4.5716167211
 H    2.1770281737   -1.1703231020    3.2981940952
 H    2.6995891789    1.7656064400    3.9589580039
 H    3.5020137710    0.8178463302    2.6712095598