20

 C    0.0508537913    1.6192599322   -0.2220132756
 C    0.0815086558    0.0911651669   -0.1580130557
 C   -1.3003538474   -0.5122611608    0.1649712661
 C   -1.2979516442   -2.0023905203    0.2099982922
 C   -1.4479159876   -2.9203517417    1.2100103222
 C   -1.6967354957   -2.7038651611    2.6696545727
 C   -1.3091470404   -4.1606812952    0.5213131623
 N   -1.0964056360   -4.0106408794   -0.7606349306
 O   -1.0883149497   -2.6344743046   -0.9647913327
 H    1.0407229424    2.0242207764   -0.4524600577
 H   -0.6411071418    1.9698893158   -0.9956687203
 H   -0.2722430751    2.0518987484    0.7315856014
 H    0.4300590894   -0.3189948703   -1.1118949134
 H    0.8005123576   -0.2387092190    0.6013048733
 H   -1.6553501709   -0.1329815402    1.1291639844
 H   -2.0239797533   -0.1788084064   -0.5898631398
 H   -2.6157180413   -3.2009411630    2.9993939262
 H   -0.8784710802   -3.0990501496    3.2820980493
 H   -1.7962695567   -1.6404685549    2.9025909368
 H   -1.3611220459   -5.1616086532    0.9289079989