16

 N   -0.0124495076    1.2326787810    0.0510435775
 C   -0.0601571530   -0.0166620774    0.0115732263
 O    0.9625859137   -0.9719441965    0.0207182170
 C    0.0547090668   -2.0746628899   -0.2975526181
 C   -0.3464903371   -2.9195817457    0.9328816531
 C   -1.4931765930   -1.9122683034    1.2188059700
 C   -2.8215549735   -2.0696522092    0.4308168826
 O   -2.4015379710   -1.1072519104   -0.5862468930
 C   -1.1169481447   -1.0743652464   -0.0373683835
 H    0.9500396281    1.5712729346    0.0955112748
 H    0.3059663281   -2.5313993888   -1.2543062605
 H   -0.6734897048   -3.9351708295    0.6929318874
 H    0.4277045939   -2.9669421368    1.7013949842
 H   -1.5812875442   -1.4701888383    2.2094953127
 H   -2.9993343012   -3.0605366531   -0.0029799200
 H   -3.7225090108   -1.7225429203    0.9436113595