17

 C   -0.1870869172    1.4969526576    0.0978439295
 C    0.0171382063   -0.0041584343    0.0086881074
 O    1.1223918053   -0.5120545230   -0.0407782216
 C   -1.1815244035   -0.8452484954   -0.0169699952
 C   -1.3342157244   -2.2026347080   -0.0912727519
 C   -2.7330910866   -2.4535708780   -0.0798222806
 C   -3.3485029473   -1.2338043841    0.0008771761
 C   -4.7736896014   -0.8160440289    0.0505182046
 O   -2.4174264867   -0.2495311112    0.0397799658
 H    0.7871147671    1.9861889934    0.1067627731
 H   -0.7787200322    1.8567911892   -0.7503444964
 H   -0.7443495625    1.7569460372    1.0038692826
 H   -0.5270087939   -2.9152065037   -0.1465972199
 H   -3.2298568119   -3.4102476873   -0.1249706487
 H   -4.9951322867   -0.2631011266    0.9701569292
 H   -5.0273281188   -0.1637315501   -0.7925420933
 H   -5.4206957256   -1.6946422968    0.0127531895