21

 C    0.0195842592    1.5187311042   -0.1184955593
 C    0.0660050893    0.0209863200   -0.0295403347
 C   -0.8121801599   -0.7820984161    0.8911081239
 C    0.6832244432   -0.8896435568    1.0351895995
 C    1.2416813933   -1.8254965721   -0.0497554395
 C    0.6136712888   -0.8937272406   -1.1373214817
 C    2.7462911827   -1.9377061461   -0.0702638330
 C    3.5334839594   -2.0584873099   -1.3021729135
 O    3.5035369482   -0.8306683071   -0.5689782203
 H    0.9813701543    1.9245487472   -0.4517130243
 H   -0.7475608358    1.8520836024   -0.8285930400
 H   -0.2155741584    1.9662660408    0.8530258921
 H   -1.3125533121   -0.2111016456    1.6677042051
 H   -1.3902640675   -1.6279455842    0.5219762542
 H    1.1959364130   -0.6219542600    1.9528343336
 H    0.8317888595   -2.8438302532   -0.0090914738
 H   -0.1227421614   -1.3428718601   -1.8119241528
 H    1.3897082508   -0.3956025730   -1.7225788984
 H    3.1723295416   -2.3780118360    0.8344733377
 H    4.4852809276   -2.5874494389   -1.2892140854
 H    3.0287742443   -2.0355597949   -2.2671338594