19

 C    0.0266380359    1.4566606655   -0.2036007575
 C    0.0316664938   -0.0606857915    0.0695443279
 C    0.8571536569   -0.3607532861    1.3104649725
 O    1.8307556084   -1.0667971974    1.3325044237
 C   -1.3730622295   -0.5830263165    0.2289791601
 C   -2.4111560372   -0.3053075794    1.3387994217
 C   -3.0454844118   -1.7075165241    1.0262422415
 C   -1.9852639512   -1.8922507215   -0.0656690170
 O   -2.1265316500   -0.7876285220   -0.9739316710
 H    1.0397360001    1.8235005291   -0.3905708940
 H   -0.5888718721    1.6731837812   -1.0803698260
 H   -0.3851669229    2.0115307312    0.6463331090
 H    0.4965883097   -0.5929268602   -0.7656114174
 H    0.4992353333    0.1491342123    2.2362279693
 H   -1.9849310085   -0.2568117814    2.3437386973
 H   -3.0404497079    0.5706219247    1.1668915400
 H   -2.9369509034   -2.4089896274    1.8565093402
 H   -4.0786572651   -1.7139103962    0.6724417152
 H   -1.5555635183   -2.8040037703   -0.4651235956