15

 C    0.0628639356   -1.1902582926    0.0014078121
 C   -0.0165896524    0.0123440225    0.0256049635
 C   -0.0465847444    1.4269490174    0.0590555551
 C   -1.1388402625    2.2065593281    0.0588512675
 C   -0.7968003875    3.6730137655    0.0465036603
 C    0.7178254617    3.6867242622    0.3783163897
 C    1.2266454577    2.2629426434    0.0462293909
 H    0.1146333368   -2.2503078058   -0.0220987191
 H   -2.1558114912    1.8333107591    0.0296800667
 H   -1.0049018520    4.1055069766   -0.9433339696
 H   -1.3904342513    4.2543405056    0.7611309650
 H    1.2622617328    4.4649623293   -0.1618065851
 H    0.8517993348    3.8799147659    1.4471125060
 H    1.9696925373    1.8982900116    0.7620784143
 H    1.6966467946    2.2103585114   -0.9447320575