17

 N   -0.0823831934   -1.1885391420   -0.0906356086
 C   -0.0387608591   -0.0340782203   -0.0367848157
 C   -0.0061651252    1.4178685636    0.0129688841
 C    0.0541587311    2.1192883976    1.4178994789
 C    1.5349447135    1.6304122335    1.5297062590
 C    1.3889444957    2.1395592104    0.0610602186
 C    0.6159382302    3.3321248590    0.6546294763
 C    0.0291257850    4.5703546762    0.1288994077
 N    1.1498279229    4.5841365130    1.1217884394
 H   -0.7292884764    1.8382157895   -0.6900567595
 H   -0.7257277489    2.0963650227    2.1792073757
 H    2.1895528996    2.2181945798    2.1741207846
 H    1.6840427847    0.5577404757    1.6621027618
 H    2.1380533647    2.1442117386   -0.7287606637
 H    0.2979756839    4.9450146884   -0.8548308285
 H   -0.9617922829    4.8610718446    0.4692279829
 H    0.7950689045    4.8165929796    2.0467716471