20

 C    0.0139104570    1.4815608131   -0.0314307084
 C    0.0187064983    0.0253877343   -0.0187819573
 C    0.0277783674   -1.1787526101    0.0004099804
 C    0.0245012056   -2.6418276880   -0.0055102403
 C   -1.4023248418   -3.1852315188    0.2162679355
 C    0.6695889339   -3.1592354252   -1.3137978644
 C    0.8815494976   -4.6871333666   -1.3226971043
 C    1.5760375922   -5.1395067287   -2.5259372249
 N    2.1252443231   -5.4813489734   -3.4835075066
 H    0.6265214396    1.8886830666    0.7805064668
 H    0.4122493230    1.8721535411   -0.9742814432
 H   -1.0005279534    1.8775129848    0.0884688753
 H    0.6504646537   -2.9879616395    0.8307995770
 H   -1.4065419229   -4.2750252076    0.3130730632
 H   -1.8303240907   -2.7665184524    1.1302135426
 H   -2.0533954493   -2.9081846156   -0.6187137582
 H    0.0452751404   -2.8709188001   -2.1658749876
 H    1.6360786345   -2.6664156279   -1.4508568527
 H    1.4690987889   -4.9935835780   -0.4485735263
 H   -0.0742011372   -5.2177969880   -1.2617632167