18

 O    0.0751601470    1.0194693918    0.8632064643
 C   -0.0800898536    0.1289936356   -0.2341910445
 C   -1.4613440935   -0.4396705229   -0.1697192663
 C   -2.7061984537    0.3590905489    0.2697776378
 C   -2.2812538947   -0.8804638713    1.0048423512
 N   -3.1527345078   -1.7200408515    0.0774441921
 C   -3.7843307493   -0.4262356628   -0.4901248773
 C   -3.2502438496   -0.7770648057   -1.8899100904
 C   -2.1502210340   -1.4768493426   -1.0722599366
 H    0.9771329903    1.3522023719    0.8554644714
 H    0.0667714018    0.6500617011   -1.1960373164
 H    0.6621621979   -0.6854186830   -0.1908997375
 H   -2.6520770225    1.3952130619    0.5729736492
 H   -2.0545378631   -1.0938971318    2.0412220644
 H   -4.8382839407   -0.2333089542   -0.2884164659
 H   -3.8932122256   -1.5047008578   -2.3926292823
 H   -2.9751332479    0.0316989267   -2.5714706044
 H   -1.5787816010   -2.3268523042   -1.4481675588