18

 C   -0.1816551610    1.4397348890   -0.1456598405
 C   -0.0416276401   -0.0795637157   -0.0062160680
 C    0.7600579902   -0.4611700908    1.2406351527
 O    2.0634694206    0.0793148827    1.1031718861
 C   -1.3973930166   -0.7853168274    0.0250339846
 O   -2.0906556941   -0.5849779697   -1.2129703268
 C   -3.3163684427   -0.0309321255   -1.1838152619
 O   -3.9655387028    0.1570476783   -2.1678517362
 H    0.8040286796    1.9085087172   -0.1399423298
 H   -0.6876260904    1.7058619911   -1.0770436744
 H   -0.7588860723    1.8582682354    0.6887691928
 H    0.5104387110   -0.4651118969   -0.8726110683
 H    0.2573165576   -0.0654322213    2.1396203676
 H    0.7955540691   -1.5585085222    1.3401500589
 H    2.5550350154   -0.1052054924    1.9085095829
 H   -1.2731755557   -1.8665401558    0.1505829868
 H   -2.0114556998   -0.4141588567    0.8580538070
 H   -3.6463562681    0.2253448908   -0.1574163334