23

 C   -0.9771198923    0.9526603944   -0.0047933371
 C    0.1445377639   -0.0844109683    0.0055875123
 C    1.2222150776    0.1109492860   -1.0914396275
 C    2.4360436998   -0.5509429219   -0.4883788551
 C    2.2912537650   -0.7573450636    0.8210947128
 C    3.2876487641   -1.3837126890    1.7427634966
 O    4.4556655139   -1.7398326406    1.0238335022
 C    0.9593042462   -0.2271973155    1.3313211944
 C    1.1368881950    1.0797728099    2.1281029363
 H   -0.5954643880    1.9693927945    0.1342409298
 H   -1.5096082088    0.9314628602   -0.9618700494
 H   -1.7128168521    0.7605565695    0.7841757218
 H   -0.3051338348   -1.0689251337   -0.1754993639
 H    0.9196458587   -0.3294683534   -2.0489203781
 H    1.4091698453    1.1771035028   -1.2926120815
 H    3.3251726683   -0.8050499081   -1.0514901493
 H    3.5244973232   -0.6838479124    2.5635949127
 H    2.8276486175   -2.2677062096    2.2215255239
 H    5.0735212909   -2.1418990674    1.6405537822
 H    0.4682651441   -0.9527587902    1.9949674174
 H    1.6125307460    1.8560075791    1.5195734376
 H    0.1760621032    1.4656597123    2.4825482306
 H    1.7684339134    0.9185813850    3.0077064512