24

 C    0.8850380369   -0.3169108816   -1.0882364507
 C   -0.0203348382    0.0655738149    0.0910808118
 C   -0.1589999647    1.5914193110    0.1894414109
 C   -1.4133602088   -0.5866267337    0.0006937799
 C   -1.4583952269   -2.1251935392    0.0196346814
 C   -0.8785154161   -2.7280815970    1.3061057644
 C   -2.8986998791   -2.5970443220   -0.1931250216
 O   -2.8970758010   -4.0111696550   -0.3365391873
 H    1.8580336368    0.1794985413   -1.0096090448
 H    1.0685832599   -1.3942052037   -1.1374578169
 H    0.4344204505   -0.0121463134   -2.0408920499
 H    0.4622907388   -0.2808145567    1.0145510511
 H   -0.6343991914    2.0014840751   -0.7100388016
 H   -0.7710782496    1.8824759134    1.0498187595
 H    0.8190178795    2.0727381932    0.2948911859
 H   -2.0257701985   -0.2109280505    0.8332933427
 H   -1.9000272438   -0.2279051558   -0.9182678444
 H   -0.8847756565   -2.5114564973   -0.8328886654
 H   -1.0267094253   -3.8101941109    1.3147793685
 H    0.1927539831   -2.5304470032    1.4035664038
 H   -1.3763457023   -2.3098985622    2.1902484992
 H   -3.5180861008   -2.2866686390    0.6655436109
 H   -3.3162100308   -2.1129326780   -1.0906680246
 H   -3.8091025517   -4.3090801897   -0.3942139828