19

 O   -0.7075518670    0.8029772902    0.7075925749
 C    0.0592802263    0.9942081062   -0.2001326198
 C    1.2705385497    1.9007913593   -0.1372930916
 C    1.2320859645    2.9730666224   -1.2057664707
 C    0.2085724877    4.1165308852   -1.3836224760
 C    1.2111177945    4.3169254880   -2.5344880511
 C    2.4337519624    3.8863772627   -1.6539299412
 C    2.9226597536    2.8672605704   -2.7010644730
 C    1.3852913461    2.7771256753   -2.7652022489
 H   -0.0860668018    0.4963151003   -1.1872638943
 H    1.3268817917    2.3386757627    0.8643647093
 H    2.1618260342    1.2739152606   -0.2897323702
 H   -0.8118009265    3.8295830489   -1.6593099864
 H    0.1918113791    4.8837885840   -0.6023183935
 H    1.2259602980    5.0812038076   -3.3121739299
 H    3.0123842772    4.5385409597   -0.9970097828
 H    3.4267082619    3.2750077843   -3.5828010135
 H    3.4607717224    1.9884106338   -2.3306337712
 H    0.7541520259    2.1524057483   -3.4000272203