21

 C   -0.2023119362    1.5484155553   -0.0109181890
 C    0.0648484877    0.0438279215   -0.0080666434
 O   -1.1780548704   -0.6735743874    0.0316870080
 C    0.9045278682   -0.4443255152   -1.2109200753
 C    1.4788705407   -1.7799159801   -0.7317946324
 C    1.9387737476   -1.4443851352    0.7102164671
 C    0.8539047866   -0.4496377743    1.2339980580
 C    2.1513099676   -2.6041949845    1.5624650289
 C    2.3185173790   -3.5669481577    2.2633994825
 H    0.7314187477    2.1192509561    0.0150295413
 H   -0.7482037985    1.8457143407   -0.9149594139
 H   -0.8064496274    1.8291557693    0.8568828836
 H   -1.6872182025   -0.4193342187   -0.7459712425
 H    0.3013659913   -0.5238288484   -2.1215192985
 H    1.7154015993    0.2668025549   -1.4150425930
 H    0.6875624596   -2.5337917155   -0.6960156703
 H    2.2934078921   -2.1649766720   -1.3497488874
 H    2.8901369537   -0.9010850957    0.6326934931
 H    1.3136694454    0.3781610756    1.7788535061
 H    0.1571452758   -0.9483092176    1.9092772879
 H    2.4660169828   -4.4158387109    2.8835022790