17

 C    0.0511401324    1.5407664868   -0.1397656689
 C    0.0442747164    0.0356051876   -0.0932770377
 C    0.5303779307   -0.9770141364   -1.1318758735
 N    0.0410839167   -1.9283239613   -0.0451783561
 C    0.5538063114   -0.9375126606    1.0261521224
 C   -0.7980788692   -1.0170548989    1.7652918787
 C   -1.2055311713    0.0745763247    2.6307589925
 N   -1.5312234669    0.9421265115    3.3226650975
 C   -1.1209636601   -0.9536056849    0.2579870758
 H    1.0737071087    1.9163188480   -0.2546542596
 H   -0.5344608839    1.9008598384   -0.9925765674
 H   -0.3707783892    1.9748611890    0.7706410729
 H   -0.0286666920   -1.0643797005   -2.0694965544
 H    1.6069648688   -1.0486669280   -1.3192855820
 H    1.5579921762   -1.0297096189    1.4419245810
 H   -1.0005055588   -1.9875513845    2.2269573660
 H   -2.0895690100   -1.0647619219   -0.2310978571