21

 C   -0.1846788902    1.5878304226    0.0575077993
 C    0.0592705660    0.0813449855    0.0319906792
 C    1.1791449564   -0.5276798870   -0.8890297452
 O    2.1021333956    0.3617868703   -1.5233221613
 C    1.7918185295   -1.2436424297    0.3033357000
 C    2.1649069483   -0.2517625821    1.3618668752
 O    2.7320990839    1.0004076091    1.1030108011
 C    0.7094711485   -0.6096546025    1.2428305705
 C   -0.0738996297   -1.2424843250    2.3579743848
 H    0.7158392919    2.1351997226    0.3373451191
 H   -0.5333411772    1.9482746695   -0.9186428978
 H   -0.9653688535    1.8337629368    0.7854260410
 H   -0.8798136553   -0.4309400553   -0.2089304072
 H    0.7622677785   -1.2145803560   -1.6344289237
 H    1.6179833545    0.9027431166   -2.1563680010
 H    2.1922655938   -2.2507867018    0.2757648106
 H    2.6309840410   -0.7103072851    2.2330184494
 H    2.8110755903    1.0750738901    0.1410590751
 H   -0.5635942413   -0.4808699385    2.9770608383
 H   -0.8557744298   -1.9084513761    1.9733691425
 H    0.5732949890   -1.8322066240    3.0155305801