19

 O    0.7144057350    0.6185406407   -0.7508285340
 C    0.0032606721   -0.2394300826    0.1010080328
 C    0.0920219451   -0.0469605880    1.6442617094
 C   -1.4112690543   -0.3442264020    1.6997296745
 C   -1.5498784010   -0.1289291799    0.1854806620
 C   -2.1281130367   -1.4664402053    2.4191367069
 C   -1.6446756672   -1.5237285562    3.8639656329
 O   -1.8797791941   -0.1001432499    4.0470363942
 C   -2.4307978074   -0.0115420058    2.7287050343
 H    0.5015335023    1.5257112476   -0.5066455768
 H    0.3041420772   -1.2509036471   -0.1847342892
 H    0.7733300410   -0.7009606850    2.1935430767
 H    0.3138845440    0.9927878054    1.9115885763
 H   -1.8916524113    0.8836587843   -0.0617431898
 H   -2.1389414591   -0.8470354963   -0.3908688548
 H   -2.7126448291   -2.2200136527    1.9070558531
 H   -2.2982999980   -2.1057195515    4.5233182923
 H   -0.5984166872   -1.7995364202    4.0433561647
 H   -3.3054036713    0.6138223744    2.5822782444