23

 O   -0.7556848417    0.9479246015    0.8656307629
 C   -0.0117775211    1.0474867291   -0.0758956110
 C    1.2775511915    1.8336192997   -0.0901111102
 C    1.2855558580    2.8962360668   -1.2055171782
 C    2.6003042928    3.6744609221   -1.3051418535
 C    3.8343058475    2.8270914291   -1.6971132625
 C    4.8299198171    3.8081066989   -2.3816941859
 C    4.0754927476    5.1573190559   -2.5134231710
 C    2.5915061426    4.7891919394   -2.3661008498
 H   -0.2485973291    0.5457047442   -1.0450717887
 H    1.4229503553    2.2848011344    0.8961277834
 H    2.0954177069    1.1201047787   -0.2641872508
 H    1.0819271719    2.4119869120   -2.1711735825
 H    0.4600780055    3.5982317250   -1.0321958143
 H    2.7970444099    4.1435852834   -0.3298806366
 H    4.2793276441    2.3160839502   -0.8389587571
 H    3.5276847717    2.0455416291   -2.4035840207
 H    5.7518550745    3.9219146846   -1.8049838970
 H    5.1245983191    3.4283017325   -3.3644022450
 H    4.3658092964    5.8319423608   -1.6997632118
 H    4.2972253063    5.6760416637   -3.4501034937
 H    2.2024049118    4.3897023762   -3.3129585630
 H    1.9599858813    5.6387627326   -2.0881936530