21

 C   -0.3013667140    1.4926733698    0.0493139700
 C    0.0832219208    0.0044819756    0.0536671847
 C    0.7895597640   -0.4428078335   -1.2124622751
 C    2.0943698375   -0.7851752882   -1.1922702245
 C    2.8082971729   -1.3564793246   -2.3909363225
 C    2.8788810078   -0.2969642939   -3.4616755552
 C    1.7699787813    0.1607000710   -4.0710239161
 C    0.4178010145   -0.1742771921   -3.6859902802
 C   -0.0102023735   -0.4509132488   -2.4261185559
 H    0.5892785561    2.1231344572   -0.0380182190
 H   -0.9574255835    1.7298094190   -0.7940819267
 H   -0.8234331103    1.7659569751    0.9719631251
 H    0.7191406685   -0.2075213952    0.9195385008
 H   -0.8263314989   -0.5986389373    0.1831634386
 H    2.6607375645   -0.6617255659   -0.2720010171
 H    3.8076513421   -1.7029778724   -2.1171877215
 H    2.2502074157   -2.2229537148   -2.7737715800
 H    3.8530141590    0.0888392616   -3.7499045608
 H    1.8763120744    0.8462818808   -4.9092535484
 H   -0.3414378572   -0.0882293488   -4.4607187512
 H   -1.0843119017   -0.5631169043   -2.2836263250