16

 C   -0.0000191779    1.3619363200   -0.0662447116
 N    0.0715601489   -0.0762288268    0.0355369612
 N    0.0319159480   -0.8198550266   -1.1077652555
 C    0.0156825459   -2.0719178028   -0.6790392266
 O   -0.0066907303   -3.1137325722   -1.5382356745
 C    0.0332596380   -2.1649765216    0.7263184130
 C    0.0630777083   -0.8490859849    1.1535473810
 C    0.0848855464   -0.2878778361    2.5381415039
 H    0.4585145793    1.8194173380    0.8127137062
 H    0.5458733139    1.6739907693   -0.9580146689
 H   -1.0359137461    1.7133851826   -0.1483395573
 H   -0.0110021321   -2.7404995505   -2.4285655048
 H    0.0371936259   -3.0536825078    1.3347557679
 H    0.9728923901    0.3291547923    2.7187787031
 H   -0.7939738419    0.3331806989    2.7465862111
 H    0.0954229537   -1.1030914317    3.2643064519