22

 C   -0.2670593786    1.5127359498   -0.4387421394
 O   -0.1325027385    0.2662089117    0.2124305276
 C   -1.2520565617   -0.5470657040    0.0582637541
 C   -1.4463491584   -1.5110211394   -1.1685129543
 C   -0.3107647086   -2.4386237682   -0.6197321259
 C    1.1823316765   -2.1597189755   -0.7476847730
 C   -1.2020874607   -2.0001420476    0.5924737298
 N   -2.4549512419   -2.1810957759   -0.2522978422
 C   -2.9357924319   -3.5216420450   -0.5585065042
 H    0.6185387966    2.1035603764   -0.1944523124
 H   -0.3314563412    1.4001706850   -1.5308054947
 H   -1.1628594091    2.0503710111   -0.0931230914
 H   -2.1754070619   -0.0179027263    0.3238750001
 H   -1.6967349174   -1.2655233597   -2.2033135053
 H   -0.4800388286   -3.4835708107   -0.8880214631
 H    1.4554812022   -1.1455081759   -0.4664687260
 H    1.7435600830   -2.8570723060   -0.1146302649
 H    1.5050363118   -2.3374926388   -1.7805452865
 H   -1.1621188904   -2.3279122922    1.6337076992
 H   -3.4484134031   -3.9110718182    0.3275020722
 H   -3.6782577993   -3.4425906878   -1.3597244979
 H   -2.1886536086   -4.2682212228   -0.8676769520