17

 C   -0.3072887414    1.5710994579   -0.0679920726
 C    0.0876492296    0.0885001994    0.0552220654
 C    0.7674015023   -0.4370888594   -1.1756140257
 C    2.0990264926   -0.7515722115   -1.3478598238
 O    2.3192821821   -1.1784532800   -2.6304490752
 C    1.1360218288   -1.1331670749   -3.2661043551
 C    0.1484403209   -0.6894283348   -2.4383654660
 C    3.2305566727   -0.7061277098   -0.4402315075
 O    4.3700646119   -1.0098508578   -0.7196505071
 H    0.5761241052    2.1989281689   -0.2172811962
 H   -0.9781500118    1.7324420049   -0.9172816875
 H   -0.8194349224    1.9094791319    0.8375347829
 H    0.7327966534   -0.0458627761    0.9283302024
 H   -0.8125345929   -0.5090058415    0.2439907573
 H    1.1447604902   -1.4470980208   -4.2979951869
 H   -0.8931687199   -0.5630874754   -2.6909360864
 H    2.9571701889   -0.3534252311    0.5775752519