19

 C    0.1461444702    1.6082994903   -0.3865493583
 C    0.2402190912    0.1149832271   -0.1322654419
 C    1.4913365497   -0.7340167856   -0.4133599856
 C    2.6965758266   -0.0400411431    0.1392106403
 O    3.7721351973    0.2515757812   -0.3079232719
 C    2.1205469808    0.0166074044    1.5802134132
 C    2.1313487770    1.2763750480    2.4370935807
 C    0.8374854394   -0.6052432927    1.0202364584
 O    0.1770273908   -1.5364397853    1.7890333872
 H    1.0850181786    2.1220047059   -0.1713824336
 H   -0.0911862816    1.7927860137   -1.4396160139
 H   -0.6426239216    2.0666421893    0.2201070639
 H   -0.6393123107   -0.4222468997   -0.4973127870
 H    1.4801283694   -1.5167823414   -1.1625232618
 H    2.6483599374   -0.7872301399    2.1132143281
 H    1.5671049980    2.0954809932    1.9858833404
 H    1.7020149633    1.0769694439    3.4240331891
 H    3.1616044542    1.6166533408    2.5814504090
 H   -0.7231357400   -1.6374368300    1.4636288037