20

 O    0.0564580974    1.4548855889    0.0047538815
 C    0.0617896699    0.0295734106    0.0230152469
 C    0.6622444002   -0.5285414396    1.3548971074
 C   -0.5087278418   -0.5476794376    2.3887499716
 C   -1.7275796673   -0.7226213731    1.5143245589
 C   -3.0769256269    0.0119822920    1.3951496861
 C   -2.7106144352    0.3598087334   -0.0976201788
 C   -1.3856138322   -0.3957449170    0.1037944829
 N   -1.7186560370   -1.7799728447    0.4819276832
 H    0.9664452718    1.7523021542   -0.0894170143
 H    0.6058079217   -0.3576491803   -0.8522150392
 H    1.0710550405   -1.5332878090    1.2002694016
 H    1.4974939810    0.0954202165    1.6866193859
 H   -0.3669322160   -1.3191387701    3.1538192926
 H   -0.5723733633    0.4159856303    2.9053666389
 H   -3.9654296142   -0.6027480019    1.5564568362
 H   -3.1293009124    0.9017761105    2.0265571067
 H   -3.3675121080   -0.0415386396   -0.8725966877
 H   -2.5585552544    1.4278884712   -0.2520757502
 H   -0.8644978238   -2.3249401245    0.5675898696