21

 C    0.1918316157    1.6786144012    0.1213651691
 C    0.1620496254    0.1651086401    0.1249494860
 C    1.3084879800   -0.7479514505   -0.3009511170
 C    2.7339714199   -0.2187158380   -0.3528869452
 C    3.1069465984    0.2537184127    1.0859806607
 O    3.2322720804    1.6713018341    1.2075800897
 C    1.9616729270   -0.2139709811    2.0137365010
 C    0.8340812273   -0.7406707770    1.1291564517
 O    0.1238397627   -1.8480350960    1.6127977585
 H    1.1505389715    2.0788719383    0.4550894097
 H   -0.0049050447    2.0623570994   -0.8866947072
 H   -0.5880969026    2.0804839977    0.7788818444
 H   -0.7953657357   -0.2498599910   -0.1855948727
 H    1.0492606070   -1.5821289602   -0.9436982507
 H    3.4066579184   -1.0217661247   -0.6729257675
 H    2.8644258132    0.6071299589   -1.0629495059
 H    4.0559578163   -0.2052873522    1.3948050757
 H    3.9187315762    1.9597558558    0.5974117792
 H    2.2891525520   -1.0454797343    2.6446964948
 H    1.6691903340    0.6087756898    2.6741406085
 H   -0.5634547623   -1.5232715128    2.2042329674