20

 C   -0.1184489259    1.4982854141   -0.0449068772
 C    0.0416754797    0.0062183300    0.0042457912
 C    0.7472192639   -0.8195225485   -1.0602608600
 C   -0.2517896133   -1.9724719716   -0.6952479881
 C   -0.9652053845   -2.6999271924   -1.8098085767
 C    0.3965152830   -2.8019939231    0.3925232378
 C    0.4352448562   -2.0752210834    1.5090181530
 C   -0.2672384126   -0.7892977810    1.2531990907
 N   -1.1280556899   -0.9448573460    0.0543282579
 H    0.8333690512    1.9972921364    0.1718640478
 H   -0.4538292648    1.8274652829   -1.0346076468
 H   -0.8536947595    1.8380292280    0.6907195962
 H    0.5258229041   -0.4132989853   -2.0514611539
 H    1.8209095749   -1.0128300879   -0.9748509613
 H   -0.2654594555   -3.3211516995   -2.3800174290
 H   -1.7496487016   -3.3475991162   -1.4053020104
 H   -1.4335931386   -1.9904553938   -2.4982751200
 H    0.8686405922   -3.7601985960    0.2130994992
 H    0.9090218890   -2.3291335680    2.4483051226
 H   -0.7141857980   -0.2337484588    2.0730741269