18

 C    0.0035122409    1.5423364874    0.1588920715
 C   -0.0466451209    0.0251515440   -0.0328460443
 C    0.6997180070   -0.4965372363   -1.2792197827
 C    0.5810455539   -2.0250073620   -1.3870964601
 N    0.1991581026    0.1390266321   -2.5106068043
 C    1.1920131447    0.7334138603   -3.0207690840
 O    2.4074246570    0.6722735569   -2.3788397189
 C    2.1789623440   -0.0953677151   -1.2348094505
 O    3.0359858843   -0.3356946317   -0.4445628894
 H    1.0315355055    1.8989868482    0.2841800937
 H   -0.4400079976    2.0636834637   -0.6938223496
 H   -0.5531376184    1.8296478863    1.0553147740
 H    0.3883646036   -0.4776225824    0.8379034954
 H   -1.0864664061   -0.3082256202   -0.1167745057
 H   -0.4732951895   -2.3069725771   -1.4416668141
 H    1.0822913645   -2.3968534951   -2.2848078432
 H    1.0370510148   -2.4962982619   -0.5125099319
 H    1.2017809798    1.3064229830   -3.9403508759