21

 C    0.4553754023    1.4135094694   -0.2885339350
 C   -0.1013877398    0.0398454566    0.0861758963
 O    0.0949263127   -0.9110765643   -0.9739802275
 C    1.2601014853   -1.6958691525   -0.7196865966
 C    1.4748017652   -1.6747769651    0.7808918737
 C    0.5910841070   -0.5521764682    1.3026291209
 C    0.3020291340   -1.9740669475    1.6942771583
 C   -0.9254454581   -2.7407069218    1.2574047830
 O    0.6607337433   -2.2045466264    3.0386565496
 H    1.5440618235    1.3801102512   -0.4000020586
 H    0.0209398833    1.7474310003   -1.2346221560
 H    0.2143832184    2.1522493048    0.4832912122
 H   -1.1885323833    0.1138320935    0.2162827827
 H    1.0720559175   -2.6920682894   -1.1371706366
 H    2.1421541911   -1.2782964967   -1.2297382205
 H    2.4727764258   -1.8272922418    1.1751656132
 H    0.9355467641    0.1142533023    2.0845341954
 H   -1.2070805699   -2.5031631408    0.2306853727
 H   -0.7409832479   -3.8210144908    1.3179607496
 H   -1.7651617655   -2.5096627193    1.9206604760
 H    0.8940524109   -3.1360278935    3.1219957872