15

 O   -0.1570907225    1.2920730929   -0.1352548324
 C    0.0393908274   -0.0610290234   -0.0765142243
 C    0.9689677469   -0.9213089698   -0.9330765007
 C    0.1306240243   -2.1124000254   -0.4087843601
 N    0.4913812410   -2.1372736056    1.0535336483
 C   -0.2941518938   -0.8955986822    1.1573597721
 C   -1.0789618828   -1.1086883524   -0.1367881058
 C   -2.4419279668   -1.0445443677   -0.4887151567
 N   -3.5640058157   -1.0162255228   -0.7787715668
 H    0.4202573064    1.7228792624    0.5054157474
 H    0.8008450291   -0.7350725916   -1.9957431690
 H    2.0357557324   -0.9441249945   -0.6950579200
 H    0.0729934217   -3.0597622132   -0.9366279768
 H   -0.0539706217   -2.8785821116    1.4931682319
 H   -0.6299272057   -0.4534319052    2.0867149028