18

 O   -0.0304907417    1.3646123865   -0.0849642502
 C   -0.0487381051   -0.0470806000    0.0240356835
 C   -1.4579228613   -0.5182881369    0.0738343007
 C   -2.6183582526    0.1545102074    0.0654785062
 C   -3.6505335450   -0.9675686582    0.0141619451
 N   -3.1141798229   -2.0181882355    0.9532798976
 C   -1.9246288637   -1.9743842671    0.0329021097
 C   -3.0156984386   -1.8791034673   -1.1190609035
 O   -3.6869262894   -3.0486475016   -1.4370941202
 H    0.8858558641    1.6548181394   -0.0617119404
 H    0.4641219389   -0.5263764077   -0.8294775340
 H    0.4880561568   -0.3863959362    0.9283927756
 H   -2.7921856052    1.2181608498    0.0092018791
 H   -4.7156932264   -0.7406069265    0.0562341616
 H   -2.9037605094   -1.6374870901    1.8775100491
 H   -1.2002490568   -2.7883268461    0.0902197423
 H   -2.7188776714   -1.3836879613   -2.0439073433
 H   -3.9301095205   -3.4417121983   -0.5858639390