15

 O    0.1063971882    1.2859626472    0.5283570475
 C    0.0482164909    0.0024220587   -0.0762383462
 C   -1.3616285322   -0.5291924535   -0.1453394794
 C   -1.8922023119   -1.2720393292   -1.1339089770
 C   -3.2554503767   -1.7492794809   -0.9953000203
 N   -3.8195979498   -2.4999852476   -1.8626840999
 N   -3.9764452672   -1.3223806285    0.1756652871
 N   -3.4483355294   -0.6096809988    1.0680242541
 N   -2.1507835923   -0.2404475132    0.9431005815
 H   -0.2785621385    1.9245031510   -0.0821828008
 H    0.4927615123   -0.0153131755   -1.0790645783
 H    0.6539696827   -0.6476588013    0.5656813059
 H   -1.3269861207   -1.5329528758   -2.0197358479
 H   -4.7745501019   -2.6972928559   -1.5539190979
 H   -1.8252447336    0.3992056333    1.6517226716