17

 O   -0.0578015804    1.3858043405    0.2025588267
 C    0.0417908140    0.0020535011    0.0260600392
 C   -0.5020560374   -0.5951084561   -1.2430484464
 C   -1.2839799582   -0.7389930940    0.0632606742
 C   -1.3596898266   -2.0337094517    0.7924345731
 O   -2.4055660604   -2.4520003000    1.2391228967
 C   -0.0523361649   -2.8022250638    0.9896080011
 C    1.1727846654   -1.9310160865    1.0905641666
 C    1.2016756198   -0.6658233846    0.6759022890
 H    0.5646795130    1.8098083243   -0.3986353539
 H   -0.9403733460    0.0846507099   -1.9652381108
 H   -0.0093109368   -1.4666306546   -1.6592922443
 H   -2.1737349477   -0.1271240232    0.1478655133
 H   -0.1774511929   -3.4323043664    1.8750155180
 H    0.0534282904   -3.5028653341    0.1456652421
 H    2.0637128070   -2.3846148164    1.5152401123
 H    2.1020668917   -0.0656444444    0.7749090333