19

 O   -0.0941310737    1.3929336846   -0.2717812417
 C    0.0590940670    0.0081715467    0.0631029503
 C   -1.3308211050   -0.5747827787    0.0113944359
 O   -2.2058320403    0.0884483395    0.8859589886
 C   -1.9706919140   -1.0868180816   -1.2650168962
 C   -1.0784067919   -1.5156118938   -2.4141507533
 O   -0.0738398768   -2.3627525625   -1.8509871180
 C   -0.5874753288   -2.9761828449   -0.6694726885
 C   -1.6437568939   -2.0353050859   -0.1211010192
 H    0.7094195665    1.8559837081   -0.0195143635
 H    0.7337062548   -0.5015451377   -0.6317007646
 H    0.4508433016   -0.0996189483    1.0851694549
 H   -2.0596339641    1.0290359791    0.7197379798
 H   -2.9903603682   -0.7825404154   -1.4665319395
 H   -1.6729131835   -2.0559046100   -3.1679331999
 H   -0.5579293726   -0.6918362576   -2.9143575782
 H   -1.0497749714   -3.9499516975   -0.8966649099
 H    0.2637121364   -3.1522304890   -0.0026698471
 H   -2.4202642322   -2.4306208854    0.5229922000