21

 C    0.0449331106    1.5086963989   -0.3240559072
 C    0.0310572700    0.0368091793    0.1120229541
 C   -1.3578054663   -0.4977743874    0.2749143317
 C   -2.4017058631   -0.1681935794    1.3588956784
 C   -2.9570991856   -1.6408042856    1.1858782296
 C   -2.6690876912   -2.5331835641    2.3898827518
 O   -4.2848209460   -1.7857016005    0.7365211304
 C   -1.9363436272   -1.8375674251    0.0558609489
 O   -2.1186684406   -0.7963816333   -0.9063258751
 H    1.0700795536    1.8715076076   -0.4420289689
 H   -0.4740391335    1.6315367743   -1.2790709187
 H   -0.4535484109    2.1457964682    0.4140106425
 H    0.5541120379   -0.5779702639   -0.6288862368
 H    0.5688835457   -0.0765180618    1.0618879941
 H   -1.9874113248    0.0231527109    2.3525378196
 H   -3.1016162984    0.6215078005    1.0790690947
 H   -3.2768558388   -2.2274230012    3.2502031705
 H   -2.9094743717   -3.5744859002    2.1532456176
 H   -1.6183294510   -2.4784191763    2.6911951740
 H   -4.8728037301   -1.6412522228    1.4857018084
 H   -1.4924145587   -2.7658787181   -0.2903783699