16

 C   -0.0036584129    1.5358421890   -0.2508847464
 C    0.0170423159    0.0522640501    0.0173913390
 N    1.3018640657   -0.6382201755   -0.0711610523
 C    0.6303782977   -0.5779361529    1.2382041419
 C    1.2853299803    0.1698915444    2.3213590161
 N    1.0969377566   -0.0086024576    3.5998719403
 C    1.9230061790    0.9437107225    4.1386003091
 N    2.5829163191    1.6666624515    3.2768444369
 O    2.1579008875    1.1468886748    2.0454149611
 H    0.8960079934    2.0183681614    0.1331664880
 H   -0.0561753263    1.7184421130   -1.3292307114
 H   -0.8804933607    1.9990321389    0.2132581361
 H   -0.8576924949   -0.4866836673   -0.3469881648
 H    1.2038725492   -1.5692117840   -0.4664703238
 H    0.1378293407   -1.4662311251    1.6223600887
 H    2.0372066897    1.1005318768    5.2014798616