17

 O   -0.0489199561   -0.0248344087   -0.2464671766
 C   -0.0786330733    1.1648601880   -0.0820559705
 C   -1.1545639515    2.2687654995    0.0315535031
 C    0.0382055393    3.2567278292    0.1788158853
 N    0.9301547499    2.0941490655    0.0733625104
 C    2.3590138901    1.9566685229    0.0112578104
 C    3.0222260677    2.0768082644    1.4061256482
 C    4.4772488542    1.9885259570    1.3276622399
 N    5.6270762424    1.9209856243    1.2360074120
 H   -1.7607489912    2.3953425051   -0.8667075185
 H   -1.8043976926    2.1776575322    0.9032736142
 H    0.1534549764    3.9757040676   -0.6395310386
 H    0.0949161623    3.7845154109    1.1365558878
 H    2.5697725111    0.9704563113   -0.4115300446
 H    2.7838519336    2.7098684442   -0.6623098464
 H    2.7533564773    3.0326760916    1.8692053018
 H    2.6460967504    1.2829831450    2.0595674823