18

 C   -0.0757044587    1.4949799974    0.0417025936
 C    0.0296494724    0.0021350481   -0.0329270155
 C    0.9305419828   -0.8450633606   -0.9340667694
 C    0.0791097000   -2.0533490561   -0.4537214341
 C    0.0097377425   -3.3704357329   -1.1596517807
 O    0.4426456870   -2.1532067072    0.9632214767
 C   -0.2800920980   -0.9393524684    1.1473180110
 C   -1.0871438955   -1.0433164974   -0.0998235452
 H    0.8612284823    1.9400855665    0.3964692912
 H   -0.3030578200    1.9326016270   -0.9372675228
 H   -0.8694832398    1.8024933467    0.7317297295
 H    0.7576969388   -0.6215773741   -1.9911957812
 H    2.0042999184   -0.8953810801   -0.7213187991
 H    0.9918752272   -3.8556660021   -1.1447927080
 H   -0.7085065890   -4.0356000667   -0.6720039208
 H   -0.2901059829   -3.2328511606   -2.2029626761
 H   -0.5221083908   -0.6129623072    2.1507548015
 H   -2.1444676568   -0.9927628024   -0.3235176605