19

 C   -0.1563059480    1.4612501699   -0.1852622339
 O   -0.0796522455    0.0673574893   -0.3547172612
 C   -1.1939359796   -0.6075821069    0.1986542927
 C   -0.9990914305   -2.0807097856    0.0374356789
 N   -2.0026340038   -2.8535458598   -0.3674768653
 N   -1.4828332413   -4.0991108120   -0.3651557243
 C   -0.1778371454   -4.1445479931    0.0155477938
 C    0.6018288812   -5.4173843452    0.0737239375
 C    0.1689286244   -2.8376942048    0.2902635478
 H    0.7424681706    1.8951606436   -0.6304682438
 H   -1.0411183849    1.8877876653   -0.6845080713
 H   -0.1982201130    1.7437475512    0.8795361408
 H   -1.2913444940   -0.3437863961    1.2672851674
 H   -2.1313031320   -0.3094290649   -0.2954791157
 H   -2.0657525080   -4.8681229065   -0.6495051338
 H    0.6639605529   -5.9033155139   -0.9069646939
 H    1.6208793027   -5.2153398901    0.4093059711
 H    0.1572757656   -6.1372180303    0.7707888843
 H    1.1309692987   -2.4747567301    0.6126746489