16

 N    0.1405335672    1.0783541034    0.4734498155
 C    0.0393907320   -0.0961450966    0.0515217913
 O    0.9796851883   -0.9398444678   -0.5090571973
 C   -0.0118863962   -2.0057073419   -0.6932894571
 C    0.2458192055   -3.1970504540    0.2099032422
 C   -0.4320870047   -2.8600876867    1.5495235288
 O   -0.2045429651   -3.3928454398    2.6008595460
 C   -1.4704655128   -1.7500688536    1.3137803159
 C   -1.0936755162   -1.1013732988   -0.0215462060
 H    1.0905432667    1.4377932641    0.3663595760
 H   -0.1190357115   -2.2363510836   -1.7535966389
 H   -0.2337961265   -4.0992126218   -0.1913381999
 H    1.3065681943   -3.4187287875    0.3435165865
 H   -2.4591371788   -2.2222153313    1.2615090828
 H   -1.4866428428   -1.0519556420    2.1529907634
 H   -1.9422898093   -0.7885061621   -0.6282931691