20

 C   -0.2067156915    1.6423511185   -0.1315367057
 C   -0.0742026259    0.1235967499   -0.0022729332
 C    0.9128984522   -0.6163425785   -1.0296421804
 O    1.4851286109    0.1152162590   -2.0802911877
 C    1.8286772684   -0.7808530953    0.1866965390
 C    2.5130410581   -1.6229165934    1.3018650403
 C    1.9232526828   -0.2881329430    1.9302010416
 C    2.5597323424    0.4819215050    0.7632566588
 N    0.6619009102   -0.6175367264    1.1168365668
 H    0.6598376667    2.1092278148   -0.6024974531
 H   -1.0790718797    1.8808338021   -0.7507166625
 H   -0.3696444921    2.1010750749    0.8487072397
 H   -1.0806251101   -0.3045105539   -0.0067833590
 H    0.4778376059   -1.5631229527   -1.3718854747
 H    0.8814407873    0.1035723394   -2.8292618055
 H    1.9887827171   -2.5374547456    1.5779082118
 H    3.6009993141   -1.7213528205    1.3049154437
 H    1.8911278633   -0.0311200351    2.9921442136
 H    3.6519236825    0.4900521961    0.7052856566
 H    2.1487793274    1.4597224545    0.5362698998