18

 C   -0.2524531421    1.3487951261   -0.7779268320
 N   -0.3339009260   -0.0922905351   -0.6138683785
 C   -1.1439279371   -0.6061654142    0.2060116936
 O   -1.9894484410    0.0909238400    1.0060730269
 C   -3.0008699877   -0.7134886578    1.6354987945
 O   -3.5852977997   -1.5884580971    0.7382811786
 C   -2.6774623231   -2.5808984596    0.2435336855
 C   -1.2040790167   -2.1172254984    0.3382068056
 O   -0.4187314844   -2.7427804661   -0.6326815580
 H    0.6521490429    1.7236395739   -0.2843534516
 H   -0.1569979463    1.5800939680   -1.8431074485
 H   -1.1157967248    1.8847362653   -0.3692113042
 H   -2.5535265611   -1.2321589566    2.4981354077
 H   -3.7659636787   -0.0135828126    1.9732054951
 H   -2.8224666112   -3.5230038180    0.7869283438
 H   -2.9187908285   -2.7399446756   -0.8099264646
 H   -0.8227051042   -2.3660901201    1.3436195266
 H    0.0250872598   -2.0067686122   -1.0931845805