17

 C   -0.2453048192    0.2083973642   -0.5847915991
 O    0.2042618573    0.6029684994    0.7105082029
 C    0.7321944976   -0.3587441452    1.4858385382
 C    1.1700723937   -1.6634027630    1.2943574854
 O    1.1877767546   -2.3533183764    0.1115210703
 C    0.3909736924   -3.5315648651    0.1012176165
 C    1.6543196693   -2.0611607323    2.5641658611
 N    1.5342392086   -1.0983316091    3.4696653729
 N    0.9717680471   -0.0714578327    2.7881287991
 H   -1.0468434288   -0.5356962927   -0.5105605626
 H   -0.6311294873    1.1151127978   -1.0526209023
 H    0.5724578948   -0.2051722352   -1.1798113452
 H    0.7225403388   -4.2504890207    0.8606537869
 H   -0.6677566649   -3.2983855046    0.2781219145
 H    0.5058556869   -3.9798016046   -0.8882967930
 H    2.0881116455   -3.0113046294    2.8399546020
 H    0.7875723035    0.8030994397    3.2489069924