23

 C    0.0668861378    1.5345636706    0.0483984140
 C    0.0001029985    0.0115545415   -0.0245313744
 O    0.7515086892   -0.5780114232    1.0537310062
 C   -1.4295192384   -0.5387388828   -0.0559635428
 C   -2.2488326455   -0.1379688360   -1.3001657134
 C   -3.3398524378   -1.2163021682   -1.3744802347
 C   -2.5807653028   -2.5089755494   -1.0361051853
 C   -1.4972607588   -2.1096212593   -0.0104136400
 O   -0.2837929191   -2.7460073753   -0.3729311481
 H    1.1080431390    1.8632093668    0.1083956714
 H   -0.3913558815    1.9948351460   -0.8318707041
 H   -0.4629330238    1.9082187339    0.9338669868
 H    0.5237853491   -0.3337590221   -0.9218033781
 H    0.3333387641   -0.3141824700    1.8813253920
 H   -1.9543091044   -0.1575799506    0.8339252890
 H   -2.6489499259    0.8783522331   -1.2433438016
 H   -1.6142091362   -0.1905516395   -2.1949940215
 H   -4.1119532470   -1.0136850185   -0.6213857370
 H   -3.8407328285   -1.2578668078   -2.3458925532
 H   -3.2286890879   -3.3118668439   -0.6756394006
 H   -2.0561262873   -2.8818475468   -1.9220758630
 H   -1.7911300828   -2.4242272894    1.0019969182
 H    0.3807584400   -2.4252959590    0.2528644904