17

 O   -0.6431239574    1.4038864711    0.9357367097
 C    0.0626284383    1.1415802444   -0.0040684622
 C    1.3851097803    1.8332290346   -0.2790607190
 C    1.2604475104    2.8654848207   -1.4237442832
 C    0.4664898201    4.1469559879   -1.0007391121
 N    1.7562885838    4.7851722683   -0.6603485061
 C    2.4946634252    3.8237450364   -1.5038346138
 C    0.8621351154    2.2393043124   -2.6764285520
 N    0.5512467477    1.7405870786   -3.6724301639
 H   -0.2363558773    0.3765551445   -0.7532762177
 H    1.7027356571    2.3599853241    0.6236126414
 H    2.1369902765    1.0836481635   -0.5531279330
 H   -0.0632439385    4.5924812083   -1.8521105435
 H   -0.2247435804    4.0254856141   -0.1617436202
 H    1.8455500368    5.7583132551   -0.9278724699
 H    3.4266843055    3.4470552385   -1.0700740451
 H    2.6804458066    4.1521343376   -2.5346506294