19

 C    0.2103471276    1.1586899827   -0.4302397417
 N   -0.0305059081   -0.1687395994    0.1353330622
 C    0.4806370508   -0.2874276778    1.5056395624
 C   -1.3977360379   -0.6072176806    0.0206847529
 C   -1.8422225741   -1.1147717942   -1.3536043272
 C   -1.5447298126   -2.1071825167   -0.2747466969
 O   -0.3920322410   -2.8708342983   -0.2990220653
 C   -2.3828828548    0.0503874564    0.8516182317
 N   -3.1418621925    0.5937869985    1.5369339656
 H    1.2853410798    1.3605622523   -0.4252589000
 H   -0.1425773161    1.1900493149   -1.4639604210
 H   -0.2947746511    1.9585563827    0.1344688761
 H   -0.0202991526    0.3986103309    2.2066391886
 H    0.3401726087   -1.3125033546    1.8565213924
 H    1.5506148903   -0.0615798316    1.5067835693
 H   -2.8726183683   -0.9394603760   -1.6399206481
 H   -1.1120149433   -1.0088388359   -2.1486289510
 H   -2.3694880575   -2.6345964198    0.1905912549
 H    0.3341420528   -2.2444130834   -0.4454525949