25

 C   -0.0974760961    0.8182766433   -2.0757539672
 C    0.0387395081   -0.3039743922   -1.0692007813
 C    1.3388602342   -0.6206533473   -0.3505055270
 C    2.6156208881    0.1652932724   -0.5624045345
 C    0.1780587856   -0.0441326619    0.4121180657
 C    0.0731448026    1.3272488149    1.0987487335
 C   -1.0343817582    0.7324379621    2.0148400152
 C   -0.6493358254   -0.7000380922    1.5381515356
 C   -1.7690133956   -1.6670967889    1.1833800483
 H    0.4882173951    1.6987318675   -1.7989826599
 H    0.2372078458    0.5001899012   -3.0696909527
 H   -1.1421709775    1.1376192550   -2.1667218248
 H   -0.5532787464   -1.1808084032   -1.3246613860
 H    1.5096042968   -1.6834935940   -0.1828998274
 H    2.4269225729    1.2360165473   -0.6792084231
 H    3.2906682864    0.0472652641    0.2930497318
 H    3.1526054718   -0.1754865109   -1.4549709375
 H    0.9797414769    1.5983969129    1.6499883114
 H   -0.2158732783    2.1795586369    0.4780537522
 H   -0.9580193988    0.9372295015    3.0854310681
 H   -2.0376708663    1.0125654594    1.6793606176
 H    0.0231061590   -1.1718997183    2.2663137761
 H   -2.4632650333   -1.2208509314    0.4629128291
 H   -1.3803703632   -2.5930040282    0.7435528280
 H   -2.3431900941   -1.9436506101    2.0748311488