21

 C   -1.2926503122    2.6045549121    1.3028018756
 C   -0.8496676043    1.4003750100    0.4636372660
 C    0.3471901412    0.6528617006    1.1029298524
 C    1.5378914056    1.4880959920    1.2403977228
 N    2.4728101466    2.1606204520    1.3379110157
 C   -1.9971045503    0.4267799703    0.2720594107
 N   -3.0178237006    0.7923399661   -0.7196662393
 C   -2.2091458200   -0.4200091118   -0.9378287027
 C   -1.3068918154   -0.4410497198   -2.1492089787
 H   -0.4785663305    3.3240024523    1.4278589241
 H   -2.1293146972    3.1095049563    0.8131639293
 H   -1.6214475386    2.2903193228    2.3009626471
 H   -0.5351843132    1.7637500993   -0.5191021273
 H    0.0692948982    0.2811940238    2.0972788437
 H    0.6079708929   -0.2243163491    0.5003537780
 H   -2.3548877273   -0.0016200458    1.2108762864
 H   -3.9486486289    0.5574590395   -0.3876142139
 H   -2.7035766223   -1.3718588375   -0.7435925023
 H   -0.8575760413    0.5368834900   -2.3328776969
 H   -0.5054127130   -1.1786780659   -2.0303722969
 H   -1.8795346993   -0.7126731370   -3.0422764438