24

 C   -0.2161445021    1.4821794314    0.1357661602
 C    0.0530946398   -0.0090614676    0.0091855279
 C    1.2187066243   -0.4935357470   -0.9006220005
 C    1.5470421346   -1.5816337370    0.1588209445
 C    3.0065513083   -1.8860351633    0.4513178282
 N    3.1380435643   -2.7915930856    1.5889686910
 C    3.1353996893   -4.2181477996    1.2835487544
 C    4.3906957509   -3.5285019572    1.6913557461
 C    0.7276796466   -0.7613835476    1.1915071964
 H    0.6939372502    2.0222552715    0.4217799850
 H   -0.5719081569    1.9067179199   -0.8101308888
 H   -0.9765383805    1.6865439824    0.8982220625
 H   -0.8697167684   -0.5279883817   -0.2758647344
 H    0.9801146288   -0.8182362892   -1.9169729861
 H    2.0143512487    0.2593485946   -0.9552592050
 H    1.0232171374   -2.5139101954   -0.0826018005
 H    3.4924132957   -2.2922748077   -0.4575811770
 H    3.5321463525   -0.9558231780    0.7042785048
 H    2.6004374363   -4.8551817332    1.9822039753
 H    3.0526933018   -4.5171051038    0.2390516157
 H    5.1413844283   -3.3695934906    0.9180610585
 H    4.7899628933   -3.6507992895    2.6943811845
 H    1.3788484396   -0.0950020608    1.7687031299
 H    0.0877438371   -1.3061813451    1.8890458077