14

 O   -0.0587324941   -0.0847643957    0.0039347363
 C    0.0020027434    1.1331358305    0.0092086923
 N   -1.1826291509    1.9007672751    0.0293019317
 C   -1.2387436185    3.2596727428    0.0369145814
 C   -0.1029005084    4.0025997653    0.0250393769
 C    1.1590558381    3.3173941554    0.0042462707
 C    1.2017326130    1.9458535271   -0.0032323938
 C    2.3609443147    4.0838690496   -0.0084362765
 C    3.3644964133    4.7485760742   -0.0189435782
 H   -2.0311545379    1.3518322901    0.0382410818
 H   -2.2296243107    3.6973394108    0.0527263498
 H   -0.1440924348    5.0818053317    0.0310282711
 H    2.1431055083    1.4125331824   -0.0188578032
 H    4.2562651745    5.3256448805   -0.0284442203