18

 O   -0.0503473513    1.4557854760   -0.0761681187
 C    0.0151129756    0.0534896752   -0.0002428826
 C   -0.0343598067   -0.6557026066    1.3955275914
 C   -1.5022450475   -0.1395646219    1.5402408506
 C   -1.3725816823   -0.6489890397    0.0558458051
 O   -2.3267267949   -0.7178012591   -0.9307645331
 C   -0.6224153587   -1.8531414161    0.6308032447
 C   -0.0754948326   -3.0992153998    0.0814656820
 N   -1.1744008434   -3.1030783168    1.0983381567
 H    0.8351306437    1.8096236495    0.0495336370
 H    0.7332292213   -0.3634692095   -0.7172613451
 H    0.7422297134   -0.6718752069    2.1574392366
 H   -2.1600888813   -0.7230470039    2.1856586989
 H   -1.6191506122    0.9347105318    1.6745839446
 H   -2.5647973008    0.1823026623   -1.1801373284
 H   -0.3772858714   -3.4498337959   -0.9014700914
 H    0.9156172371   -3.4190017182    0.3947593473
 H   -0.7947261979   -3.3440522806    2.0114568845