21

 C    0.4645937576    1.4421503240   -0.3546067451
 C   -0.0371608061    0.0721449860    0.1090580742
 O    0.0937982653   -0.9081817099   -0.9168768110
 C    1.3759581882   -1.5280240703   -0.8170349440
 C    1.9214365079   -1.2342935706    0.5993422804
 C    0.7364670185   -0.5443254506    1.3022789754
 C    1.0904180711    0.4243846531    2.4070238212
 C    2.2682641648    0.2779775951    3.2719189833
 O    2.2388592933    1.2611807236    2.2342436016
 H    1.5408567847    1.4380322411   -0.5480521984
 H   -0.0517334907    1.7208156410   -1.2773144707
 H    0.2675935685    2.2106604124    0.3989552423
 H   -1.1087760701    0.1400747759    0.3297622169
 H    1.2376411871   -2.5993133057   -0.9989767338
 H    2.0510397813   -1.1428920363   -1.5934022945
 H    2.2353689935   -2.1454003381    1.1136367573
 H    2.7774487798   -0.5559133579    0.5636043894
 H    0.0837529653   -1.3093220902    1.7419829346
 H    0.2342626161    0.9523684297    2.8327087280
 H    2.2459606866    0.6711870605    4.2872100960
 H    2.9581511275   -0.5483129929    3.1098672772