23

 C    0.6398140008    0.3820825929    1.3202194056
 O   -0.0326343497    0.3210913070    0.0791837625
 C   -1.0803673761   -0.6325505420   -0.0129862600
 C   -1.4508034838   -0.8875274995   -1.4989094193
 C   -1.3467642343   -2.4161941359   -1.2515024674
 C   -0.6559600094   -2.1315029709    0.1092151422
 C   -2.2704593817   -0.2449549384    0.8930894764
 C   -2.7640227695    1.1789225575    0.6449031505
 O   -3.3307223226   -1.1940367030    0.7862464692
 H    1.5261829745    1.0035761907    1.1684818160
 H    0.0304793453    0.8392747340    2.1129400174
 H    0.9635591708   -0.6108980271    1.6627119490
 H   -2.4071767734   -0.4954035008   -1.8584953169
 H   -0.6591366043   -0.5034088690   -2.1453644511
 H   -2.3217907825   -2.8888113497   -1.1228015580
 H   -0.7719180545   -2.9880385587   -1.9828268444
 H    0.4309097448   -2.2322693151    0.0525537417
 H   -1.0297478502   -2.6811037605    0.9750876745
 H   -1.9418929218   -0.3346685440    1.9356978201
 H   -1.9605867015    1.9050481327    0.7869565271
 H   -3.1282482943    1.2926517561   -0.3835733574
 H   -3.5863921718    1.4142292898    1.3259200122
 H   -3.7919257251   -1.0249313760   -0.0422586700