18

 C    0.2476713992    1.4115886315   -0.2626745530
 C   -0.1526315558    0.0184155396    0.1393475851
 C   -1.6186374272   -0.3895136768    0.1609123499
 C   -1.6724525433   -1.7379184444    0.9141628513
 O   -1.7360154324   -2.7671728822   -0.0617486344
 C   -0.3750973821   -1.7891064744    1.7716639352
 C    0.5788330018   -0.8279741062    1.0953795090
 O    0.7031312748   -1.0448015424   -0.3153501867
 H    1.3296140381    1.5404697070   -0.1778387776
 H   -0.0369355606    1.6110356394   -1.3017051942
 H   -0.2464161512    2.1584748517    0.3681362331
 H   -2.2019798053    0.3753170839    0.6865218846
 H   -2.0391954033   -0.5060615959   -0.8418161333
 H   -2.5596833273   -1.7863359601    1.5619907061
 H   -1.6757978778   -3.6134081563    0.3924739035
 H   -0.5705709994   -1.4509858588    2.7969736629
 H    0.0220073696   -2.8086556288    1.8303575333
 H    1.4850908223   -0.4974459668    1.5997928053