15

 N    0.0316428862    1.2483638488    0.3223311762
 C    0.0020465282    0.0064676434   -0.2115283597
 O    0.9048855775   -0.4784951385   -0.8635438862
 C   -1.3245486399   -0.7793046000    0.0008799869
 C   -0.9837004015   -2.2890001567    0.1057626188
 C   -2.1597556047   -3.1413239774   -0.0284368272
 N   -3.0934660553   -3.8120686631   -0.1428178840
 C   -2.1340426380   -0.3047727722    1.1154350338
 C   -2.7891353194    0.0889018489    2.0436778850
 H    0.8690133592    1.7959918474    0.2103500145
 H   -0.6979763539    1.5679411095    0.9371768221
 H   -1.8891949899   -0.6317839849   -0.9298054906
 H   -0.2609904952   -2.5166975307   -0.6823329926
 H   -0.4984211772   -2.4942102253    1.0650698166
 H   -3.3850535262    0.4198872106    2.8588452764