20

 C   -0.0961658451    1.5729887334   -0.0373536286
 C    0.0346795314    0.0490651709    0.0229043706
 C    0.8318689048   -0.5616920861   -1.1688015890
 C    1.5132835091   -1.8306747373   -0.6067387810
 N    1.6277320545   -1.5033925945    0.8043549578
 C    2.2904510939   -2.0249596588    1.8825318841
 C    1.8938642658   -1.3002276700    2.9888802301
 C    0.9515254436   -0.3189705331    2.5597625598
 C    0.8083379258   -0.4774772365    1.1990625925
 H    0.8902785359    2.0479189179   -0.0422748173
 H   -0.6342818259    1.8860438828   -0.9384573863
 H   -0.6467828709    1.9532406621    0.8286631349
 H   -0.9788917066   -0.3801733944    0.0264375898
 H    0.2024821535   -0.7777790582   -2.0353829553
 H    1.6005852720    0.1519387197   -1.4842079946
 H    0.8931170540   -2.7255746047   -0.7499369077
 H    2.4925335166   -2.0245505904   -1.0544998369
 H    2.9875633916   -2.8409273993    1.7785842977
 H    2.2528617851   -1.4480482016    3.9965715995
 H    0.4515734906    0.4094235584    3.1796748098