15

 N    0.0430062968    1.3054141384   -0.1403181965
 C    0.0451169240   -0.0157420480    0.1900164542
 O    1.0282650740   -0.5818303348    0.6282456289
 C   -1.2919173785   -0.7294075815   -0.0174493338
 C   -1.0947244025   -2.2380217637   -0.1218122072
 C   -2.3456907891   -3.0244622355    0.1696355291
 O   -3.3930855441   -2.5644106479    0.5507149351
 C   -2.2150208933   -4.4856349662   -0.0368634965
 N   -2.1080257414   -5.6242418436   -0.2069311354
 H    0.8662532805    1.8482346197    0.0639023949
 H   -0.7907306307    1.7847671154   -0.4316143067
 H   -1.9349131935   -0.5061993698    0.8419788574
 H   -1.8122648335   -0.3346635811   -0.8959983423
 H   -0.7164044976   -2.5408568645   -1.1062504106
 H   -0.3128634011   -2.5516071869    0.5840181694