14

 C   -0.0988884140    1.5147309885   -0.1333519937
 C    1.4657162127    1.7604855568    0.0280777870
 C    2.0700178838    2.2524824419    1.3249155612
 C    2.1015764972    1.2653530100    2.2599909084
 C    1.4602707924    0.0852003953    1.6774220742
 C    1.3317302904    0.3009438441    0.3354315010
 N    0.0348453251   -0.0445232004   -0.0384073491
 N   -0.5045810796   -0.7017636354    1.1204884470
 N    0.3485833758   -0.6614145312    2.0761062181
 H   -0.6793088256    1.8743156162    0.7117866959
 H   -0.5138540363    1.8008559124   -1.0970376248
 H    1.9368844992    2.1263446025   -0.8823746588
 H    2.5265952027    3.2301227461    1.4301229210
 H    2.4827947162    1.3587438433    3.2682615026