18

 C   -0.0508533573    1.5297082862    0.0561431122
 C    1.4701170692    1.2829188461    0.0740060234
 C    1.1794041954    0.0679784270    1.0399191891
 C    0.1229033612   -0.0195803499   -0.1031919664
 C   -0.9160453152   -0.8640546499   -0.8207225437
 C   -0.6464330667   -0.3827565776   -2.2556176522
 C    0.5038748124    0.2953791228   -2.4000613636
 C    1.2719921852    0.2578017677   -1.1016507060
 H   -0.5012039235    1.8652933104    0.9947265168
 H   -0.4577490484    2.0698184157   -0.7997137066
 H    2.2632138882    2.0227019730    0.1978298877
 H    1.9326355583   -0.7241292944    1.0758401552
 H    0.8226297679    0.3290360661    2.0400583183
 H   -0.7454414995   -1.9460913090   -0.7322240193
 H   -1.9452532550   -0.6701069975   -0.4986028038
 H   -1.3394264662   -0.5963879811   -3.0637088547
 H    0.8719469643    0.6807186620   -3.3448381534
 H    2.0688225798   -0.4978323876   -1.1411752732