16

 O   -0.2294751771    1.4961187933   -0.2199620502
 C    0.0845562617    0.1255025341    0.0019870516
 C   -1.1791910744   -0.7906003829    0.1882591306
 C   -1.4426467821   -1.5669057655   -1.1486574531
 C   -0.1090067886   -1.4455135960   -1.8172151164
 N    0.5117809592   -1.9587657133   -2.8745189260
 N    1.6973578190   -1.3373405560   -2.8208922561
 N    1.8963233341   -0.4729512738   -1.8252092691
 C    0.7364740083   -0.5378656653   -1.1745932285
 H   -0.5578941604    1.5840304888   -1.1213413525
 H    0.6994420535    0.1264976214    0.9053805229
 H   -0.9743420170   -1.5133066644    0.9839434893
 H   -2.0298209142   -0.1837692814    0.5056169157
 H   -1.7485569750   -2.6005202834   -0.9669206051
 H   -2.2358196464   -1.1027487398   -1.7460561769
 H    2.4188282894   -1.5313906357   -3.4970520363