18

 O    1.9472076735    4.1241088896    0.1929578152
 C    1.0668170437    3.3066049441    0.0472544053
 N    1.2297656005    1.9557039158   -0.1098492512
 C    2.4261723129    1.2301699023   -0.1257870711
 C    2.5062977494   -0.1084339799   -0.1790249253
 C    3.9192286507   -0.5611536146   -0.2986867669
 C    4.6440656335   -0.1243241777   -1.5583198070
 C    4.7455440644    0.7155932671   -0.3109364532
 C    3.7916879054    1.8947521464   -0.1342721681
 H   -0.0078679641    3.5751129324    0.0193667784
 H    0.3801556112    1.4175972855   -0.1992954387
 H    1.6589304072   -0.7852405977   -0.1879860265
 H    4.2456609333   -1.4598171180    0.2132856915
 H    5.5321871953   -0.6778663587   -1.8464268226
 H    4.0427075401    0.2325608103   -2.3888955994
 H    5.7045881677    0.7557661920    0.1910260478
 H    3.8732604186    2.6420767307   -0.9294066457
 H    3.9700277767    2.4342056104    0.8014867176