21

 C   -0.1159703868    1.5600490247   -0.0173931037
 C    0.0262363260    0.0395484453   -0.0172473709
 C    0.7381109183   -0.6025072197   -1.2428739999
 C    1.6969142354   -1.6322237886   -0.5892021989
 C    3.1020022074   -1.0725652369   -0.3383790110
 C    2.9764378945    0.2266405408    0.4726885117
 O    1.9979749432    0.1412132328    1.5093090637
 C    0.8239500438   -0.5658296282    1.1623986013
 O    1.1258261298   -1.8680990255    0.7107131967
 H    0.8502089130    2.0663069541   -0.0865654963
 H   -0.7305809854    1.8918593234   -0.8604334942
 H   -0.6003993852    1.9055756353    0.9017940653
 H   -0.9750342941   -0.3981296248    0.0584178081
 H    0.0247838344   -1.0973422359   -1.9055165207
 H    1.2809011144    0.1367364147   -1.8396786771
 H    1.7303736918   -2.5889212146   -1.1143487696
 H    3.6678931005   -1.8205546772    0.2251276069
 H    3.6348723614   -0.8742717682   -1.2752993973
 H    3.9179910903    0.4748324439    0.9703447901
 H    2.7364079446    1.0608410150   -0.2021095363
 H    0.2526168528   -0.6451038507    2.0893879320