20

 C    0.2012672346    1.0407851976   -0.4647187907
 N   -0.2678453473   -0.0416655936    0.3748253226
 C   -1.2190495444   -0.9184914505   -0.0222420119
 O   -1.8147222236   -0.8701614744   -1.0867412825
 O   -1.4137573656   -1.8558592832    0.9299885544
 C   -2.5269595885   -2.7617806379    0.7617107843
 C   -2.2498451299   -3.9108154344   -0.2141392620
 C   -3.1763933985   -5.0915952238    0.0739254658
 O   -2.4458670535   -3.5407361095   -1.5622606340
 H    0.0078674414    2.0155253471   -0.0035128723
 H    1.2750828342    0.9530731218   -0.6632375646
 H   -0.3399606573    0.9846121802   -1.4093848224
 H    0.1292762604   -0.1829039532    1.2885432053
 H   -2.6923301496   -3.1505689023    1.7689819699
 H   -3.4096486630   -2.2021805796    0.4360445466
 H   -1.2052122687   -4.2283285443   -0.0426506622
 H   -4.2249933213   -4.7785928176    0.0303188899
 H   -3.0254451676   -5.8604674122   -0.6875409621
 H   -2.9770171738   -5.5284865367    1.0574947535
 H   -2.2270277979   -2.5985353836   -1.6470559174