20

 C    0.2763770511    1.5711523673   -0.4553862087
 C    0.0912166449    0.1072224579   -0.1231097273
 C    1.2825661706   -0.8148138638    0.1061335026
 C    0.3707926814   -0.4333559506    1.2400644540
 C    0.8065925737    0.3604934233    2.4607917395
 C    0.7097015633   -0.7016515248    3.5673953661
 C   -0.3633162767   -1.6377124945    3.0530131817
 N   -1.0173826886   -2.4688933463    3.7415768363
 O   -0.5236177832   -1.4437826093    1.7072701009
 H    1.1327494468    1.9997032345    0.0747173141
 H    0.4522999343    1.7070592239   -1.5277165915
 H   -0.6091730094    2.1567397849   -0.1853237684
 H   -0.7520873371   -0.3697838941   -0.6156702819
 H    1.2154829923   -1.8295242855   -0.2694551828
 H    2.2781161116   -0.3811626555    0.0853587238
 H    1.8053680873    0.7861366633    2.3531040953
 H    0.1058390346    1.1808436792    2.6528357036
 H    1.6470769246   -1.2613858180    3.6612468419
 H    0.4545940301   -0.3138998566    4.5535409637
 H   -1.6685308815   -2.9889483254    3.1506465670