20

 C   -0.0949491696    1.5353309953    0.0489430561
 C   -0.0313746173    0.0169996919   -0.0324265052
 C    0.7137306279   -0.6274327575   -1.2416306891
 C    0.0934996237   -1.1762710001   -2.4647519598
 N    1.0517571010   -0.0515029368   -2.5349134768
 C    1.7041808395   -1.2701564201   -0.2980360708
 O    2.2931454089   -0.2077177354    0.4776459882
 C    1.0058618241   -0.7011945072    0.8725837214
 C    0.8246115552   -1.1917763932    2.2717948574
 H    0.9115948605    1.9587989573    0.0042840384
 H   -0.6830208836    1.9529120328   -0.7767845769
 H   -0.5693595475    1.8628011996    0.9801628640
 H   -1.0260072222   -0.4283191331    0.0843854205
 H    0.4527703997   -2.1051793253   -2.9007998911
 H   -0.9644542139   -0.9816676860   -2.6271576882
 H    0.5576197585    0.8282785957   -2.6687774194
 H    2.2833339134   -2.1793960220   -0.4145942545
 H    0.7267665153   -0.3528954718    2.9702847146
 H   -0.0786480690   -1.8048889345    2.3550505521
 H    1.6862114552   -1.7897895995    2.5800216493