23

 C    3.9222550345    0.1971344427    0.3513680617
 C    2.4620042779   -0.2721682644    0.4063414655
 C    1.9404135716   -0.6930159371   -0.9550319365
 N    2.1299751481   -2.0304649945   -1.5366846143
 C    2.8145112877   -3.0802928066   -0.8004499733
 C    0.7698061890   -1.6059457639   -1.1727257134
 C    0.0334137991   -2.2283346592    0.0013364165
 C   -0.1272429153   -1.3588608943   -2.3731526678
 H    4.5870754231   -0.6106876082    0.0293997520
 H    4.0422420983    1.0241081347   -0.3568325444
 H    4.2635592242    0.5436463049    1.3317865785
 H    2.3646562306   -1.0765416459    1.1399973370
 H    1.8311215983    0.5482436050    0.7732857218
 H    2.0762182307    0.0957561173   -1.6991966265
 H    2.6902740916   -3.0699666464    0.2920353488
 H    2.4621005442   -4.0516174246   -1.1636664238
 H    3.8871250566   -3.0181239873   -1.0137495482
 H    0.6610959811   -2.3911192909    0.8779835684
 H   -0.7983483025   -1.5837479293    0.3063139604
 H   -0.3953188320   -3.1954014820   -0.2872786550
 H   -0.5911522590   -2.2931205672   -2.7114554341
 H   -0.9322616817   -0.6566823984   -2.1263464268
 H    0.4509162538   -0.9505978845   -3.2053537767