23

 C    1.0173320733    0.3994586539    0.0134367134
 C   -0.4338657155   -0.0631255943   -0.0888255812
 O   -1.3268601256    1.0344165218   -0.2510101370
 C   -0.6862708675   -0.9666800260   -1.3091788531
 C    0.0292153051   -2.2353789228   -1.2530961744
 C    0.6198368475   -3.2843453138   -1.1912362784
 C    1.3474421798   -4.5528485754   -1.1218066055
 C    2.5351982950   -4.5684005195   -2.1044209002
 C    1.8094130821   -4.8506126189    0.3185512278
 H    1.6916865487   -0.4579250657    0.0897230603
 H    1.2915929801    0.9854080484   -0.8701563115
 H    1.1651136274    1.0262027467    0.9006483629
 H   -0.6943535065   -0.6351887771    0.8160443354
 H   -1.1474507286    1.6689997881    0.4495507391
 H   -1.7667773116   -1.1417362713   -1.3743139763
 H   -0.4097570344   -0.4079739727   -2.2129118614
 H    0.6563759004   -5.3535898919   -1.4214191179
 H    3.2620243428   -3.7933111989   -1.8417311387
 H    3.0418346856   -5.5385752271   -2.0742622475
 H    2.2005045183   -4.3844001482   -3.1286428215
 H    0.9615507309   -4.8663329107    1.0083877825
 H    2.3114121663   -5.8225268261    0.3638390229
 H    2.5123629364   -4.0855724485    0.6632286103