16

 C    0.1975850040    1.5294416633    0.0854112451
 C   -0.0462923683    0.0676275195    0.0445434775
 C   -1.1541507560   -0.6922925476   -0.0118511019
 C   -2.6050603330   -0.3636731586   -0.0738725774
 O   -3.2662086472   -1.0496502403   -1.1326274803
 N   -0.7147092619   -2.0232459238    0.0146911363
 C    0.6573382726   -2.0768206920    0.0496098699
 O    1.4015435941   -3.0176470070    0.0434338724
 O    1.0679835202   -0.7518629430    0.0973653045
 H    0.8625267551    1.8379341195   -0.7289377283
 H   -0.7422580372    2.0779689474   -0.0078166003
 H    0.6750042292    1.8263193094    1.0262272442
 H   -3.1168742986   -0.6971625905    0.8366956750
 H   -2.7328171535    0.7254205629   -0.1392159084
 H   -2.8547655387   -0.7756759964   -1.9598532778
 H   -1.2890155107   -2.8309455129   -0.1538260104