13

 O   -0.1179630702    1.3372626634   -0.0818283569
 N    0.0123294729   -0.0430526193    0.0693177673
 C   -1.1062859642   -0.6244022754   -0.0071996754
 C   -2.5860340128   -0.2379287712   -0.0923614072
 C   -2.8914784807   -1.7397928816    0.0949862986
 O   -2.2688865559   -2.4384653057   -0.9717900700
 C   -1.4386348994   -2.0804661660    0.1566188455
 C   -0.7327716876   -3.1105659971    0.8491368302
 N   -0.1488977925   -3.9238836099    1.4264125917
 H    0.7919895503    1.6432883794    0.0087784150
 H   -2.8878687835    0.3928788826    0.7482634680
 H   -2.9387814093    0.1937359235   -1.0305111311
 H   -3.7174575571   -2.2174879428    0.6066421044