21

 C   -0.0888121990    1.3353519913    0.1478524793
 O    0.0186475551   -0.0834512073   -0.0171752619
 C    0.6537688748   -0.4882594983   -1.1375390991
 O    1.1070614912    0.2719751294   -1.9561313586
 C    0.7078290451   -2.0005052309   -1.2062199928
 C    1.4181250514   -2.5165307218   -2.4573674990
 C    1.4655623396   -4.0453096762   -2.5140056757
 C    2.1719945542   -4.5666619793   -3.7582586649
 O    2.1579032954   -5.9855435497   -3.7077416575
 H    0.9014780200    1.7961835753    0.1906500828
 H   -0.6449341162    1.7804872196   -0.6812687111
 H   -0.6202276565    1.4860983661    1.0876828759
 H    1.1978745298   -2.3611834975   -0.2933132605
 H   -0.3212373940   -2.3765814136   -1.1494087416
 H    0.9114680918   -2.1201615458   -3.3449022139
 H    2.4335304969   -2.1047130750   -2.4871765970
 H    1.9804785557   -4.4439997445   -1.6308655755
 H    0.4496771041   -4.4595387111   -2.4934784154
 H    1.6585719230   -4.1940855556   -4.6599830887
 H    3.2034128461   -4.1784309483   -3.7894525401
 H    2.6033984717   -6.3186102068   -4.4919679846