17

 C   -0.0974985926   -1.1977370155   -0.1358936968
 C    0.0108072914   -0.0156428130    0.0437423404
 C    0.1136465764    1.4169140227    0.2810531040
 O    1.2959549084    1.9230364916   -0.3242331998
 C    1.4160419044    3.3072511447   -0.2070289120
 C    2.0910347190    3.9720778971    1.0412107211
 C    3.4430179340    3.3459392200    0.6271214459
 C    2.7604269021    3.9359187956   -0.6305365763
 O    2.3748676618    5.1264425730    0.1620583191
 H   -0.1886866635   -2.2430718158   -0.2999037918
 H   -0.7714180733    1.9286450543   -0.1311458500
 H    0.1202823141    1.6149930273    1.3648272348
 H    0.5308598227    3.8475704072   -0.5650651188
 H    1.6925150140    4.1862065713    2.0330754616
 H    4.3242344607    3.8894919078    0.9690520352
 H    3.5426668025    2.2617020828    0.6859265466
 H    3.1572291580    4.1008254990   -1.6318759932