18

 O    0.0636060864    1.4253001791    0.1715348166
 C    0.0111538210    0.0045287083    0.2714696640
 C   -1.3928387388   -0.4690505508   -0.1467604499
 C   -1.7391562698   -0.1089065432   -1.6144141840
 N   -1.9430478858    1.3133967414   -1.8053879975
 C   -3.0708957707    1.8238065226   -2.3634821135
 O   -3.9936306134    1.1758176663   -2.8132547046
 C   -1.4845217144   -1.9121014534    0.0537693677
 C   -1.5348604481   -3.1045541704    0.1942904943
 H    0.9556195552    1.7122632255    0.3869673608
 H    0.7572312039   -0.4679735634   -0.3842641626
 H    0.2102665920   -0.3231570774    1.3003787603
 H   -2.1221327000    0.0335431091    0.5021568981
 H   -0.9394962755   -0.4832396766   -2.2676172234
 H   -2.6659968721   -0.6022615389   -1.9110934677
 H   -1.2567419520    1.9334555120   -1.4025311717
 H   -3.0546301816    2.9321393971   -2.3697069380
 H   -1.5992433863   -4.1563180572    0.3268444010