25

 C   -0.1991517959    1.5306856032    0.0349369081
 C   -0.0336970482    0.0160022367   -0.0304731964
 C    0.8280682914   -0.5171706709    1.1188419972
 O   -1.3466584884   -0.5316552238   -0.0129165925
 C   -1.4535947554   -1.8768461226   -0.4317447948
 C   -2.9227366915   -2.2215937849   -0.5555933400
 C   -3.7545712325   -1.5664683207   -1.6925634017
 C   -4.4633691703   -2.9313750614   -1.9086822340
 C   -3.3047598154   -3.6143923332   -1.1307416029
 H    0.7728113221    2.0302283639   -0.0176145333
 H   -0.8200761364    1.8821804438   -0.7931881116
 H   -0.6857231876    1.8180934102    0.9726017645
 H    0.4480241581   -0.2513196500   -0.9872795390
 H    0.3624899409   -0.2797087497    2.0810158745
 H    0.9603962943   -1.6012134716    1.0599122444
 H    1.8227537859   -0.0605611414    1.0938228710
 H   -0.9505815726   -2.0137041493   -1.4059644099
 H   -0.9667246274   -2.5625574928    0.2817157188
 H   -3.4078771113   -2.0576725379    0.4125440182
 H   -4.3714295695   -0.7023335782   -1.4378772920
 H   -3.1188751075   -1.2993672575   -2.5433253737
 H   -5.4077233310   -2.9905425313   -1.3598297950
 H   -4.6424593229   -3.2553853360   -2.9366247998
 H   -2.5314301320   -3.9919357818   -1.8087257394
 H   -3.5582664370   -4.4067989328   -0.4222211409