18

 C   -0.0225102431    1.3919907412    0.0041524858
 N   -0.1545660067   -0.0459197542    0.0725646653
 C   -1.3445588669   -0.6685845971    0.2135514243
 O   -2.4270096678   -0.1141147439    0.3161466134
 C   -1.2113791398   -2.1944498740    0.2189162754
 N   -0.0692895039   -2.7123856553   -0.0260009631
 N   -2.3632945095   -2.8621658382    0.5844870131
 C   -3.6409137956   -2.7564102954   -0.0840409715
 C   -2.8699930673   -4.0438622414   -0.0850498931
 H    0.3696718567    1.7122294711   -0.9682125494
 H   -1.0144396301    1.8235920324    0.1458121669
 H    0.6459366177    1.7653289451    0.7877452856
 H    0.6452241351   -0.6555232048   -0.0280926967
 H   -0.1034546954   -3.7327428704    0.0098485465
 H   -4.5015093089   -2.6345134187    0.5661427940
 H   -3.6807328397   -2.1894967559   -1.0083231307
 H   -2.3839992356   -4.3408882078   -1.0127220158
 H   -3.1715858791   -4.8635441326    0.5605280802