19

 C   -0.0415960730    1.5667647884    0.0208658791
 C    0.0014957925    0.0270240505    0.0745069211
 C    0.7336801561   -0.4617530520    1.3396630869
 C   -1.3623397845   -0.5683119595   -0.0394608499
 C   -1.9498193222   -1.3907330008   -0.9552794353
 O   -1.3229581186   -1.8762300928   -2.0661622570
 C   -3.2974348115   -1.6237125917   -0.5231474977
 C   -3.4325658397   -0.9214932862    0.6322744413
 O   -2.2823516789   -0.2799180209    0.9412668106
 H    0.9695103011    1.9837595351    0.0725851606
 H   -0.5107744682    1.9159927431   -0.9034909212
 H   -0.6162666732    1.9662256340    0.8625348638
 H    0.5518471542   -0.3330511599   -0.8028342355
 H    0.8149375009   -1.5525228391    1.3513921532
 H    1.7432653807   -0.0407803801    1.3889272837
 H    0.1939640464   -0.1540663570    2.2409278873
 H   -1.9402577741   -2.4291985384   -2.5525230712
 H   -4.0501536496   -2.2274398833   -1.0074054134
 H   -4.2504796984   -0.7850915093    1.3203725836