18

 C   -0.0552548399    1.5627028116   -0.0919060013
 C    0.1020861917    0.0579704064   -0.0024898900
 N    1.3477354085   -0.6056201240   -0.6693010414
 C    2.1319722706   -0.1450171193    0.5727735820
 C    0.8020329093   -0.6520651149    1.1715886429
 O    0.3430022933   -0.6672235415    2.4709690389
 C    1.0081564102   -1.8488743075    0.1507844384
 C   -0.1186308707   -2.7488255287   -0.2622434357
 O   -0.9137608186   -2.5533011184   -1.1475606653
 H   -0.1796407313    1.8550513524   -1.1393905735
 H   -0.9623869506    1.8575580393    0.4453690729
 H    0.7752437820    2.1355692968    0.3246117875
 H   -0.8081382592   -0.4194770218   -0.3612239934
 H    3.0364356842   -0.7318164393    0.7548332936
 H    2.3473694723    0.9215970821    0.5910135500
 H    1.0245445532   -1.0360639002    3.0443085727
 H    1.8885212086   -2.4700289247    0.3569106160
 H   -0.1671088236   -3.6774448381    0.3537889657