21

 C    0.1669539571    1.5530720736    0.2584478557
 C   -0.0337972297    0.0881254287   -0.1539775544
 C   -1.4606875987   -0.3976349172   -0.0315251224
 N   -1.9466284492   -1.5100780989   -0.8760994883
 C   -2.5109046431   -0.1577760383   -1.0652167927
 C   -3.8627479185    0.0783413400   -0.3908102639
 C   -3.5933943422   -0.0328274209    1.1117034182
 N   -3.1756441971   -1.3721199980    1.5668773677
 C   -2.1509535705   -0.3346539229    1.3250561621
 H    1.2127016323    1.8517248576    0.1372810298
 H   -0.4486298217    2.2205054407   -0.3531899047
 H   -0.1034527660    1.7207682066    1.3056016840
 H    0.2874433771   -0.0377912904   -1.1960373614
 H    0.6220985853   -0.5567641037    0.4463876655
 H   -1.2606126373   -1.6815675646   -1.6096806962
 H   -2.2881429883    0.3676543467   -1.9904214291
 H   -4.2178804464    1.0882172858   -0.6255582786
 H   -4.6214129061   -0.6354700471   -0.7258208429
 H   -4.1588103221    0.5954413844    1.7938706325
 H   -3.3353022826   -1.4392835173    2.5702713705
 H   -1.5962673622    0.0598285253    2.1698686187