19

 C   -0.1145760191    1.6119784845    0.1855607565
 C    0.0420128152    0.1049236311    0.1554848317
 N    1.1797422156   -0.5183953017   -0.6934308893
 C    2.1035311175   -0.1443438736    0.4774267592
 C    0.8602804716   -0.7004237146    1.2112441560
 C    0.6222368348   -0.8370647205    2.6341147366
 N    0.4213739935   -0.9490094956    3.7676792441
 C    0.9276259569   -1.8151347918    0.1200198245
 C   -0.2262858368   -2.7250926418   -0.2479421548
 H   -0.3798403307    1.9654163139   -0.8162018588
 H   -0.9351331279    1.8769856772    0.8602143137
 H    0.7723288493    2.1576428352    0.5114178682
 H   -0.9218004182   -0.3359021039   -0.0991196374
 H    3.0169026372   -0.7411136093    0.5217867709
 H    2.3247448270    0.9173068073    0.5595069212
 H    1.8470952581   -2.4066533822    0.1681165239
 H   -0.0638170407   -3.1220800451   -1.2551804727
 H   -0.2507464573   -3.5720920189    0.4451201146
 H   -1.2090557059   -2.2515602101   -0.2267017580