14

 O   -0.1654100736    1.2733272733   -0.3647407808
 C    0.0645614612   -0.0316692360   -0.1180935014
 N    1.2170617470   -0.5234170459   -0.3662483302
 C    1.5123727778   -1.8510872837   -0.0365849444
 N    2.4846108120   -2.1190938527    0.7312820206
 N    0.7622642384   -2.8527997230   -0.7012117170
 C   -0.4985376394   -2.9376407370   -0.4986749684
 C   -1.3546788476   -2.0232270129    0.2530836578
 C   -1.1163206314   -0.7084498222    0.4188402303
 H    0.6713694579    1.6406049504   -0.6867427939
 H    2.5966993278   -3.1326901221    0.7938514327
 H   -1.0116764043   -3.7845525969   -0.9612774942
 H   -2.3039239389   -2.4267909266    0.5950821621
 H   -1.8650769668   -0.0695628348    0.8757763169