20

 C   -0.0418371688    1.5580419716   -0.0077276280
 C    0.0406181193    0.0305241316   -0.0227053943
 C    0.6813226462   -0.5266493507   -1.3034187865
 C    0.7825390716   -2.0574037276   -1.2375183850
 C    1.4834905713   -2.4865377787    0.0497175898
 O    0.8393676247   -1.9449312207    1.2058091522
 C    0.7822219666   -0.5331894170    1.2140671461
 C    2.1408357329    0.0501889453    1.3511762722
 N    3.2018929195    0.4979450208    1.4500533334
 H    0.9516092416    2.0119795403   -0.0794135064
 H   -0.6357849102    1.9138108782   -0.8550491650
 H   -0.5146058469    1.9262573018    0.9092128737
 H   -0.9739685300   -0.3811287898    0.0585241622
 H    0.0957378029   -0.2138183431   -2.1745371418
 H    1.6830160139   -0.0926174178   -1.4249720140
 H   -0.2215585057   -2.4981519880   -1.2616935965
 H    1.3316924351   -2.4508007242   -2.1000862172
 H    1.4526397167   -3.5700498416    0.1869961155
 H    2.5389068196   -2.1748057323    0.0344314196
 H    0.2280836298   -0.2681058982    2.1212164399