18

 O   -0.2393105233    0.6235735361   -0.8571439421
 C    0.0109645442    1.3971126780    0.0434850458
 N    1.2171185659    1.5263010257    0.6559143425
 C    2.3967245506    0.7784124298    0.2586460304
 C    3.5217173946    1.7288830114   -0.1145433604
 O    3.8309086197    2.6736633226    0.9595743505
 C    5.2216251395    2.3458073884    0.8560763127
 C    5.4657085250    0.9236719704    1.2362165054
 C    4.9737445698    1.2560308827   -0.1611709368
 H   -0.7405374823    2.0892831100    0.4720191818
 H    1.3360831847    2.2339759124    1.3643279524
 H    2.7144265984    0.1116985697    1.0680109808
 H    2.1131167037    0.1645752497   -0.6000561460
 H    3.2491876334    2.2974689464   -1.0119936739
 H    5.9376318819    3.1571919157    0.9070652621
 H    6.5083077083    0.6228487863    1.2716265336
 H    4.8268013573    0.4435678989    1.9708875985
 H    5.5175416184    0.9901031558   -1.0566505572