20

 C    0.2889041327    0.7863885256   -0.5996452226
 C   -0.3407296953    0.1252315691    0.6307147902
 N   -1.4829235716   -0.7548652771    0.4478522117
 C   -1.9613143661   -0.9635198045   -0.6916670565
 O   -3.0484354457   -1.7648768645   -0.8318687168
 C   -3.4600866059   -2.0741809733   -2.1598878484
 C   -2.8075266239   -3.3452204564   -2.6904809536
 C   -4.9838010396   -2.1659528628   -2.1214152792
 O   -5.6364922956   -2.7747646376   -2.9260395220
 H    1.1321454065    1.4097419164   -0.2877992072
 H    0.6704441152    0.0460820948   -1.3112433283
 H   -0.4221202284    1.4318048979   -1.1267154516
 H    0.4250605668   -0.4563653425    1.1606148011
 H   -0.6500676088    0.9031145125    1.3412710622
 H   -1.6016068379   -0.5466411041   -1.6417043819
 H   -3.2259177301   -1.2250556543   -2.8251135841
 H   -3.2617311114   -3.6147690244   -3.6467077223
 H   -1.7328954161   -3.2013090124   -2.8291719478
 H   -2.9622394113   -4.1669717762   -1.9864161967
 H   -5.4405167636   -1.5993440062   -1.2816658059