17

 C   -0.1624646118    1.5287576092    0.0011851616
 C    0.0434771372    0.0204961883    0.0185166176
 C    1.2319612577   -0.6550271826   -0.7752698954
 C    2.1916436777   -0.1478139782    0.3596870969
 C    0.9284126038   -0.6783630000    1.1246540010
 C    0.9932102551   -1.8350823563    0.1518581068
 N    0.8913862296   -3.0888532018    0.2071644083
 O    1.0535318078   -3.6666529753   -1.0819494624
 H    0.7542489701    2.1039450519    0.1474956738
 H   -0.5970537505    1.8361879709   -0.9560202833
 H   -0.8660103768    1.8202797296    0.7884080372
 H   -0.9150864407   -0.4832035873   -0.1390234786
 H    1.4042976643   -0.6620767760   -1.8486743537
 H    3.1161983396   -0.7095219808    0.5018162396
 H    2.3707257007    0.9263006187    0.4004762135
 H    0.7576623280   -0.7101677209    2.1989857636
 H    0.9549257883   -4.6042701795   -0.8864411063