17

 O    0.0052194073   -0.0257470728    0.2018814528
 C   -0.0127706771    1.1833944003    0.0979408909
 N   -1.1269071363    2.0285981520    0.0445629542
 C   -0.7150609277    3.3564443082    0.0087612416
 C    0.6270748847    3.3747987055   -0.0100194335
 C    1.2040870507    4.7333452217   -0.2305498470
 C   -0.0753662965    5.6194900048   -0.0399710808
 C   -1.3349443334    4.6986226923   -0.1950204474
 N    1.0759114800    2.0587228259    0.0137385444
 H   -2.0563533621    1.6678369975    0.1678898887
 H    1.9948059406    5.0127476497    0.4756073531
 H    1.6299060079    4.8423346744   -1.2380815926
 H   -0.0670453710    6.0423626968    0.9679376436
 H   -0.0966273335    6.4565517752   -0.7412936856
 H   -1.7916039052    4.7955439464   -1.1902033446
 H   -2.1129415700    4.9565720882    0.5330883899
 H    2.0179599242    1.7235553239    0.1108774322