16

 C    0.0259821410    1.5439617062    0.0897214215
 C    0.0240814569    0.0389966614    0.0512317843
 C   -0.0694390095   -0.6659355292   -1.1688705582
 N   -0.1658922427    0.0148033084   -2.3733856772
 N   -0.1308115765   -1.9990363269   -1.2652715964
 N   -0.1083757015   -2.7367897986   -0.1598657379
 C    0.0064144662   -2.1545782215    1.0206918346
 C    0.0840723210   -0.7608940955    1.1809405126
 O    0.1982736055   -0.2936492784    2.4464816389
 H    1.0205079681    1.9692441233   -0.0984651262
 H   -0.6524630143    1.9414915155   -0.6714027405
 H   -0.3199030264    1.9393619570    1.0513460006
 H   -0.0806709784   -0.6139219475   -3.1612299674
 H    0.4021703336    0.8431803750   -2.4676304893
 H    0.0384681702   -2.8017853743    1.8907716988
 H    0.2931923366    0.6646326551    2.4348352117