17

 O    0.2167857478    1.1677796933    0.3728222862
 C    0.0252309680   -0.1824000575    0.0541130140
 C   -1.4657082238   -0.5615554596   -0.1227868745
 C   -1.7471346633   -2.0935654579   -0.0350431957
 C   -2.2804650613   -1.9496228657    1.4217260950
 C   -2.2582746292   -0.4304230578    1.2269322413
 O   -2.7240694674    0.4989848582    1.8077043899
 C   -2.0925858400    0.1829143677   -1.2701224790
 O   -1.6713531345    1.2225247030   -1.7229313510
 H   -0.1817582535    1.6743079652   -0.3482458133
 H    0.5533748849   -0.4764554679   -0.8684726632
 H    0.4538958337   -0.7700725130    0.8736453588
 H   -2.5182877120   -2.4211902551   -0.7372746256
 H   -0.8671843662   -2.7260073979   -0.1647577083
 H   -3.2616880226   -2.3727153064    1.6512329906
 H   -1.5761715259   -2.2789917331    2.1920435135
 H   -3.0130576545   -0.2797582157   -1.6889563086