17

 C   -0.0320228119    1.4733224963   -0.1085272358
 C   -0.0051994088   -0.0339946144   -0.1064734574
 O    1.0152560549   -0.6924752993   -0.1149123559
 C   -1.3225540574   -0.7384250497   -0.0747487788
 N   -2.4722833198   -0.1543194243    0.0385041579
 C   -3.4610801454   -1.1909481619    0.0594946338
 C   -3.5833178686   -2.0988432389   -1.1499939822
 C   -2.6995532542   -2.5454740837   -0.0218974547
 N   -1.3409886631   -2.1064686977   -0.1141789669
 H    0.9771304161    1.8571323156    0.0436834176
 H   -0.4220287334    1.8294519750   -1.0684371745
 H   -0.7175744539    1.8436423051    0.6576259750
 H   -4.3419491163   -1.0106080932    0.6650378337
 H   -4.5333777897   -2.6110132191   -1.2529127023
 H   -3.1191171724   -1.7909715654   -2.0811021797
 H   -2.9070478775   -3.4352249824    0.5606741240
 H   -0.5229838286   -2.6566931119    0.0839645361