12

 N    0.1878402501    1.2803920570    0.0042741886
 C    0.0450048504    0.0137205656    0.0011663287
 N   -1.1913562347   -0.5794819725    0.0112631487
 C   -2.3940219890    0.1005431672    0.0253371095
 C   -2.7141233914    1.4243769456    0.0332741060
 O   -4.0530459603    1.5072931290    0.0469066101
 N   -4.5551945237    0.1990264321    0.0457975345
 N   -3.5745273095   -0.6014519814    0.0342383275
 H    1.1736295122    1.5277225253   -0.0045059177
 H    0.8513740022   -0.7266315418   -0.0093661672
 H   -1.2575303030   -1.5839105191    0.0080769464
 H   -2.1309921634    2.3248605529    0.0310563150