16

 N   -0.1252904924    1.3208641728   -0.4618708887
 C   -0.0031780251    0.1425503237   -0.0212929573
 C   -1.2217952229   -0.7542914408    0.0672762592
 C   -1.6132175157   -1.2671975143    1.4518371914
 O   -2.6418415391   -0.9773160800    1.9906603713
 O   -0.7591043340   -2.1238689967    2.0691003429
 C    0.4962386845   -2.4495944278    1.4691496254
 C    1.4342993590   -1.2587487272    1.3612311454
 O    1.2281076744   -0.3950067846    0.2431762286
 H    0.7893148464    1.7771840949   -0.4914193559
 H   -2.0686511412   -0.1794210872   -0.2992187943
 H   -1.0673158853   -1.6152747560   -0.5953017282
 H    0.9411543036   -3.1799363799    2.1493951919
 H    0.3594042813   -2.9344771037    0.4953076358
 H    1.3827531333   -0.6810962740    2.2938366433
 H    2.4580807335   -1.6227782095    1.2389769791