15

 N   -0.0081776188    1.3865240741    0.1018273957
 C    0.0472092041   -0.0132322688    0.0188197054
 N   -1.0333068398   -0.7928417827    0.0500945914
 N   -0.5644059284   -2.0426782475    0.0267336479
 C    0.8041837961   -2.1031059104   -0.0328109524
 C    1.4964729004   -3.3681928859   -0.0605422079
 O    0.9355936558   -4.4488653882   -0.0399089174
 C    1.2399427531   -0.7758602572   -0.0294702376
 N    2.5183318332   -0.2372199934   -0.1092208186
 H    0.3712442667    1.8326368874   -0.7276175391
 H   -0.9656789570    1.6953966536    0.2262265313
 H   -1.1834331835   -2.8348419774    0.0508170610
 H    2.6053366042   -3.2971020830   -0.1033876062
 H    3.2615071083   -0.8594446929    0.1760777504
 H    2.5869112855    0.6491596822    0.3770977759