16

 C   -0.1400721693    1.5657720202   -0.2293848853
 C    0.2817709297    0.1003418542   -0.1729471511
 C    0.2728935990   -0.4746663378    1.2300194136
 O    0.0287037314    0.1660577715    2.2213848446
 C    0.5860937922   -1.9580155818    1.3259025154
 O    1.0146048844   -2.4420296158    2.5906915566
 C   -0.2658213335   -2.8572102807    2.1514880967
 C   -1.4222088007   -2.3750220884    2.8776298022
 N   -2.3855356651   -2.0716548418    3.4383356293
 H    0.5190818368    2.1822039745    0.3864013652
 H   -0.1056822036    1.9367269021   -1.2568940578
 H   -1.1560101095    1.6931271446    0.1526131625
 H   -0.3649647201   -0.5313581360   -0.7996269439
 H    1.2934021971   -0.0415324228   -0.5811513779
 H    1.0808949244   -2.4125537173    0.4671614725
 H   -0.3410303934   -3.9018214147    1.8521250973