16

 N   -0.1308852881    1.3201370721   -0.0519420342
 C   -0.1213136589    0.0625361883   -0.1378767266
 O   -0.9086964715   -0.6765863211    0.6703893177
 C   -0.9233242450   -2.0860984282    0.4509348305
 C   -1.2594277158   -2.8069710729    1.7429240209
 C   -2.2730867424   -3.6585853935    1.5916452285
 C   -2.8196134633   -3.5695524931    0.1982347862
 O   -3.3452607742   -2.2579906516   -0.0977935555
 C   -2.0169988829   -2.5647691682   -0.5113026616
 H    0.5320659355    1.7196399625   -0.7127963654
 H    0.4946193847   -0.5412437249   -0.8206607850
 H    0.0604175872   -2.4028426130    0.0704982798
 H   -0.7294120739   -2.5855074615    2.6609992197
 H   -2.6938799924   -4.2943598539    2.3603521061
 H   -3.3194050417   -4.3981765261   -0.2929007968
 H   -1.8415930776   -2.5730545548   -1.5834783244