15

 C   -0.0510952839    1.4559257744    0.0095699302
 N    0.0008612301    0.0074678796   -0.0006842444
 C   -1.1326656616   -0.8062905051    0.0031775032
 N   -2.3066969631   -0.3227945377    0.0139301651
 C   -0.5618936888   -2.2248833276   -0.0083823122
 N    0.8985648332   -2.0874940551   -0.0164922167
 C    1.1117388006   -0.8221886156   -0.0113833568
 C    2.4309891241   -0.2515198803   -0.0166502794
 N    3.4776111608    0.2378866246   -0.0207109175
 H    0.9643494488    1.8539555526   -0.0003429010
 H   -0.5961885095    1.8173287254   -0.8668611274
 H   -0.5745561790    1.8064296287    0.9035328450
 H   -3.0066571794   -1.0629471289    0.0147374822
 H   -0.8807039743   -2.7954591700    0.8714997259
 H   -0.8912726480   -2.7851531549   -0.8910233764