16

 O    0.1260667724    1.4290064488   -0.1410770349
 C    0.0831567748    0.0171333978   -0.0308647260
 C   -1.3516385182   -0.5176805219   -0.0346473839
 C   -1.4063887804   -2.0507291208    0.0302831909
 N   -0.9254033484   -2.5938430940    1.3066652958
 C   -1.8858218978   -3.2812987766    1.7623035180
 O   -3.0476109544   -3.3654623128    1.0350339851
 C   -2.8298251802   -2.5879373015   -0.1073855174
 O   -3.6583598931   -2.4353152783   -0.9461378732
 H   -0.2023863041    1.8022294371    0.6829693963
 H    0.6210752302   -0.3662571307   -0.9056028787
 H    0.6139223243   -0.3415320758    0.8616348843
 H   -1.9029505869   -0.1054507431    0.8201168749
 H   -1.8657991614   -0.1898653045   -0.9437565724
 H   -0.7996217503   -2.4652579057   -0.7859722818
 H   -1.8990767366   -3.8330086879    2.6945267632