17

 C   -0.4717056498    1.2276812670    0.5097786432
 N   -0.8955246199   -0.1349449845    0.2562149470
 C   -0.4705565899   -0.8415835477   -0.8159848894
 O    0.2942929929   -0.4376097527   -1.6733752765
 C   -1.0246553834   -2.2638720933   -0.9176154175
 O   -1.8945630662   -2.5577942754    0.1632493691
 C   -2.4254849348   -3.8595929714    0.1047501452
 C   -3.3068067814   -4.0678078257    1.2568660391
 N   -4.0053038872   -4.2514474028    2.1572747710
 H    0.0534673143    1.3072170507    1.4677249902
 H    0.2062287422    1.5159374637   -0.2943986722
 H   -1.3264648454    1.9125495979    0.5213921732
 H   -1.5309559386   -0.5936686374    0.8895777993
 H   -1.5469155271   -2.3522315736   -1.8812395981
 H   -0.1703823410   -2.9559315985   -0.9375528289
 H   -3.0052512483   -4.0168828137   -0.8186840985
 H   -1.6291307665   -4.6205242026    0.1248361035