16

 O    0.1391146533    1.4267871978    0.0813466489
 C    0.0871272645    0.0261918504    0.2225405041
 C   -1.3219035374   -0.5116436939   -0.0321416800
 O   -1.7221262942   -0.1893243246   -1.3737281213
 C   -2.0588933756   -1.3032987343   -2.1101510812
 N   -2.4143278723   -1.2715048017   -3.3171645196
 C   -1.9410955692   -2.5416608671   -1.2569813917
 C   -1.4140083979   -2.0345630748    0.0747851080
 O   -1.1023635083   -2.6754734830    1.0418748605
 H   -0.1498025721    1.6321919205   -0.8151076722
 H    0.7950375504   -0.4815979954   -0.4516330146
 H    0.3699737553   -0.2136091429    1.2511668192
 H   -2.0226757323   -0.0346431856    0.6639719737
 H   -2.4178270847   -0.3127631703   -3.6700549142
 H   -2.9130755856   -3.0275752417   -1.1243458599
 H   -1.2719855541   -3.2849936835   -1.6983192299