19

 C   -0.0076364629    1.4972903618    0.0225814496
 C    0.0452624516   -0.0096213494   -0.0302725323
 C    0.4373862464   -0.7167438557   -1.3342725271
 C    0.3545335245   -2.2135138699   -0.9152243472
 C   -0.0650337114   -2.0457704441    0.5313589904
 O   -0.2477551673   -3.1960877701    1.2679835519
 C    0.6580303543   -0.8068410847    1.1604780014
 O   -0.5256722736   -0.5456425682    2.0048534091
 C   -1.0680173924   -0.8500428333    0.6648675183
 H    0.9688526851    1.9343232921   -0.2143932164
 H   -0.7289856707    1.8918142269   -0.7017753120
 H   -0.3027577303    1.8285250296    1.0217571305
 H   -0.2521286160   -0.4692735009   -2.1477105355
 H    1.4409878564   -0.4268843168   -1.6615617350
 H   -0.3860122713   -2.7806992440   -1.4860805115
 H    1.3103804269   -2.7382294020   -0.9989781613
 H   -0.5090031577   -2.8995941033    2.1520811338
 H    1.6415241028   -0.7246291721    1.6274067163
 H   -2.1520174343   -0.8195825456    0.5381524269