19

 N   -0.2103728795   -1.1749492530   -0.1266112101
 C   -0.1245913895   -0.0267198514   -0.0283542382
 C    0.0099932384    1.4221611048    0.0907912021
 C    1.4701642514    1.8926130193   -0.0611553470
 N    1.5326818995    3.3362185553    0.0566579216
 C    1.4819100840    3.9690952871    1.4114313119
 C    2.7701498880    4.7329457435    1.0976510245
 C    3.8728155852    3.7516255631    0.7904362796
 C    2.7990133022    4.0072761674   -0.2363046055
 H   -0.6095440143    1.9112254952   -0.6677196074
 H   -0.3815191277    1.7295847646    1.0675177307
 H    2.0976029273    1.3582728383    0.6728955142
 H    1.8362046677    1.6170266893   -1.0557528208
 H    0.5931936886    4.5956638309    1.5340798776
 H    1.5434285399    3.2664838484    2.2549054262
 H    2.9481540984    5.7787558510    1.3060053585
 H    4.8357273121    4.1976544188    0.5619739890
 H    3.9326877711    2.8050522725    1.3211071250
 H    3.0088560072    4.3729649049   -1.2357490519