17

 C    0.1505041606    1.5153795653    0.1455816775
 C    0.0525961223    0.0639394297    0.1043901947
 C   -0.0352108835   -1.1372832828    0.0804394383
 C   -0.0997280678   -2.5723156592    0.0188201284
 N   -0.7886045405   -3.2922507602    1.1221942789
 C   -1.3658458687   -3.3320852572   -0.2296869498
 C   -2.7133046325   -2.6589662493   -0.3426274264
 O   -3.7065829227   -3.3988394958    0.3478090131
 H    1.1917620639    1.8455555209    0.0616845513
 H   -0.4117854070    1.9779217355   -0.6731726191
 H   -0.2475150555    1.9107952328    1.0865709651
 H    0.8016366037   -3.0419843829   -0.3711331577
 H   -0.2875890308   -4.1537887430    1.3229495400
 H   -1.2652823121   -4.2614912707   -0.7876452451
 H   -2.6377227404   -1.6298613669    0.0337444799
 H   -3.0299795732   -2.6138278727   -1.3897885833
 H   -3.3976674957   -3.4640889136    1.2593204341