16

 C   -0.4521897645    1.4208747910    0.2381948831
 C   -0.0152432434   -0.0227863779    0.1533358954
 N    1.2854992564   -0.3002346595   -0.4725494481
 C    1.0955728296   -0.6147288942    0.9543360893
 C    1.9221302231    0.1548689355    1.9298506702
 C    1.8523494266   -0.1180154373    3.3712721544
 O    2.9548054198   -0.5845135513    2.5944599790
 H    0.3962057245    2.0838836316    0.4209702607
 H   -0.9211773605    1.7331732868   -0.7009269407
 H   -1.1828053913    1.5608875888    1.0421991996
 H   -0.8250806468   -0.7161490299   -0.0741087342
 H    1.2535620266   -1.1461967963   -1.0340396303
 H    0.9877729506   -1.6619119068    1.2341423253
 H    2.2283953148    1.1468557832    1.6024752055
 H    2.0778517715    0.6737349919    4.0845982665
 H    1.1790765930   -0.8920783958    3.7393117144