21

 C   -0.1385765280    1.3869839286   -0.3444729240
 C    0.0733463448   -0.0892024894   -0.0108486194
 C    1.1744130258   -0.7337599297   -0.9302465423
 C    2.2006742565   -0.5174970713    0.2152504673
 C    1.0228666401   -0.2999057013    1.2019617421
 N   -1.2471073564   -0.6904324767    0.1489121297
 C   -1.9206250762   -1.2343609723   -1.0220761840
 C   -1.4294161427   -2.1298822158    0.0638791218
 H    0.8156138586    1.9178260410   -0.4182703222
 H   -0.6588934071    1.4943932857   -1.3026346370
 H   -0.7465779493    1.8643089099    0.4294541753
 H    1.0068142242   -1.7956289325   -1.1287354977
 H    1.3681081443   -0.2344742723   -1.8833435242
 H    2.8776237589   -1.3467112185    0.4312360547
 H    2.8012585214    0.3841971050    0.0723404774
 H    1.0973267629    0.5216312709    1.9191687672
 H    0.7685066728   -1.2149252714    1.7438953786
 H   -2.9779870573   -1.0031002624   -1.1203160187
 H   -1.3721299990   -1.2634279731   -1.9626759049
 H   -0.5772000406   -2.7665884624   -0.1647523849
 H   -2.1229096736   -2.5535356320    0.7855602850