21

 C   -0.1234832324    1.6734332305    0.0026696722
 C    0.0922404634    0.1501591419    0.0594546771
 C    0.8628043427   -0.2163415319    1.3373307078
 C   -1.2883136847   -0.5791697043    0.0513545110
 C   -2.1436029978   -0.2366192646    1.1850400757
 N   -2.8057438802    0.0451269686    2.0897939803
 C    0.7997670469   -0.2796453031   -1.2280536743
 C    2.2686379408   -0.4245842056   -1.3632588127
 N    1.3931137657   -1.6122662568   -1.4216872020
 H    0.8384799652    2.1939903139   -0.0163241903
 H   -0.6787749380    1.9612081152   -0.8965903970
 H   -0.6859633313    2.0253192877    0.8724676864
 H    0.2677437319    0.0316278820    2.2205882756
 H    1.0936915395   -1.2861389068    1.3949164962
 H    1.8011567929    0.3400528704    1.4055561904
 H   -1.8268007067   -0.3360220055   -0.8717947079
 H   -1.1351542299   -1.6641713149    0.0471838997
 H    0.2636882038    0.0547281065   -2.1167427805
 H    2.7525141719   -0.1655148214   -2.3006941827
 H    2.8909811861   -0.2876466363   -0.4844078047
 H    1.4462976503   -2.1077342254   -0.5344272804