14

 N    0.1108343815    1.3812630218    0.0068191372
 C   -0.0544736524    0.0497843357    0.0006775539
 C   -1.1215156167   -0.7931197541    0.0027569138
 C   -0.5950174079   -2.2048590819   -0.0080309814
 O    0.8409298195   -2.0796023789   -0.0162022389
 C    1.1935333885   -0.7796198880   -0.0115800458
 O    2.3221184831   -0.3674923603   -0.0160447717
 C   -2.5344010806   -0.4978567420    0.0130670331
 O   -3.4040838627   -1.3489049937    0.0136789762
 H    1.0585470759    1.7259443364    0.0027468117
 H   -0.6529623935    2.0320359834    0.0150440913
 H   -0.8841768386   -2.7801252848    0.8772385480
 H   -0.8950967524   -2.7706647654   -0.8957598005
 H   -2.7989406238    0.5843775318    0.0203163028