19

 C    0.0863229620    1.5648191632   -0.0473691922
 C    0.0028570277    0.0369326242    0.0807208266
 N    0.6772605226   -0.4930747846    1.2688641556
 C   -1.4728265795   -0.5048079276    0.0348054105
 C   -2.2771617670   -0.1078382945    1.2862286780
 N   -2.2344940416   -0.0874305877   -1.1505268160
 C   -1.3879485694   -1.9819159800   -0.0231507429
 N   -1.3246646542   -3.1318971491   -0.1115057608
 H    1.1365376171    1.8696827013   -0.0831602569
 H   -0.3959355476    1.9388937305   -0.9555660271
 H   -0.3722553048    2.0653667393    0.8126653781
 H    0.5030150554   -0.4056164580   -0.7894717088
 H    1.6777656020   -0.5494081453    1.1157007057
 H    0.5400652872    0.1242744446    2.0633437830
 H   -2.3749445320    0.9808780174    1.3444641798
 H   -3.2788986565   -0.5373153318    1.2294634419
 H   -1.7881246145   -0.4702408575    2.1917794882
 H   -2.4008130086    0.9130306547   -1.1167692806
 H   -1.7125869483   -0.2823843791   -2.0002132521