18

 C    0.0170274438    1.1980286035   -0.6910759457
 C   -0.1254206875    0.2232796466    0.4918831243
 C   -1.4340580938   -0.4170293703    0.5571200415
 C   -2.5174876505   -0.9405015457    0.5875476513
 C   -3.8302411640   -1.5580181433    0.6480268447
 O   -3.8329590011   -2.7648947248   -0.1119212395
 C   -5.0891410611   -3.3939986965   -0.0769034901
 C   -5.0342681446   -4.6230578256   -0.8726493977
 N   -5.0260384711   -5.5974441774   -1.4915303212
 H    1.0144613479    1.6470535943   -0.6950482322
 H   -0.1318491634    0.6788813845   -1.6414574653
 H   -0.7222064530    2.0008436598   -0.6250426096
 H    0.6474083076   -0.5530443859    0.4265324598
 H    0.0619977951    0.7541200063    1.4340321732
 H   -4.1033462122   -1.7754574389    1.6947013545
 H   -4.5967366529   -0.8683449456    0.2553132946
 H   -5.3864264639   -3.6558090879    0.9525532710
 H   -5.8821473154   -2.7461166830   -0.4869300934