21

 C   -0.0290636532    1.4947535628    0.0012540136
 C   -0.0040451895   -0.0146250768   -0.0354330256
 C    0.9752582546   -0.7018369181   -0.9845374207
 C    0.4366418975   -2.1142555407   -1.1517271829
 C    0.0854890746   -2.8690701537    0.1105186253
 C    0.3121913120   -2.1433888430    1.4289161109
 C   -0.3416260221   -0.7836233131    1.2263023815
 C   -1.2774738112   -0.8453085827    0.0277128288
 C   -1.0049559866   -2.1610367393   -0.6760030004
 H    0.9269398159    1.9024736127    0.3518171696
 H   -0.2228423772    1.9143317532   -0.9931797933
 H   -0.8093970820    1.8624613693    0.6756211970
 H    0.9833885543   -0.1816160669   -1.9510156255
 H    2.0045659129   -0.6846235744   -0.6022747430
 H    0.7527297573   -2.6938992528   -2.0124975235
 H    0.1672218390   -3.9505754981    0.0877057192
 H   -0.1787319349   -2.6812639108    2.2490562152
 H    1.3764022621   -2.0641318443    1.6859355557
 H   -0.6088630061   -0.1997969888    2.1017938667
 H   -2.2642590406   -0.3994466515    0.0294858870
 H   -1.7860347866   -2.6884535026   -1.2076533257