17

 C   -0.7550882907    1.3254322810    0.1088231921
 C    0.0566084686    0.0413277065   -0.0509083557
 C    1.3099619201    0.1448392955   -0.9283232173
 C    2.2079056363   -0.9738004006   -0.4142034757
 O    3.1507280736   -1.4844331294   -0.9358147799
 O    1.7521193665   -1.3726991065    0.8160660653
 C    0.6741868742   -0.5530222900    1.2521280241
 C    1.1837081159    0.5386273576    2.1883390375
 O    2.3108241472    0.9551616207    2.1737895257
 H   -0.1385300722    2.1521489210    0.4769110253
 H   -1.1720421076    1.6304067063   -0.8553332982
 H   -1.5925075130    1.1897127807    0.8014522421
 H   -0.5924791362   -0.7392796272   -0.4639171923
 H    1.1282525791    0.0245973128   -1.9970002404
 H    1.8318782814    1.0970337393   -0.7791842364
 H   -0.0386800848   -1.1830942677    1.7941809073
 H    0.4150907516    0.9486517800    2.8807899964