16

 N   -0.2059671527    0.3974913998    0.9233756444
 C    0.0153428213   -0.0078502106   -0.3589143336
 O    0.8784376890    0.4630173743   -1.0717915310
 C   -0.9619669926   -1.0868901482   -0.8494204216
 C   -0.9919597685   -2.3149496248    0.0297100984
 O   -1.5212559617   -2.1628501361    1.3524007850
 C   -2.2513949500   -2.9907991963    0.4254672245
 C   -3.5428231339   -2.5285028496   -0.0030337229
 C   -4.6326052203   -2.1738855190   -0.3655992114
 H    0.4374898233    1.0585751211    1.3267003571
 H   -0.8453103444   -0.1019423812    1.5210322953
 H   -1.9667535938   -0.6559695472   -0.9067422135
 H   -0.6488224321   -1.3632513566   -1.8584173588
 H   -0.0986816703   -2.9397426442   -0.0064824795
 H   -2.1985013438   -4.0525429349    0.6630200106
 H   -5.5956397194   -1.8560071565   -0.6825896027