18

 O   -0.0884433736    1.4346511596   -0.1868640221
 C    0.0565056595    0.0381881139    0.0342964849
 C   -1.3408787902   -0.5484915704    0.0033202684
 C   -2.1314192824   -0.5946423494   -1.3317301552
 C   -2.6574173997   -1.9988498961   -0.9307564984
 C   -1.4929147773   -2.0981805984    0.1054368794
 O   -0.3320462454   -2.7136382896   -0.4222616194
 C   -1.8210500512   -2.6590724221    1.4230547773
 N   -2.0927140614   -3.1178546598    2.4490714542
 H    0.7900405512    1.8211688766   -0.2450923455
 H    0.6754241783   -0.4333909073   -0.7402722780
 H    0.5262860028   -0.1707961017    1.0085677569
 H   -1.9454571805   -0.0759408596    0.7824980863
 H   -2.8731441352    0.1873918008   -1.4927015679
 H   -1.4636843731   -0.6357007784   -2.1951062565
 H   -3.6333204611   -1.9618190978   -0.4417629526
 H   -2.6614879573   -2.7862414956   -1.6879691196
 H   -0.5038772434   -3.6577978446   -0.5142599724