18

 O   -0.0265669968    0.3590076800    1.1215880827
 C    0.0167732181    1.1449757564    0.1408856246
 O    0.8675978374    1.3920481523   -0.7104853613
 C   -1.3317771860    1.9525076375    0.0182983734
 C   -1.9919600925    2.1813898960   -1.3655590923
 C   -3.2721612040    1.3373880457   -1.1599653478
 C   -2.6790921867    0.0775042063   -0.4750359222
 N   -2.3913529592    1.0563040786    0.6436987414
 H   -2.0107295945    0.6960857601    1.5312256485
 C   -3.6978492315    1.7353317388    0.2883350920
 H   -1.2764575999    2.8594374905    0.6250546926
 H   -2.2171043739    3.2314924882   -1.5644952932
 H   -1.3482849138    1.8034525812   -2.1620015402
 H   -3.9993258035    1.2609681840   -1.9635098823
 H   -3.4155690280   -0.6553998714   -0.1441917811
 H   -1.7844662177   -0.3934615150   -0.8767521556
 H   -3.7364222654    2.7876525411    0.5708686397
 H   -4.5489457720    1.1773536298    0.6813613411