14

 C   -0.0116692502    1.4162493692    0.0636777323
 C    0.0127980511   -0.0632971046   -0.0482960026
 N   -0.0366828445   -0.7809153690   -1.1418870959
 C    0.0167355019   -2.0741169698   -0.6949831419
 O   -0.0108654558   -3.1117602305   -1.5329216748
 C    0.0983743622   -2.1068989018    0.6770073940
 O    0.0942802465   -0.7794983468    1.0783959856
 C    0.1773885097   -3.1781436857    1.6370044403
 O    0.2456307556   -3.0455248389    2.8415047885
 H    0.8937011881    1.7797242433    0.5598171819
 H   -0.0790599375    1.8531530220   -0.9322766972
 H   -0.8675894071    1.7427464516    0.6626765788
 H   -0.0715171530   -2.7548661797   -2.4288494090
 H    0.1697016930   -4.1778016792    1.1520727999