18

 C    0.5319326294    0.6613428196   -0.3715322056
 O   -0.7675205026    0.9561285001    0.1059301598
 C   -1.6326282056   -0.0832981472    0.0545183068
 C   -1.5448610796   -1.3838663535   -0.3605196403
 C   -2.8441495193   -1.9884920676   -0.1517280669
 C   -3.2316617311   -3.4023257048   -0.4581987762
 C   -3.6384850663   -1.0088115676    0.3792030606
 O   -4.9389989417   -0.9644851853    0.7823470504
 N   -2.9102684143    0.1513725735    0.5075666727
 H    1.1161737434    1.5773573165   -0.2728095397
 H    0.9972541914   -0.1385401249    0.2192270636
 H    0.5046551306    0.3528426107   -1.4248209379
 H   -0.6754801092   -1.8738788835   -0.7676214436
 H   -2.6279264366   -4.1275218889    0.1015543047
 H   -4.2797165762   -3.6035194857   -0.2035701138
 H   -3.1157315360   -3.6418021732   -1.5225986050
 H   -5.3247774163   -1.8337465026    0.6381861325
 H   -3.2521141398    1.0233275246    0.8711687079