21

 C   -0.1945637412    1.4160434342    0.1011897681
 C   -0.3311806560   -0.0292254478   -0.3426068300
 O   -1.2285587997   -0.6879814925    0.5470919164
 C   -1.4361751845   -2.0344544970    0.2639138650
 C   -2.7192734449   -2.5748752858    0.8450725290
 O   -3.5484690343   -1.6900345588    1.5329224252
 C   -2.5572895537   -2.4603967635   -0.6655547644
 C   -3.3732582758   -1.4554701592   -1.4395908916
 O   -2.2509651860   -3.6535424839   -1.3426071937
 H    0.4997111412    1.9492003543   -0.5548176880
 H   -1.1626792569    1.9240992616    0.0655931547
 H    0.1848708712    1.4700911226    1.1255026243
 H   -0.7110814529   -0.0926608504   -1.3716266306
 H    0.6439321596   -0.5394409201   -0.3196224450
 H   -0.5441241594   -2.6608476447    0.2744125692
 H   -2.7020839283   -3.5774481599    1.2670667962
 H   -3.0279343638   -0.8910771267    1.6877192331
 H   -3.4989560482   -0.5312114765   -0.8736138772
 H   -2.8946942721   -1.2279683014   -2.3971922502
 H   -4.3737152876   -1.8540080952   -1.6465822519
 H   -3.0588869165   -4.1777357591   -1.3947882687