23

 C   -0.3497111181    1.4862086488    0.0811558431
 C   -0.0185110872   -0.0009967555   -0.0107949357
 C    0.6084153681   -0.3629441948   -1.3638640153
 C    0.7691817541   -1.8622772322   -1.6436279200
 C    1.6961915258   -2.6646915614   -0.7442514229
 C    2.9004705594   -2.0924694968   -0.0289551600
 C    1.7130185889   -2.5833527208    0.7626025445
 C    0.8604032214   -1.6113439546    1.5577500907
 O    0.8545744644   -0.2828054860    1.0797248212
 H    0.5589069524    2.0854046580   -0.0370830289
 H   -1.0596247093    1.7775782308   -0.6985149424
 H   -0.7847088875    1.7178179682    1.0566923036
 H   -0.9463326467   -0.5854893405    0.1186337886
 H   -0.0252801500    0.0580693679   -2.1546168259
 H    1.5757846490    0.1485878710   -1.4405098885
 H   -0.2253704346   -2.3317000233   -1.6233740299
 H    1.1250052553   -1.9736171760   -2.6763875780
 H    1.8445575643   -3.6727833731   -1.1258682825
 H    3.8191345008   -2.6688050316   -0.0170883943
 H    3.0440000308   -1.0184167740   -0.0515180166
 H    1.8311169888   -3.5326175952    1.2815110486
 H   -0.1732338946   -1.9910326635    1.6323624490
 H    1.2565330745   -1.5520287453    2.5790396716