15

 O   -0.2620461324    0.0940942456   -0.2829949255
 C   -0.0375607098    1.2334589923    0.0481019552
 C    1.2835263088    1.8541503575    0.0481850722
 C    1.9376037784    2.9033361002    0.9242689601
 C    3.2416182756    2.0934238036    0.9643194967
 C    2.7427297046    1.4010897510   -0.3381169705
 C    2.6951819200    2.5633231327   -1.3489813440
 O    3.1332222723    2.7392940403   -2.4474688060
 C    1.6571289160    3.2727831521   -0.5151312629
 H   -0.8484396299    1.9131266407    0.3961968372
 H    1.4721134429    3.4634582618    1.7259081880
 H    4.1900189510    2.6374751065    0.9100832866
 H    3.2486518148    1.4048395281    1.8117136978
 H    3.0566773201    0.4059855925   -0.6347299693
 H    0.9709820377    4.0602195853   -0.7963572355