14

 C   -0.1118464045    1.3657855779   -0.2441730840
 C    1.2874964567    0.9188166602    0.0093530979
 N    0.1857892393   -0.0329757808    0.0806959999
 C   -0.1885525868   -0.5373783373    1.3228130034
 N    0.6856678814   -0.7347014923    2.2868098071
 O   -0.0372507774   -1.3251785600    3.3262719695
 C   -1.3171371353   -1.4485622478    2.9482547377
 C   -1.4975580314   -0.9749053299    1.6930451204
 H   -0.5908139564    1.9689655383    0.5230000811
 H   -0.4609469927    1.5391414585   -1.2573730237
 H    1.9684024642    0.7690305485   -0.8224391304
 H    1.7510376428    1.2126280983    0.9458714647
 H   -1.9797413508   -1.8947670680    3.6742678172
 H   -2.3989445291   -0.9434453956    1.1052198994