20

 C   -0.0659042206    1.5087867647    0.0086644807
 N    1.2419744073    0.8215879586   -0.0516692087
 C   -0.0030330136    0.0299612420   -0.0139223054
 C   -0.2884498926   -0.7843505059    1.2495731098
 C   -0.2631732429   -2.3164660447    0.9925980517
 C   -0.5907634780   -2.5898912055   -0.4809619226
 C    0.4884071277   -1.9987206333   -1.4086712777
 C   -0.3899833560   -0.7380033580   -1.2652815462
 O   -1.5371727786   -1.5784983678   -0.9549250874
 H   -0.2621334000    2.0269380473    0.9440363947
 H   -0.4275849838    2.0253426374   -0.8774103091
 H    1.6027731047    0.8600243327   -1.0040861865
 H    0.4162746351   -0.4968409352    2.0336567315
 H   -1.2906373567   -0.5158403925    1.5954028836
 H    0.7164564661   -2.7495011478    1.2253518430
 H   -0.9910491687   -2.8089966008    1.6447577300
 H   -0.9504383032   -3.6044578191   -0.6690306429
 H    1.5189438123   -1.9569688728   -1.0489957735
 H    0.4466962136   -2.4175360211   -2.4154521976
 H   -0.5566984821   -0.0961478381   -2.1365023873