20

 C   -0.0272391569    1.6045518535   -0.1888352850
 C    0.0055643867    0.0806159964   -0.0494399824
 C    0.7802965277   -0.6270507509   -1.1932226720
 C    1.3096292511   -1.9518046307   -0.6007448778
 C    1.5066436290   -1.6490451934    0.8730408269
 N    2.1763958420   -0.3822261125    1.1459498575
 C    0.6998892581   -0.4191803447    1.2102168180
 C    0.0740358324   -0.3523605140    2.5478920368
 O    0.6893150325   -0.4712645877    3.5846794220
 H    0.9878753675    2.0103070178   -0.1371058574
 H   -0.4652113327    1.9007886131   -1.1474966068
 H   -0.6204357311    2.0713639440    0.6047731716
 H   -1.0257406178   -0.3007330859   -0.0214252445
 H    0.1579282374   -0.7806355500   -2.0785631936
 H    1.6229880753    0.0032272274   -1.4886090440
 H    0.5720289254   -2.7569111197   -0.6991784190
 H    2.2315794250   -2.2889425540   -1.0851078181
 H    1.5980118210   -2.4516325675    1.5988339647
 H    2.5067491631   -0.3896595785    2.1120636186
 H   -1.0265619559   -0.1939418327    2.5481391245