14

 O    0.0586647571   -0.0279079083    0.1971049463
 C    0.0495167354    1.1448220273   -0.0115123458
 O   -1.1459972371    1.7908270062   -0.2328621630
 C   -1.1473156186    3.0800563429   -0.7346382946
 N   -0.1798910190    3.7218884922   -1.2142477348
 C    1.1192982302    3.0698796238   -1.2046054349
 C    1.2727438141    2.0644789885   -0.0368387281
 C    1.3930345783    2.7368009485    1.2537485836
 C    1.4820217996    3.2968991014    2.3125646010
 H   -2.1552876724    3.4815088926   -0.6965273885
 H    1.2586823629    2.5478818371   -2.1607340094
 H    1.8992359570    3.8318899982   -1.1358666827
 H    2.1415395529    1.4197630274   -0.1989300283
 H    1.5686473896    3.7873117722    3.2508952491