15

 N   -0.0765309686    1.4384675171    0.1862889757
 C   -0.1165899233    0.0470902405    0.0617779190
 C   -1.2005944402   -0.6566292758   -0.2668236220
 N   -1.1549551887   -2.0366296183   -0.3687938265
 C   -0.0151723047   -2.7767315731   -0.1445554671
 N   -0.0273300988   -4.0454707360   -0.2516794221
 C    1.2037048799   -1.9698812183    0.2264837479
 N    2.2951611273   -2.5693099646    0.4506860631
 O    1.0946437848   -0.6103432489    0.3101162212
 H    0.5896540663    1.8553942591   -0.4584789804
 H    0.1921640737    1.7253138366    1.1237800063
 H   -2.1425283050   -0.1679892317   -0.4620383864
 H   -1.9781887511   -2.5617023762   -0.6171860167
 H    0.9081070654   -4.3967664072   -0.0464370537
 H    3.0332231230   -1.9066108633    0.6895899316