21

 C    0.6527049253    0.9574147293   -0.6205670872
 C   -0.2131270632    0.5789467528    0.5921185987
 C   -0.6944312021    1.8322779204    1.3392184415
 C   -1.3865742884   -0.2693777593    0.1271531104
 C   -1.2377328247   -1.7255046995   -0.1537156351
 N   -2.0911415395   -1.2711457942    0.9435162346
 C   -1.6358841172   -1.5939862951    2.2887893415
 C   -2.3099163189   -0.7622568513    3.2936225451
 N   -2.8239498457   -0.1092291665    4.0959297519
 H    1.5020096765    1.5753975351   -0.3129407474
 H    1.0425082762    0.0699013828   -1.1283368149
 H    0.0718777757    1.5329454353   -1.3505551920
 H    0.4133283829   -0.0145789419    1.2701407875
 H    0.1561203836    2.4370815370    1.6693808978
 H   -1.3114846613    2.4574826820    0.6833544073
 H   -1.2936328168    1.5808052492    2.2182083977
 H   -2.0848918094    0.2854235802   -0.4999958315
 H   -1.7491020979   -2.2025093274   -0.9852329742
 H   -0.2783650805   -2.1749920529    0.1045543620
 H   -1.8943772834   -2.6408449619    2.4873029873
 H   -0.5491553812   -1.5035533241    2.4462223289