18

 C    0.2105805303    1.1419112745    0.4899448898
 N   -0.2389793185    0.1110081844   -0.4850878115
 H   -0.4444785473   -0.8317943431   -0.0290278798
 H   -1.1055100109    0.4134960171   -0.9301638036
 C    0.7005025029   -0.3159932894   -1.5501016999
 C    2.0138821398   -0.9425366847   -1.1434661831
 C    0.8615014230   -1.8321447792   -1.4554986597
 O    0.1508538103   -2.3845974573   -0.3918652317
 C    0.6789190716   -2.6965400340   -2.7246786254
 O   -0.1178058772   -3.6427620687   -2.4586964522
 O    1.2511255654   -2.3371949167   -3.7503246857
 H    1.1063395515    0.7780121515    0.9902455535
 H    0.4374859073    2.0659536325   -0.0428195410
 H   -0.5805842067    1.3111808043    1.2229714843
 H    0.5810698577    0.1961509582   -2.4955303070
 H    2.7860399782   -0.8776296646   -1.9025010155
 H    2.3534244199   -0.8731572837   -0.1148764756
 H   -0.2628709174   -3.1477121011   -0.9611712357