18

 C    0.2303724665    1.6071624133   -0.0814470684
 C   -0.0042420915    0.1083296556    0.0794798830
 O    0.5555026695   -0.5824130991   -1.0516958462
 C    1.3249937457   -1.7053812580   -0.6300671550
 C    2.6724854518   -1.7035965157   -1.3625061522
 C    1.4271703664   -1.5453445479    0.8765752580
 C    0.6753283527   -0.5250154778    1.2643738634
 C    0.5879686406   -2.9587239574   -0.9534533951
 N    0.0230504978   -3.9376679390   -1.1948951534
 H    1.3010845380    1.8294306244   -0.0919868423
 H   -0.2086766308    1.9562902875   -1.0197992892
 H   -0.2367045776    2.1570475552    0.7418626047
 H   -1.0890224064   -0.0841117372    0.1132674103
 H    3.2182446508   -0.7952070701   -1.0975212188
 H    3.2668255259   -2.5781237353   -1.0836361991
 H    2.5094818040   -1.7211593930   -2.4426271531
 H    2.0205961526   -2.2102765184    1.4893593959
 H    0.5359092742   -0.1728301271    2.2786115976