13

 C    0.0944666028    1.5028099514   -0.0034563378
 C    0.0304008909    0.0506568501    0.0521461082
 C   -0.0251611453   -1.1496936886    0.0974266051
 C   -0.1007868749   -2.5970320567    0.1497493591
 C   -1.4761025168   -3.1636056529   -0.1853452548
 O   -2.4525823794   -2.5290072280   -0.4750570084
 C   -1.5303073209   -4.6429642843   -0.1257716485
 N   -1.5593962609   -5.7978097937   -0.0757732158
 H    0.8269747023    1.8395131442   -0.7447743175
 H   -0.8775588481    1.9260818055   -0.2779370475
 H    0.3810461348    1.9246851302    0.9657619157
 H    0.6154183861   -3.0700401474   -0.5389912437
 H    0.1710795595   -2.9860271597    1.1426350858