16

 N    0.1892955150    1.3081301569    0.3795522361
 C    0.0203546464   -0.0442584562    0.0711336455
 C   -1.0839862654   -0.8243880961   -0.0559742664
 O   -0.7271973849   -2.1087474538   -0.3029104787
 N    0.6553567700   -2.1947716443   -0.3396191163
 C    1.0911267995   -0.9760238890   -0.1177236840
 N    2.4397097149   -0.6139567470   -0.1405674091
 C    3.1746157924   -0.6072502311    1.1379228776
 C    3.4364989531   -1.6517238945    0.1111891198
 H    1.0336584382    1.6762123363   -0.0427511679
 H   -0.6015458133    1.8826284690    0.1198511382
 H   -2.1433231633   -0.6294205415   -0.0082178009
 H    3.8624852654    0.2221752005    1.2675403740
 H    2.6265056297   -0.9041099235    2.0276249963
 H    3.0676689182   -2.6539922080    0.3028391545
 H    4.3237326341   -1.5888634279   -0.5107099886