17

 C   -0.0570656134    1.4348340972   -0.2650911270
 C    0.0664574185    0.0277061073    0.3172098247
 O    0.6712299254    0.0284731995    1.6075698678
 C   -1.2862031070   -0.6568423240    0.3832763622
 O   -1.8923976972   -1.0378209413   -0.8547682240
 C   -1.5363310919   -2.0730585609    0.0757216175
 C   -0.4902688046   -3.0691609708   -0.3521037953
 H    0.9221290116    1.9196913018   -0.3022084633
 H   -0.4749506810    1.3948493233   -1.2750776905
 H   -0.7250834329    2.0520808443    0.3495809038
 H    0.7403442251   -0.5601341584   -0.3121263785
 H    0.1874087592    0.6534163854    2.1590176965
 H   -1.9763862328   -0.1708576586    1.0820048728
 H   -2.4038019731   -2.5215524799    0.5653193904
 H    0.3494577275   -2.5894811711   -0.8581565448
 H   -0.1084203044   -3.6142941249    0.5175706437
 H   -0.9270022091   -3.7988925989   -1.0418422461