23

 C    0.1423033815    1.5246514448   -0.1029002402
 O   -0.1714052945    0.1588080568   -0.2758241890
 C    0.6342186340   -0.4976393732   -1.2168286475
 C    1.9267000977   -1.1998411148   -0.7061630449
 C    2.2770152705   -1.0872226792    0.7650923662
 O    1.3844024036   -2.4972511186   -1.0446601328
 C    0.1454197238   -1.9298252966   -1.5659275426
 C   -1.0577060387   -2.4368797994   -0.7843696877
 C    0.0210120848   -2.2073046953   -3.0596492942
 H    1.1539623453    1.6721153211    0.3007737122
 H    0.0641703538    2.0769431240   -1.0519506580
 H   -0.5811086884    1.9340235559    0.6061677250
 H    0.7912613058    0.1446335142   -2.0946006876
 H    2.8093074386   -0.9827419701   -1.3244629423
 H    1.3817217454   -1.1470248954    1.3880422163
 H    2.9510765756   -1.9044271183    1.0397263924
 H    2.7881814118   -0.1414806518    0.9760710122
 H   -0.9633035932   -2.2075048568    0.2778021750
 H   -1.9821228386   -1.9810678850   -1.1518824633
 H   -1.1340620598   -3.5224562420   -0.9043339712
 H   -0.0702345773   -3.2834424474   -3.2377549641
 H   -0.8644806397   -1.7136994153   -3.4748065830
 H    0.9032323380   -1.8486021375   -3.5983349109