16

 C   -0.3763581941    1.3569167402   -0.0188315081
 N    0.0040676373   -0.0466160763   -0.0185583662
 N    0.0439906422   -0.6544306127   -1.2409144556
 C    0.3758281774   -1.8898937550   -1.2703253486
 N    0.6925457150   -2.6357968480   -0.1513849900
 C    0.6791787412   -2.1064958546    1.1274021318
 N    0.9546330442   -2.7161270409    2.2123573402
 C    0.2926025074   -0.6545942670    1.1915293160
 N    0.2231207510    0.0120211899    2.2779673579
 H    0.4215631808    1.9674152590    0.4140060831
 H   -0.5602507522    1.6428133186   -1.0529619037
 H   -1.2736742830    1.5078263450    0.5884346046
 H    0.4162669785   -2.3983334245   -2.2247618828
 H    0.9428600572   -3.6067758814   -0.2656365350
 H    1.2038159806   -3.6937297863    2.0597390663
 H    0.4704344864   -0.6111215261    3.0474942100