19

 C   -0.1696373714    1.4874340669    0.0312389193
 C    0.0416154457   -0.0078587024    0.0002806927
 C   -0.7607113359   -0.9388628907    0.8952226856
 C    0.7184853459   -0.7843040546    1.1041191450
 O    1.5890962730   -1.7656809765    0.5903990739
 C    1.5894131762   -1.7210288235   -0.8251460476
 C    0.6705919495   -2.7214604700   -1.5509020743
 O   -0.2760120893   -1.6774702666   -1.8798639356
 C    0.5588484004   -0.6572493587   -1.2775633436
 H    0.7178818738    2.0253193911   -0.3218735566
 H   -1.0139862922    1.7828062944   -0.6019560981
 H   -0.3834501934    1.8338880994    1.0470916020
 H   -1.4190701879   -0.4725412935    1.6215726148
 H   -1.1396951068   -1.8549121376    0.4579546075
 H    1.1070007488   -0.3171150826    2.0031284285
 H    2.6205438821   -1.6626527670   -1.1834633646
 H    1.1002335610   -3.1740823185   -2.4528276753
 H    0.2399832284   -3.5008454908   -0.9126935686
 H    0.8696039520    0.0871792811   -2.0177433951