15

 C   -0.0762431158    1.5612536863   -0.0803570500
 C    0.0027743502    0.0558333543   -0.0049043398
 O   -1.1709618538   -0.6126386046   -0.3887518851
 C    1.3004354409   -0.6620824300   -0.2495670998
 C    0.6921946236   -0.6332476499    1.1570843717
 C    1.3183569724    0.1071099594    2.2107293562
 C    1.8450690642    0.7250072171    3.0989499155
 H    0.8239181069    2.0260604192    0.3277616352
 H   -0.1890355882    1.8885735226   -1.1210736753
 H   -0.9393674445    1.9219464666    0.4871821111
 H   -1.2920952217   -0.4732067934   -1.3350016976
 H    1.2572141003   -1.6113958157   -0.7709316941
 H    2.1979498785   -0.0761830920   -0.4121382993
 H    0.2041945170   -1.5546333737    1.4597605752
 H    2.3061081700    1.2681542538    3.8858796263