17

 C   -0.0454977761    1.4901535609    0.0016241142
 C    0.0192551483   -0.0061831276   -0.0345444980
 C    0.9071287470   -0.8977453636   -0.9068329446
 C    0.0351666504   -2.0695727114   -0.3984927277
 N    0.4573158592   -2.1578545755    1.0461103746
 C   -0.2913105129   -0.8869543992    1.2111822591
 C   -0.6588925983   -0.3372593496    2.4708041632
 N   -0.9714765261    0.1062957852    3.4937797439
 C   -1.1045220427   -1.0218352230   -0.0619742390
 H    0.9009703091    1.9137768972    0.3540713015
 H   -0.2452921388    1.8921874022   -0.9972063142
 H   -0.8360554528    1.8404355272    0.6721544654
 H    0.7327539912   -0.6861507383   -1.9652310278
 H    1.9772536055   -0.9595719610   -0.6918042848
 H   -0.0637716901   -3.0054718444   -0.9417688944
 H   -0.1092920490   -2.8840635536    1.4859090049
 H   -2.1667225938   -0.9371415555   -0.2509154263