20

 C    0.0994404124    1.5776438900    0.0155426544
 C    0.0165017952    0.0460037141    0.0448077574
 C    0.7480842735   -0.5170820230    1.2658092352
 O    2.1143546724   -0.1463613060    1.1738829864
 C   -1.4293555285   -0.4755040599    0.0289587967
 C   -2.1852619126   -0.1470153252   -1.2722658932
 O   -1.5357141732   -0.6254901342   -2.4357525129
 C   -3.5728719415   -0.6528346199   -1.1957371915
 N   -4.6440729442   -1.0817082355   -1.1314858457
 H    1.1384910484    1.8939937445    0.1257800443
 H   -0.2782833581    1.9911634412   -0.9241414384
 H   -0.4787394735    2.0184736087    0.8372686838
 H    0.5284465273   -0.3460834365   -0.8420407820
 H    0.2882276383   -0.1213818784    2.1871992705
 H    0.6376143664   -1.6134545669    1.2892738518
 H    2.5592689070   -0.4240669916    1.9794843725
 H   -1.4388442849   -1.5660720579    0.1599997102
 H   -1.9974256247   -0.0583999435    0.8703518217
 H   -2.2386844649    0.9384534729   -1.4032474362
 H   -1.5015755946   -1.5882859429   -2.3889981849