19

 O   -0.3261345466    1.4604151751   -0.0503848389
 C   -0.2162945059    0.0660234758   -0.0326990706
 C   -0.4215651304   -0.7593729537    1.2106092810
 C   -1.4615102398   -0.0940217269    2.1199998080
 C   -2.4872441136   -0.1015802819    0.9439152967
 C   -1.4426969515   -0.7769639606    0.0428070159
 C   -1.7590937225   -1.8660939317   -0.9592735168
 C   -2.5293692783   -1.3752316109   -2.1001060846
 C   -3.1693746471   -0.9500010484   -3.0241991525
 H    0.4313206926    1.8247571038    0.4196760704
 H    0.5472445750   -0.3313798376   -0.7041082516
 H    0.2945116641   -1.5160693573    1.5138347665
 H   -1.7702614913   -0.7342965991    2.9485188183
 H   -1.1859381254    0.8875344446    2.5159852174
 H   -3.3423465930   -0.7517979014    1.1434142317
 H   -2.8475735881    0.8691600181    0.5986328575
 H   -0.8261367148   -2.3225700752   -1.3147750448
 H   -2.3204531302   -2.6701819267   -0.4637063350
 H   -3.7306777733   -0.5773360761   -3.8445931487