17

 O    0.0646938140    0.0262367437   -0.0263817905
 C    0.0114194084    1.2207190299    0.0076444351
 C   -1.1588172255    2.1863377236    0.0548940815
 C   -0.7422897959    3.2464533493    1.1198146158
 C   -1.0563591408    4.2940076854    0.0394396966
 N   -0.8565071305    3.2398151656   -1.0179949762
 C    0.6220270186    3.0785963531   -1.2499676375
 C    1.1080827111    2.3019594446   -0.0078790922
 N    0.7164721460    2.9902664131    1.2403977018
 H   -2.1735675637    1.7988617027    0.0354804703
 H   -1.2260453380    3.2907163279    2.0992715180
 H   -2.0999418952    4.6268649363    0.0347715650
 H   -0.3983110631    5.1671896639   -0.0376147775
 H    0.7872264729    2.5045399580   -2.1702271230
 H    1.0874938562    4.0608122672   -1.3725586135
 H    2.1359509226    1.9436952146    0.0018576695
 H    1.2299860330    3.8562382009    1.3760616968