19

 C   -0.1936716563    1.5196428923    0.1430483005
 C    0.0771437195    0.0225563962    0.0504331203
 C    0.6732322969   -0.5537580982   -1.2414520974
 C    2.1222828107   -0.1356756757   -1.4070649413
 C    1.7947005108   -1.2314013542   -0.4526843021
 O    2.4000914395   -2.4630288435   -0.5766971845
 C    1.2385688738   -0.6533932935    0.8831903314
 C    2.2452326733    0.1403551263    1.6672323848
 O    2.5270543678    1.2991535090    1.4726663801
 H    0.6869542188    2.1148112552   -0.1001285940
 H   -1.0008390583    1.7899700492   -0.5472251034
 H   -0.5098479643    1.8008574501    1.1528573519
 H   -0.8440945299   -0.5175365038    0.2940264938
 H    0.1000070445   -0.9297503141   -2.0806129816
 H    2.5830147896   -0.4938415035   -2.3217555047
 H    2.4804500527    0.8289661406   -1.0608422409
 H    1.7754521376   -3.1419258902   -0.2963791491
 H    0.8542265625   -1.4613420643    1.5155506036
 H    2.7883742109   -0.4456875680    2.4449396126