19

 C    0.0655665609    1.5488808538   -0.1161728027
 C    0.0326133368    0.0253893437    0.0085309050
 C   -1.4026512806   -0.5121406191   -0.0477165593
 N    0.9286704689   -0.5246412784   -1.0675490459
 C    1.6129932781   -1.4250036286   -0.4854331504
 C    3.0414557960   -1.1579118407   -0.0681752707
 C    2.2664719029   -0.9148895637    1.2820565893
 C    0.7724507640   -0.5248595052    1.2519148474
 N    1.1929083024   -1.8768489490    0.8883205663
 H    1.0952979104    1.9131703168   -0.1464764101
 H   -0.4390261489    1.8715345282   -1.0310498019
 H   -0.4428471376    2.0077478153    0.7393238982
 H   -1.8390087227   -0.2841786751   -1.0245222661
 H   -1.4187804757   -1.5955209074    0.0945904666
 H   -2.0299276084   -0.0500855657    0.7221381033
 H    3.6985943316   -2.0194844044    0.0763853761
 H    3.5385836617   -0.3425819680   -0.5916563812
 H    2.7619629918   -1.0329859473    2.2450041503
 H    0.3163231184   -0.4088504052    2.2341755360