17

 C   -0.0190157056    1.4323211822    0.0275186007
 N   -0.0219319945   -0.0244398829    0.0417948658
 C   -0.1191101862   -0.7969578893   -1.0760324494
 C   -0.0951516611   -2.1297105458   -0.7117693603
 C    0.0257820988   -2.1633800188    0.6909302670
 C    0.0727558606   -0.8511605592    1.1473391775
 C    0.1817774440   -0.3164626398    2.5115843530
 N    0.4282788422   -1.2560191917    3.4880121139
 O    0.0350196112    0.8664313945    2.7883137422
 H    0.8834611417    1.8226396797    0.5001315211
 H   -0.0577383560    1.7575203638   -1.0140483000
 H   -0.8760915737    1.8271015497    0.5738018162
 H   -0.1977278171   -0.3361769575   -2.0485241048
 H   -0.1625434164   -2.9715933239   -1.3828297325
 H    0.0420511742   -3.0473613446    1.3107410026
 H    0.8712108215   -2.1257966944    3.2437339419
 H    0.6499256363   -0.8756643418    4.3947882550