19

 C   -0.0085041959    1.5422268491   -0.0079223816
 N   -0.0254697029    0.1008094123    0.0977874817
 C   -1.2662755267   -0.5618846833    0.5432148095
 C   -0.3984227172   -1.5764355630    1.3244958635
 C    0.7400131901   -0.5383825267    1.1852630361
 C   -0.8132951750   -2.2648685107    2.6472304421
 C   -0.5583483290   -3.6012465044    1.9028859509
 O   -0.6262598378   -4.7709857303    2.1635493543
 N   -0.2040590047   -2.9123108838    0.7658874321
 H    0.9990581337    1.8844995966   -0.2661045685
 H   -0.6862168159    1.8647887515   -0.8051967437
 H   -0.3138906864    2.0485357165    0.9282619348
 H   -1.8755709216    0.0577307652    1.2235059146
 H   -1.9054647551   -0.9501962725   -0.2572400463
 H    1.7332725183   -0.9074976462    0.9072417331
 H    0.8278481630    0.0893627170    2.0886830852
 H   -0.1498639749   -2.0881692149    3.4962135560
 H   -1.8501486126   -2.1092736140    2.9519555647
 H    0.0946747906   -3.2212172486   -0.1479621383