17

 O   -0.1884433776    0.1779251560    0.6580008885
 C   -0.0592375961    1.1703273249   -0.0103793615
 C    1.2431474723    1.9528098605   -0.0894211660
 C    1.2885026889    2.9053506985   -1.2697836488
 O    2.3094567179    3.2858713437   -1.7840393235
 C    1.4357538839    2.7402450952    1.2328596873
 C    2.6971753412    3.6114483339    1.3990372914
 C    1.6921308797    4.7587598194    1.6312323968
 O    0.5737441715    3.8949234565    1.3075110569
 H   -0.9102740987    1.5837561216   -0.5958354796
 H    2.0760105777    1.2438030538   -0.1536574425
 H    0.2994501740    3.2624874452   -1.6309349543
 H    1.2507105841    2.0428041792    2.0599242675
 H    3.3446164261    3.3484519217    2.2359767471
 H    3.2879865642    3.7120224949    0.4884529523
 H    1.6309141832    5.1226370220    2.6634277372
 H    1.7538740878    5.6127610228    0.9493193014