14

 C    0.0158244339    1.5027654461   -0.0960828572
 C   -0.0189593536    0.0117295957    0.0031508935
 C   -1.1367374639   -0.7209737798    0.1758243064
 C   -1.0357437191   -2.1536159221    0.2558986982
 N    0.0577472327   -2.8269974000    0.1757917036
 O    1.2233781914   -2.0863451560   -0.0026710444
 C    1.2548205180   -0.7024230017   -0.0946976267
 N    2.3619554851   -0.1006356093   -0.2578697368
 H    0.6593631090    1.9195631064    0.6850839898
 H    0.4625396561    1.8088190491   -1.0473484013
 H   -0.9863338187    1.9284907280   -0.0095295485
 H   -2.1125072614   -0.2543445373    0.2559427327
 H   -1.9194215995   -2.7693521338    0.3946661726
 H    3.1337313199   -0.7680089853   -0.3021592721