20

 C   -0.1610006795    1.7903400001   -0.1862192819
 C   -0.2641830825    0.2577230404   -0.0759947203
 C    0.6079691666   -0.4851374783   -1.0359133974
 C    0.3065743491   -1.2646031562   -2.1239126042
 C    1.5280998661   -1.7267092046   -2.7129198090
 C    2.5413770077   -1.2014549703   -1.9472455187
 N    1.9932686283   -0.4545602942   -0.9409094033
 O    3.8908033226   -1.2785179230   -1.9921826129
 C    4.4037862469   -2.0681394804   -3.0502777629
 H    0.8585740000    2.1385782263    0.0113736611
 H   -0.4338879153    2.1250992777   -1.1913760410
 H   -0.8242587435    2.2810903965    0.5335121609
 H   -0.0390773526   -0.0421295514    0.9578878417
 H   -1.2983834526   -0.0505901817   -0.2604901085
 H   -0.6912693539   -1.4879671803   -2.4712050201
 H    1.6356031956   -2.3604935038   -3.5773807272
 H    2.5346522666    0.0229600068   -0.2413352930
 H    4.0574324948   -3.1066594516   -2.9716259635
 H    4.1006055868   -1.6662248898   -4.0255941772
 H    5.4908432488   -2.0371358523   -2.9634385126