17

 C   -0.0534273413    1.4639741579   -0.0171378009
 N    0.0889606279    0.0183117496    0.0358514760
 C    0.6862266570   -0.6194169481   -1.0393519759
 O    1.2099470376    0.0081739149   -1.9483516123
 N    0.6837755903   -2.0003328961   -0.9842432765
 C    1.1359009074   -2.7421740856   -2.1460760909
 C    0.1499093038   -2.7567959224    0.1283030316
 H    0.8959972006    1.9004684752   -0.3278110035
 H   -0.8217562469    1.7943399298   -0.7289708477
 H   -0.3103974134    1.8325590444    0.9793842955
 H   -0.6401942191   -0.4750399581    0.5237751997
 H    1.9328022604   -3.4452343978   -1.8725708410
 H    0.3160383886   -3.3153974186   -2.6008770852
 H    1.5212597740   -2.0281339806   -2.8719982162
 H   -0.9367046429   -2.9275383484    0.0588930903
 H    0.6325791431   -3.7381610556    0.1573100442
 H    0.3680623929   -2.2578674306    1.0764150027