15

 O    0.2680774113    1.1612246507   -0.5943359450
 C   -0.0076621856   -0.1130855478   -0.0897795921
 C    0.4520535154   -0.2690726787    1.3596022170
 O    1.3974276597    0.2766708936    1.8530928786
 O   -0.3840436632   -1.0906490593    2.0316065258
 C   -1.5138141237   -1.4494356984    1.2043890481
 C   -1.4745495467   -0.4747832572    0.0317418782
 C   -2.5689248739    0.4198649788   -0.3452874443
 O   -2.2577912519   -0.7644131622   -1.1058550429
 H    1.0170719454    1.4980613671   -0.0817278247
 H    0.4929917585   -0.8992905629   -0.6837677889
 H   -1.3943732121   -2.4825629645    0.8604253393
 H   -2.4161332989   -1.3758499567    1.8137396641
 H   -3.5089439790    0.3845389329    0.2026787771
 H   -2.3298346152    1.3593697346   -0.8357559503