17

 C    0.0756217252    1.5205769756   -0.1750238084
 C    0.0191574932    0.0034225064    0.0636180836
 C   -1.3759433591   -0.5398592041    0.0169651685
 C   -1.9197785144   -1.4394024739   -0.8723878467
 N   -3.2278804014   -1.5967808569   -0.4920844597
 C   -3.4342773211   -0.7972861975    0.6026147053
 N   -2.3268604431   -0.1492412339    0.9265747133
 C   -4.6878057229   -0.7260689403    1.2514599727
 C   -5.7678058628   -0.6873459578    1.7820658314
 H    1.1009811503    1.8926013132   -0.0855573878
 H   -0.2940049213    1.7747707937   -1.1737009757
 H   -0.5473399969    2.0422212781    0.5562145654
 H    0.6329383026   -0.5184923916   -0.6792220014
 H    0.4547399267   -0.2207584594    1.0450038509
 H   -1.5029857296   -1.9661004717   -1.7150551005
 H   -3.9176835603   -2.1880119369   -0.9247892559
 H   -6.7136713352   -0.6413926931    2.2625253148