15

 O   -0.0951160093    1.3367531070   -0.0672912665
 C    0.0483383591   -0.0351611345   -0.0398698485
 C    0.9436542215   -0.8970333551   -0.9261725519
 C    0.0500120269   -2.0811732838   -0.4512565121
 C    0.3708456230   -2.2256175733    1.0638663196
 C   -0.2952492636   -0.8619978612    1.2185439486
 C   -1.0740821473   -1.0299084671   -0.0762155107
 H    0.5775494458    1.7241104163    0.5037503108
 H    0.7812803237   -0.6652481617   -1.9824972660
 H    2.0188149694   -0.9565970874   -0.7156254740
 H   -0.0840581955   -2.9548834592   -1.0845400234
 H   -0.2221537302   -3.0174067193    1.5311676577
 H    1.4242276083   -2.3413317559    1.3472285930
 H   -0.6277091255   -0.3568764322    2.1172084382
 H   -2.1240395064   -0.9359670725   -0.3097924049