19

 O    0.0456825751    1.4106125959    0.0872991289
 C    0.0409875145    0.0035925180   -0.0081778403
 C   -1.3794287496   -0.5504720888   -0.0223396946
 C   -1.4341471403   -2.0857882692   -0.1281273374
 C   -2.8565778683   -2.5886355907    0.0761751749
 O   -3.3798322426   -3.3981911116   -0.6515188512
 C   -3.5635304103   -1.9606564365    1.2686556626
 C   -3.3546662703   -0.4353983228    1.2743966177
 O   -1.9791048236   -0.1094602139    1.1929003385
 H   -0.5350301683    1.6256071861    0.8270302134
 H    0.5504269264   -0.2616726607   -0.9400162114
 H    0.5914968830   -0.4644421032    0.8249012490
 H   -1.9229844737   -0.1035582540   -0.8714256621
 H   -1.0650403046   -2.4370474440   -1.0948226735
 H   -0.8012770021   -2.5092655029    0.6636660934
 H   -4.6237966179   -2.2234276355    1.2424887641
 H   -3.1230131232   -2.3741164969    2.1849772402
 H   -3.9038546280    0.0212553269    0.4355704937
 H   -3.7270269562    0.0058376438    2.2025259241