19

 O   -0.1533079746    1.4988346262    0.5769542962
 C    0.0004138644    0.1740415420    0.0885828615
 C    0.6665762332   -0.7435544707    1.1239549780
 C   -0.4979898314   -1.0223578921    2.0802230814
 O   -1.6731313462   -1.0294889261    1.2678980758
 C   -1.3919935993   -0.4698647968   -0.0195781531
 C   -2.5188178965    0.4844051026   -0.4257034367
 C   -3.8670052767   -0.2020328997   -0.4400807096
 O   -4.6139021240   -0.2129184967   -1.3865126673
 H    0.7226135063    1.8751640069    0.7054621555
 H    0.5139740719    0.1695571834   -0.8820491083
 H    1.0080988615   -1.6659225090    0.6421451457
 H    1.5260104849   -0.2748617674    1.6115267702
 H   -0.4161885732   -1.9870700396    2.5908526739
 H   -0.5790306361   -0.2324758008    2.8386120959
 H   -1.3297661033   -1.2887120325   -0.7535821669
 H   -2.5491402740    1.2999721781    0.3054075461
 H   -2.3287472832    0.9074757968   -1.4162043276
 H   -4.1340010636   -0.7080484345    0.5117503296