17

 C    0.0238706544   -3.7789217744   -0.0382910523
 C    0.0358602976   -2.5710049418   -0.0127669509
 C    0.0483886079   -1.2116715172    0.0152233411
 C    0.0586546694    0.0005677333    0.0396041288
 C    0.0640512141    1.4301841722    0.0638261943
 C    0.4876583651    2.2498849580    1.2741454432
 C    1.6110636769    1.5448347963    2.0425569059
 C    2.4818283179    1.5636052657    0.7408229670
 C    1.3333762400    2.2681129198    0.0098512848
 H    0.0125795979   -4.8400499373   -0.0613316851
 H   -0.7592283562    1.8878615702   -0.4802891504
 H   -0.1804223334    3.0062636200    1.6688717361
 H    2.0346728924    2.1701598989    2.8307474537
 H    1.3641767919    0.5647614891    2.4588881738
 H    3.3636341243    2.1988108431    0.8440373450
 H    2.7853760155    0.5953978153    0.3342994647
 H    1.4329975042    3.0410387786   -0.7430833196