18

 C    1.0652538165    0.9021129874    0.0866663416
 O    0.7931605566   -0.4327401191   -0.2806354989
 C   -0.1034536166   -0.5368517516   -1.3634669759
 C   -0.2515207804   -2.0081113655   -1.7260991109
 N    0.9492279219   -2.5715072471   -2.3174659311
 C    2.1774777450   -2.7502451334   -1.7746276564
 C    2.9141373563   -3.3097943626   -2.7903630991
 N    2.1171179262   -3.4443990321   -3.8860144595
 N    0.9281767660   -2.9977250319   -3.6004088339
 H    1.5254059060    1.4646454207   -0.7396078998
 H    0.1510462744    1.4301002332    0.3982100706
 H    1.7610338241    0.8727581374    0.9279665964
 H   -1.0934299195   -0.1345026807   -1.0910465424
 H    0.2615974714    0.0304829727   -2.2342970918
 H   -0.5170629558   -2.5764950384   -0.8290265090
 H   -1.0400002484   -2.1352558299   -2.4700933881
 H    2.4000646503   -2.4564557165   -0.7642923284
 H    3.9470914958   -3.6177703325   -2.7983071434