19

 O    0.1411283005    1.2854165711   -0.0736977596
 C    0.0233830294   -0.1074054567    0.0097249097
 C   -0.4432611035   -0.6992281899    1.3102780217
 C   -1.3546225371   -0.6961026618    0.0555158846
 C   -1.3612782007   -2.2363985366    0.0525437481
 O   -2.6759061614   -2.7057954618    0.0437518681
 C   -0.2729459033   -3.0074399483   -0.7605737856
 C    0.6676383539   -2.9863360087    0.4910721589
 C   -0.4303144258   -2.2432348817    1.3122594709
 H   -0.5835295457    1.6853864836    0.4190513151
 H    0.8202324827   -0.5557574573   -0.5749224237
 H   -0.4903255127   -0.0764831959    2.1977561676
 H   -2.2320788407   -0.1027426606   -0.1786501072
 H   -2.6571261127   -3.6618580506    0.1603721368
 H   -0.6069213037   -4.0160020437   -1.0260398426
 H    0.0939807603   -2.5258438777   -1.6705981283
 H    0.8967862685   -3.9821000255    0.8770751915
 H    1.6096683179   -2.4480535270    0.3679285682
 H   -0.7626855158   -2.6987982110    2.2457539657