20

 C    0.1401530066    1.4839011219    0.1763291743
 C   -0.0557005380   -0.0028017475   -0.1427485182
 C    0.7229982873   -0.5138934496   -1.3594738779
 C    2.2506655778   -0.6373827045   -1.0959535391
 O    2.1089513388   -2.0486838505   -0.8397418121
 C    0.7841693320   -2.0653285983   -1.4062862399
 N    0.2765117438    0.1882542384   -2.5486676201
 C    0.7427330684   -0.0025593362   -3.8127552729
 O    1.6187029054   -0.7769557633   -4.1360446032
 H    1.1947825935    1.7193017209    0.3503300506
 H   -0.2112594951    2.1366137474   -0.6300704413
 H   -0.4143338560    1.7569488243    1.0786126013
 H    0.2622785869   -0.6050081675    0.7145083446
 H   -1.1223572563   -0.2186193387   -0.2939641793
 H    2.8676029349   -0.4404112975   -1.9770005989
 H    2.6464040396   -0.0990877503   -0.2268082609
 H    0.0670205609   -2.6022840258   -0.7734272958
 H    0.7777767562   -2.4751685187   -2.4205143943
 H   -0.4706986442    0.8561244322   -2.4412889233
 H    0.2183833075    0.6504449434   -4.5398804634