19

 C   -0.5016014734    1.4466728828   -0.1730706851
 C    0.1141397131    0.0565977684   -0.1888208820
 C    1.5542291421   -0.1243122415   -0.7630940486
 C    1.8394773349   -1.0760027932    0.4120301582
 O    2.6547963153   -1.9229287499    0.6323782101
 C    0.5684247368   -0.5954324238    1.1524922933
 C    0.7636504231    0.1956876299    2.4718089621
 C   -0.0229612549   -0.9715344710    3.0991003185
 O   -0.2778718012   -1.5469273814    1.7973348099
 H    0.1743882656    2.1788764983    0.2824535879
 H   -0.7201589063    1.7891551673   -1.1895822539
 H   -1.4413890918    1.4579630418    0.3894928038
 H   -0.5647028317   -0.6548078787   -0.6720642116
 H    1.6635948830   -0.5468025131   -1.7640255165
 H    2.1599730209    0.7871401950   -0.6993464479
 H    1.7934001657    0.3250442382    2.8071380728
 H    0.2451657172    1.1552893014    2.4962418673
 H    0.5733035405   -1.6433576918    3.7264000094
 H   -0.9519650990   -0.7169344588    3.6202068424