23

 C   -1.6251080696   -0.7035810546   -0.2280679688
 C   -0.1945954308   -0.2146587443    0.0307697430
 C    0.7726229022   -0.6210985656   -1.0853154884
 O    0.3647704730   -0.0005296555   -2.2974888000
 C    0.7212008413    1.3570327781   -2.4394767147
 C    2.3217121318   -0.7157009522   -0.8214701277
 C    2.0415747894   -2.0247330252   -0.0261325041
 C    1.1552792940   -2.1215695641   -1.3006308861
 C    2.4047932429   -1.6215138859   -2.0897095115
 H   -1.9808916027   -0.3587821712   -1.2021766828
 H   -1.6750880876   -1.7977181676   -0.2223442673
 H   -2.3113149173   -0.3351947208    0.5406341362
 H   -0.1919671503    0.8793864063    0.1090865662
 H    0.1486605649   -0.5753542371    1.0029261603
 H    0.3699808967    1.6749667677   -3.4246066948
 H    0.2541583807    2.0032077963   -1.6824420157
 H    1.8102566054    1.5013249760   -2.3908792684
 H    2.9998642620    0.0900828396   -0.5340564688
 H    2.8764873746   -2.7279840955    0.0124025415
 H    1.5548545854   -1.9540700401    0.9459910790
 H    0.4799944945   -2.9320240285   -1.5788346566
 H    2.2224406617   -1.1555385271   -3.0551078705
 H    3.2516425779   -2.3114010889   -2.1197125701