19

 C   -0.0418940169    1.5311244443    0.1470337806
 C   -0.0304582132    0.0353781048    0.0241075653
 C    1.1753657948   -0.7768880210   -0.4263889999
 C    0.6440912809   -0.9981810052    0.9573563376
 O    1.4513307609   -0.7823184878    2.0556079509
 C   -0.6110458102   -1.8522305950    0.9172711287
 C   -0.7432280486   -3.3359054450    1.0417335025
 O   -1.7093069050   -1.0262229693    1.3756082322
 C   -1.2473105903   -0.8673974746    0.0203877446
 H    0.9199623180    1.8954055233    0.5231013818
 H   -0.2282159842    2.0208261502   -0.8156930106
 H   -0.8208814765    1.8534251217    0.8460228560
 H    1.0884054984   -1.5413230311   -1.1947651861
 H    2.1078813495   -0.2204661067   -0.4579008953
 H    0.8823130605   -0.4923381763    2.7789067820
 H   -0.5642543593   -3.6550615662    2.0744281964
 H   -1.7467946427   -3.6599418951    0.7551207257
 H   -0.0107007903   -3.8424499061    0.4052357852
 H   -1.9691183756   -1.0480582748   -0.7690545877