16

 O   -0.6684218326    0.8452614765   -0.6075739184
 C    0.1580490940    0.9800338092    0.2572571781
 C    1.3594843385    1.8964066689    0.1621880655
 C    1.4750865470    2.5885276455   -1.1907164419
 N    2.4187837884    3.6922871905   -1.0840932621
 C    2.9982405344    4.2092975479    0.0435243801
 O    3.8779232566    5.0313115388    0.0275675445
 O    2.5322224059    3.7319069282    1.2365949156
 C    1.3238313593    2.9791735664    1.2479892473
 H    0.0841843165    0.4189621933    1.2158805962
 H    2.2493557237    1.2825819294    0.3641268647
 H    1.8150404195    1.8820539461   -1.9554255817
 H    0.4840483653    2.9422193830   -1.4999886456
 H    2.7964617171    4.0862796584   -1.9305642886
 H    0.4647560328    3.6456605626    1.0908595299
 H    1.2488618536    2.5519503953    2.2510966463