22

 C    0.0514602800    1.5813425257    0.1428026960
 C   -0.0098035801    0.0490967861    0.0034993846
 C    0.6766537646   -0.4751339067   -1.2264209516
 C    0.0864548514   -0.7755624720   -2.4401047138
 C   -1.3342129447   -0.6986674041   -2.8963162998
 N    1.0835000561   -1.2011930309   -3.2870475954
 C    2.2941956609   -1.1807294922   -2.6382960548
 C    2.0836431989   -0.7342192239   -1.3562255983
 C    3.1284155650   -0.5681690567   -0.2936801358
 H    1.0874911716    1.9334721281    0.1724528694
 H   -0.4361294031    2.0692758756   -0.7072698505
 H   -0.4454116248    1.9166552871    1.0597861470
 H    0.4411304198   -0.4055839613    0.8948016596
 H   -1.0601352983   -0.2661048778    0.0094637956
 H   -1.4950628560    0.0979791269   -3.6346606382
 H   -1.6692070843   -1.6379779785   -3.3544430994
 H   -1.9956190911   -0.4945213480   -2.0512383882
 H    0.9405196778   -1.4982528933   -4.2361295116
 H    3.2003232120   -1.4913102322   -3.1346374242
 H    3.2452154723    0.4776017886    0.0165655909
 H    2.8860286613   -1.1397831365    0.6108163383
 H    4.1047065106   -0.9141757441   -0.6465680297