15

 N   -1.5187014183    0.0299537007    0.1394973335
 C   -0.8194846127    0.8809987836   -0.2066347528
 C    0.0200431490    1.9980696935   -0.6433921116
 C    1.4148701085    2.0099979436   -0.0174251547
 C    2.4645029872    1.0696113945   -0.6067663571
 C    2.1011714392   -0.3476745771   -0.6157562393
 N    1.8467369637   -1.4736169684   -0.6477023526
 C    1.8940481100    3.2473216346    0.6183591332
 O    1.4341330831    2.1384212846    1.3955884115
 H    0.0990162723    1.9789624258   -1.7364826476
 H   -0.4972448180    2.9245980836   -0.3761574197
 H    2.6836870291    1.3733314707   -1.6378378697
 H    3.3886216895    1.1842530738   -0.0321987997
 H    2.9628356184    3.4477264619    0.6741676897
 H    1.2549248090    4.1283168747    0.6322889172