20

 C   -0.1332367178    1.4619923672   -0.0781313528
 C    1.2516032882    0.8875444720    0.0743800350
 C    0.0514011840   -0.0317889786    0.0358528232
 C   -0.3549792418   -0.7589826963    1.2636073513
 C   -0.4115650683   -2.2556705136    1.3862091737
 C   -1.6456972995   -1.4399763206    1.6852805355
 C   -1.5271438684   -0.6668272941    3.0079465275
 C   -0.2591992463   -0.8561660770    3.7412437878
 N   -0.2733160907    0.0369033439    2.5647832472
 H   -0.5488549652    1.9736912366    0.7816321337
 H   -0.4256201758    1.8651937810   -1.0415685689
 H    1.9203183992    0.8915938660   -0.7791618929
 H    1.7355971878    1.0238802422    1.0347150421
 H   -0.0848168471   -0.6076184245   -0.8751491412
 H   -0.4495001871   -2.7479046119    0.4183715252
 H    0.1140652582   -2.8402224606    2.1338655189
 H   -2.5756472156   -1.5544260103    1.1441677683
 H   -2.3554008304   -0.0976247450    3.4184540536
 H   -0.1403491813   -0.2946703177    4.6640921843
 H    0.2852176078   -1.7928552486    3.7271067784